data_str_m2_o1_o5_pcu_sym.94
_audit_creation_date              2020-01-03
_audit_creation_method            'Materials Studio'
_symmetry_space_group_name_H-M    'P1'
_symmetry_Int_Tables_number       1
_symmetry_cell_setting            triclinic
loop_
_symmetry_equiv_pos_as_xyz
  x,y,z
_cell_length_a                    32.9167
_cell_length_b                    28.8431
_cell_length_c                    27.1803
_cell_angle_alpha                 89.6649
_cell_angle_beta                  93.7864
_cell_angle_gamma                 89.0130
loop_
_atom_site_label
_atom_site_type_symbol
_atom_site_fract_x
_atom_site_fract_y
_atom_site_fract_z
_atom_site_U_iso_or_equiv
_atom_site_adp_type
_atom_site_occupancy
O1     O     0.10655   0.20625   0.16666   0.00000  Uiso   1.00
O2     O     0.22679   0.12709   0.16667   0.00000  Uiso   1.00
O3     O     0.22679   0.20625   0.16667   0.00000  Uiso   1.00
O4     O     0.10655   0.12709   0.16666   0.00000  Uiso   1.00
C5     C     0.08756   0.16709   0.16920   0.00000  Uiso   1.00
C6     C     0.24577   0.16624   0.16413   0.00000  Uiso   1.00
O7     O     0.16667   0.20625   0.09613   0.00000  Uiso   1.00
O8     O     0.16667   0.12708   0.23720   0.00000  Uiso   1.00
O9     O     0.16667   0.20625   0.23720   0.00000  Uiso   1.00
O10    O     0.16667   0.12708   0.09613   0.00000  Uiso   1.00
C11    C     0.16660   0.16675   0.07363   0.00000  Uiso   1.00
C12    C     0.16673   0.16658   0.25970   0.00000  Uiso   1.00
Cu13   Cu    0.16667   0.21355   0.16667   0.00000  Uiso   1.00
Cu14   Cu    0.16667   0.11978   0.16667   0.00000  Uiso   1.00
C15    C     0.16665   0.16678   0.02187   0.00000  Uiso   1.00
C16    C     0.16669   0.16655   0.31146   0.00000  Uiso   1.00
C17    C     0.02250   0.12555   0.17789   0.00000  Uiso   1.00
C18    C     0.31083   0.20778   0.15545   0.00000  Uiso   1.00
C19    C     0.31347   0.12390   0.16985   0.00000  Uiso   1.00
C20    C     0.01986   0.20943   0.16348   0.00000  Uiso   1.00
C21    C     0.29049   0.16553   0.16136   0.00000  Uiso   1.00
C22    C     0.04284   0.16780   0.17197   0.00000  Uiso   1.00
C23    C     0.14259   0.02538   0.13259   0.00000  Uiso   1.00
C24    C     0.19074   0.30796   0.20074   0.00000  Uiso   1.00
C25    C     0.19038   0.02396   0.20109   0.00000  Uiso   1.00
C26    C     0.14296   0.30938   0.13225   0.00000  Uiso   1.00
N27    N     0.16667   0.28402   0.16667   0.00000  Uiso   1.00
N28    N     0.16667   0.04931   0.16667   0.00000  Uiso   1.00
N29    N     0.04458   0.08418   0.19402   0.00000  Uiso   1.00
O30    O     0.06415   0.08283   0.23722   0.00000  Uiso   1.00
O31    O     0.04368   0.04724   0.16678   0.00000  Uiso   1.00
N32    N     0.28875   0.24915   0.13931   0.00000  Uiso   1.00
O33    O     0.26918   0.25051   0.09611   0.00000  Uiso   1.00
O34    O     0.28965   0.28609   0.16656   0.00000  Uiso   1.00
N35    N     0.29444   0.07943   0.16879   0.00000  Uiso   1.00
O36    O     0.27656   0.06491   0.12774   0.00000  Uiso   1.00
O37    O     0.30228   0.04996   0.20473   0.00000  Uiso   1.00
N38    N     0.03889   0.25391   0.16454   0.00000  Uiso   1.00
O39    O     0.05678   0.26842   0.20559   0.00000  Uiso   1.00
O40    O     0.03105   0.28338   0.12861   0.00000  Uiso   1.00
Br41   Br    0.10659   0.05777   0.08456   0.00000  Uiso   1.00
Br42   Br    0.22674   0.27556   0.24877   0.00000  Uiso   1.00
Br43   Br    0.22307   0.05414   0.25236   0.00000  Uiso   1.00
Br44   Br    0.11026   0.27920   0.08097   0.00000  Uiso   1.00
O45    O     0.43988   0.20625   0.16666   0.00000  Uiso   1.00
O46    O     0.56012   0.12709   0.16667   0.00000  Uiso   1.00
O47    O     0.56012   0.20625   0.16667   0.00000  Uiso   1.00
O48    O     0.43988   0.12709   0.16666   0.00000  Uiso   1.00
C49    C     0.42089   0.16709   0.16920   0.00000  Uiso   1.00
C50    C     0.57911   0.16624   0.16413   0.00000  Uiso   1.00
O51    O     0.50000   0.20625   0.09613   0.00000  Uiso   1.00
O52    O     0.50000   0.12708   0.23720   0.00000  Uiso   1.00
O53    O     0.50000   0.20625   0.23720   0.00000  Uiso   1.00
O54    O     0.50000   0.12708   0.09613   0.00000  Uiso   1.00
C55    C     0.49993   0.16675   0.07363   0.00000  Uiso   1.00
C56    C     0.50007   0.16658   0.25970   0.00000  Uiso   1.00
Cu57   Cu    0.50000   0.21355   0.16667   0.00000  Uiso   1.00
Cu58   Cu    0.50000   0.11978   0.16667   0.00000  Uiso   1.00
C59    C     0.49998   0.16678   0.02187   0.00000  Uiso   1.00
C60    C     0.50002   0.16655   0.31146   0.00000  Uiso   1.00
C61    C     0.35583   0.12555   0.17789   0.00000  Uiso   1.00
C62    C     0.64417   0.20778   0.15545   0.00000  Uiso   1.00
C63    C     0.64680   0.12390   0.16985   0.00000  Uiso   1.00
C64    C     0.35320   0.20943   0.16348   0.00000  Uiso   1.00
C65    C     0.62383   0.16553   0.16136   0.00000  Uiso   1.00
C66    C     0.37617   0.16780   0.17197   0.00000  Uiso   1.00
C67    C     0.47593   0.02538   0.13259   0.00000  Uiso   1.00
C68    C     0.52407   0.30796   0.20074   0.00000  Uiso   1.00
C69    C     0.52371   0.02396   0.20109   0.00000  Uiso   1.00
C70    C     0.47629   0.30938   0.13225   0.00000  Uiso   1.00
N71    N     0.50000   0.28402   0.16667   0.00000  Uiso   1.00
N72    N     0.50000   0.04931   0.16667   0.00000  Uiso   1.00
N73    N     0.37792   0.08418   0.19402   0.00000  Uiso   1.00
O74    O     0.39749   0.08283   0.23722   0.00000  Uiso   1.00
O75    O     0.37702   0.04724   0.16678   0.00000  Uiso   1.00
N76    N     0.62208   0.24915   0.13931   0.00000  Uiso   1.00
O77    O     0.60252   0.25051   0.09611   0.00000  Uiso   1.00
O78    O     0.62298   0.28609   0.16656   0.00000  Uiso   1.00
N79    N     0.62778   0.07943   0.16879   0.00000  Uiso   1.00
O80    O     0.60989   0.06491   0.12774   0.00000  Uiso   1.00
O81    O     0.63562   0.04996   0.20473   0.00000  Uiso   1.00
N82    N     0.37222   0.25391   0.16454   0.00000  Uiso   1.00
O83    O     0.39011   0.26842   0.20559   0.00000  Uiso   1.00
O84    O     0.36438   0.28338   0.12861   0.00000  Uiso   1.00
Br85   Br    0.43992   0.05777   0.08456   0.00000  Uiso   1.00
Br86   Br    0.56008   0.27556   0.24877   0.00000  Uiso   1.00
Br87   Br    0.55641   0.05414   0.25236   0.00000  Uiso   1.00
Br88   Br    0.44359   0.27920   0.08097   0.00000  Uiso   1.00
O89    O     0.77321   0.20625   0.16666   0.00000  Uiso   1.00
O90    O     0.89345   0.12709   0.16667   0.00000  Uiso   1.00
O91    O     0.89345   0.20625   0.16667   0.00000  Uiso   1.00
O92    O     0.77321   0.12709   0.16666   0.00000  Uiso   1.00
C93    C     0.75423   0.16709   0.16920   0.00000  Uiso   1.00
C94    C     0.91244   0.16624   0.16413   0.00000  Uiso   1.00
O95    O     0.83333   0.20625   0.09613   0.00000  Uiso   1.00
O96    O     0.83333   0.12708   0.23720   0.00000  Uiso   1.00
O97    O     0.83333   0.20625   0.23720   0.00000  Uiso   1.00
O98    O     0.83333   0.12708   0.09613   0.00000  Uiso   1.00
C99    C     0.83327   0.16675   0.07363   0.00000  Uiso   1.00
C100   C     0.83340   0.16658   0.25970   0.00000  Uiso   1.00
Cu101  Cu    0.83333   0.21355   0.16667   0.00000  Uiso   1.00
Cu102  Cu    0.83333   0.11978   0.16667   0.00000  Uiso   1.00
C103   C     0.83331   0.16678   0.02187   0.00000  Uiso   1.00
C104   C     0.83335   0.16655   0.31146   0.00000  Uiso   1.00
C105   C     0.68917   0.12555   0.17789   0.00000  Uiso   1.00
C106   C     0.97750   0.20778   0.15545   0.00000  Uiso   1.00
C107   C     0.98014   0.12390   0.16985   0.00000  Uiso   1.00
C108   C     0.68653   0.20943   0.16348   0.00000  Uiso   1.00
C109   C     0.95716   0.16553   0.16136   0.00000  Uiso   1.00
C110   C     0.70951   0.16780   0.17197   0.00000  Uiso   1.00
C111   C     0.80926   0.02538   0.13259   0.00000  Uiso   1.00
C112   C     0.85741   0.30796   0.20074   0.00000  Uiso   1.00
C113   C     0.85704   0.02396   0.20109   0.00000  Uiso   1.00
C114   C     0.80962   0.30938   0.13225   0.00000  Uiso   1.00
N115   N     0.83333   0.28402   0.16667   0.00000  Uiso   1.00
N116   N     0.83333   0.04931   0.16667   0.00000  Uiso   1.00
N117   N     0.71125   0.08418   0.19402   0.00000  Uiso   1.00
O118   O     0.73082   0.08283   0.23722   0.00000  Uiso   1.00
O119   O     0.71035   0.04724   0.16678   0.00000  Uiso   1.00
N120   N     0.95542   0.24915   0.13931   0.00000  Uiso   1.00
O121   O     0.93585   0.25051   0.09611   0.00000  Uiso   1.00
O122   O     0.95632   0.28609   0.16656   0.00000  Uiso   1.00
N123   N     0.96111   0.07943   0.16879   0.00000  Uiso   1.00
O124   O     0.94322   0.06491   0.12774   0.00000  Uiso   1.00
O125   O     0.96895   0.04996   0.20473   0.00000  Uiso   1.00
N126   N     0.70556   0.25391   0.16454   0.00000  Uiso   1.00
O127   O     0.72344   0.26842   0.20559   0.00000  Uiso   1.00
O128   O     0.69772   0.28338   0.12861   0.00000  Uiso   1.00
Br129  Br    0.77326   0.05777   0.08456   0.00000  Uiso   1.00
Br130  Br    0.89341   0.27556   0.24877   0.00000  Uiso   1.00
Br131  Br    0.88974   0.05414   0.25236   0.00000  Uiso   1.00
Br132  Br    0.77693   0.27920   0.08097   0.00000  Uiso   1.00
O133   O     0.10655   0.53958   0.16666   0.00000  Uiso   1.00
O134   O     0.22679   0.46042   0.16667   0.00000  Uiso   1.00
O135   O     0.22679   0.53958   0.16667   0.00000  Uiso   1.00
O136   O     0.10655   0.46042   0.16666   0.00000  Uiso   1.00
C137   C     0.08756   0.50042   0.16920   0.00000  Uiso   1.00
C138   C     0.24577   0.49958   0.16413   0.00000  Uiso   1.00
O139   O     0.16667   0.53959   0.09613   0.00000  Uiso   1.00
O140   O     0.16667   0.46041   0.23720   0.00000  Uiso   1.00
O141   O     0.16667   0.53959   0.23720   0.00000  Uiso   1.00
O142   O     0.16667   0.46041   0.09613   0.00000  Uiso   1.00
C143   C     0.16660   0.50008   0.07363   0.00000  Uiso   1.00
C144   C     0.16673   0.49992   0.25970   0.00000  Uiso   1.00
Cu145  Cu    0.16667   0.54689   0.16667   0.00000  Uiso   1.00
Cu146  Cu    0.16667   0.45311   0.16667   0.00000  Uiso   1.00
C147   C     0.16665   0.50011   0.02187   0.00000  Uiso   1.00
C148   C     0.16669   0.49989   0.31146   0.00000  Uiso   1.00
C149   C     0.02250   0.45888   0.17789   0.00000  Uiso   1.00
C150   C     0.31083   0.54112   0.15545   0.00000  Uiso   1.00
C151   C     0.31347   0.45723   0.16985   0.00000  Uiso   1.00
C152   C     0.01986   0.54277   0.16348   0.00000  Uiso   1.00
C153   C     0.29049   0.49886   0.16136   0.00000  Uiso   1.00
C154   C     0.04284   0.50114   0.17197   0.00000  Uiso   1.00
C155   C     0.14259   0.35871   0.13259   0.00000  Uiso   1.00
C156   C     0.19074   0.64129   0.20074   0.00000  Uiso   1.00
C157   C     0.19038   0.35729   0.20109   0.00000  Uiso   1.00
C158   C     0.14296   0.64271   0.13225   0.00000  Uiso   1.00
N159   N     0.16667   0.61736   0.16667   0.00000  Uiso   1.00
N160   N     0.16667   0.38264   0.16667   0.00000  Uiso   1.00
N161   N     0.04458   0.41752   0.19402   0.00000  Uiso   1.00
O162   O     0.06415   0.41616   0.23722   0.00000  Uiso   1.00
O163   O     0.04368   0.38058   0.16678   0.00000  Uiso   1.00
N164   N     0.28875   0.58248   0.13931   0.00000  Uiso   1.00
O165   O     0.26918   0.58384   0.09611   0.00000  Uiso   1.00
O166   O     0.28965   0.61942   0.16656   0.00000  Uiso   1.00
N167   N     0.29444   0.41276   0.16879   0.00000  Uiso   1.00
O168   O     0.27656   0.39825   0.12774   0.00000  Uiso   1.00
O169   O     0.30228   0.38329   0.20473   0.00000  Uiso   1.00
N170   N     0.03889   0.58724   0.16454   0.00000  Uiso   1.00
O171   O     0.05678   0.60175   0.20559   0.00000  Uiso   1.00
O172   O     0.03105   0.61671   0.12861   0.00000  Uiso   1.00
Br173  Br    0.10659   0.39111   0.08456   0.00000  Uiso   1.00
Br174  Br    0.22674   0.60889   0.24877   0.00000  Uiso   1.00
Br175  Br    0.22307   0.38747   0.25236   0.00000  Uiso   1.00
Br176  Br    0.11026   0.61253   0.08097   0.00000  Uiso   1.00
O177   O     0.43988   0.53958   0.16666   0.00000  Uiso   1.00
O178   O     0.56012   0.46042   0.16667   0.00000  Uiso   1.00
O179   O     0.56012   0.53958   0.16667   0.00000  Uiso   1.00
O180   O     0.43988   0.46042   0.16666   0.00000  Uiso   1.00
C181   C     0.42089   0.50042   0.16920   0.00000  Uiso   1.00
C182   C     0.57911   0.49958   0.16413   0.00000  Uiso   1.00
O183   O     0.50000   0.53959   0.09613   0.00000  Uiso   1.00
O184   O     0.50000   0.46041   0.23720   0.00000  Uiso   1.00
O185   O     0.50000   0.53959   0.23720   0.00000  Uiso   1.00
O186   O     0.50000   0.46041   0.09613   0.00000  Uiso   1.00
C187   C     0.49993   0.50008   0.07363   0.00000  Uiso   1.00
C188   C     0.50007   0.49992   0.25970   0.00000  Uiso   1.00
Cu189  Cu    0.50000   0.54689   0.16667   0.00000  Uiso   1.00
Cu190  Cu    0.50000   0.45311   0.16667   0.00000  Uiso   1.00
C191   C     0.49998   0.50011   0.02187   0.00000  Uiso   1.00
C192   C     0.50002   0.49989   0.31146   0.00000  Uiso   1.00
C193   C     0.35583   0.45888   0.17789   0.00000  Uiso   1.00
C194   C     0.64417   0.54112   0.15545   0.00000  Uiso   1.00
C195   C     0.64680   0.45723   0.16985   0.00000  Uiso   1.00
C196   C     0.35320   0.54277   0.16348   0.00000  Uiso   1.00
C197   C     0.62383   0.49886   0.16136   0.00000  Uiso   1.00
C198   C     0.37617   0.50114   0.17197   0.00000  Uiso   1.00
C199   C     0.47593   0.35871   0.13259   0.00000  Uiso   1.00
C200   C     0.52407   0.64129   0.20074   0.00000  Uiso   1.00
C201   C     0.52371   0.35729   0.20109   0.00000  Uiso   1.00
C202   C     0.47629   0.64271   0.13225   0.00000  Uiso   1.00
N203   N     0.50000   0.61736   0.16667   0.00000  Uiso   1.00
N204   N     0.50000   0.38264   0.16667   0.00000  Uiso   1.00
N205   N     0.37792   0.41752   0.19402   0.00000  Uiso   1.00
O206   O     0.39749   0.41616   0.23722   0.00000  Uiso   1.00
O207   O     0.37702   0.38058   0.16678   0.00000  Uiso   1.00
N208   N     0.62208   0.58248   0.13931   0.00000  Uiso   1.00
O209   O     0.60252   0.58384   0.09611   0.00000  Uiso   1.00
O210   O     0.62298   0.61942   0.16656   0.00000  Uiso   1.00
N211   N     0.62778   0.41276   0.16879   0.00000  Uiso   1.00
O212   O     0.60989   0.39825   0.12774   0.00000  Uiso   1.00
O213   O     0.63562   0.38329   0.20473   0.00000  Uiso   1.00
N214   N     0.37222   0.58724   0.16454   0.00000  Uiso   1.00
O215   O     0.39011   0.60175   0.20559   0.00000  Uiso   1.00
O216   O     0.36438   0.61671   0.12861   0.00000  Uiso   1.00
Br217  Br    0.43992   0.39111   0.08456   0.00000  Uiso   1.00
Br218  Br    0.56008   0.60889   0.24877   0.00000  Uiso   1.00
Br219  Br    0.55641   0.38747   0.25236   0.00000  Uiso   1.00
Br220  Br    0.44359   0.61253   0.08097   0.00000  Uiso   1.00
O221   O     0.77321   0.53958   0.16666   0.00000  Uiso   1.00
O222   O     0.89345   0.46042   0.16667   0.00000  Uiso   1.00
O223   O     0.89345   0.53958   0.16667   0.00000  Uiso   1.00
O224   O     0.77321   0.46042   0.16666   0.00000  Uiso   1.00
C225   C     0.75423   0.50042   0.16920   0.00000  Uiso   1.00
C226   C     0.91244   0.49958   0.16413   0.00000  Uiso   1.00
O227   O     0.83333   0.53959   0.09613   0.00000  Uiso   1.00
O228   O     0.83333   0.46041   0.23720   0.00000  Uiso   1.00
O229   O     0.83333   0.53959   0.23720   0.00000  Uiso   1.00
O230   O     0.83333   0.46041   0.09613   0.00000  Uiso   1.00
C231   C     0.83327   0.50008   0.07363   0.00000  Uiso   1.00
C232   C     0.83340   0.49992   0.25970   0.00000  Uiso   1.00
Cu233  Cu    0.83333   0.54689   0.16667   0.00000  Uiso   1.00
Cu234  Cu    0.83333   0.45311   0.16667   0.00000  Uiso   1.00
C235   C     0.83331   0.50011   0.02187   0.00000  Uiso   1.00
C236   C     0.83335   0.49989   0.31146   0.00000  Uiso   1.00
C237   C     0.68917   0.45888   0.17789   0.00000  Uiso   1.00
C238   C     0.97750   0.54112   0.15545   0.00000  Uiso   1.00
C239   C     0.98014   0.45723   0.16985   0.00000  Uiso   1.00
C240   C     0.68653   0.54277   0.16348   0.00000  Uiso   1.00
C241   C     0.95716   0.49886   0.16136   0.00000  Uiso   1.00
C242   C     0.70951   0.50114   0.17197   0.00000  Uiso   1.00
C243   C     0.80926   0.35871   0.13259   0.00000  Uiso   1.00
C244   C     0.85741   0.64129   0.20074   0.00000  Uiso   1.00
C245   C     0.85704   0.35729   0.20109   0.00000  Uiso   1.00
C246   C     0.80962   0.64271   0.13225   0.00000  Uiso   1.00
N247   N     0.83333   0.61736   0.16667   0.00000  Uiso   1.00
N248   N     0.83333   0.38264   0.16667   0.00000  Uiso   1.00
N249   N     0.71125   0.41752   0.19402   0.00000  Uiso   1.00
O250   O     0.73082   0.41616   0.23722   0.00000  Uiso   1.00
O251   O     0.71035   0.38058   0.16678   0.00000  Uiso   1.00
N252   N     0.95542   0.58248   0.13931   0.00000  Uiso   1.00
O253   O     0.93585   0.58384   0.09611   0.00000  Uiso   1.00
O254   O     0.95632   0.61942   0.16656   0.00000  Uiso   1.00
N255   N     0.96111   0.41276   0.16879   0.00000  Uiso   1.00
O256   O     0.94322   0.39825   0.12774   0.00000  Uiso   1.00
O257   O     0.96895   0.38329   0.20473   0.00000  Uiso   1.00
N258   N     0.70556   0.58724   0.16454   0.00000  Uiso   1.00
O259   O     0.72344   0.60175   0.20559   0.00000  Uiso   1.00
O260   O     0.69772   0.61671   0.12861   0.00000  Uiso   1.00
Br261  Br    0.77326   0.39111   0.08456   0.00000  Uiso   1.00
Br262  Br    0.89341   0.60889   0.24877   0.00000  Uiso   1.00
Br263  Br    0.88974   0.38747   0.25236   0.00000  Uiso   1.00
Br264  Br    0.77693   0.61253   0.08097   0.00000  Uiso   1.00
O265   O     0.10655   0.87291   0.16666   0.00000  Uiso   1.00
O266   O     0.22679   0.79375   0.16667   0.00000  Uiso   1.00
O267   O     0.22679   0.87291   0.16667   0.00000  Uiso   1.00
O268   O     0.10655   0.79375   0.16666   0.00000  Uiso   1.00
C269   C     0.08756   0.83376   0.16920   0.00000  Uiso   1.00
C270   C     0.24577   0.83291   0.16413   0.00000  Uiso   1.00
O271   O     0.16667   0.87292   0.09613   0.00000  Uiso   1.00
O272   O     0.16667   0.79375   0.23720   0.00000  Uiso   1.00
O273   O     0.16667   0.87292   0.23720   0.00000  Uiso   1.00
O274   O     0.16667   0.79375   0.09613   0.00000  Uiso   1.00
C275   C     0.16660   0.83342   0.07363   0.00000  Uiso   1.00
C276   C     0.16673   0.83325   0.25970   0.00000  Uiso   1.00
Cu277  Cu    0.16667   0.88022   0.16667   0.00000  Uiso   1.00
Cu278  Cu    0.16667   0.78645   0.16667   0.00000  Uiso   1.00
C279   C     0.16665   0.83345   0.02187   0.00000  Uiso   1.00
C280   C     0.16669   0.83322   0.31146   0.00000  Uiso   1.00
C281   C     0.02250   0.79222   0.17789   0.00000  Uiso   1.00
C282   C     0.31083   0.87445   0.15545   0.00000  Uiso   1.00
C283   C     0.31347   0.79057   0.16985   0.00000  Uiso   1.00
C284   C     0.01986   0.87610   0.16348   0.00000  Uiso   1.00
C285   C     0.29049   0.83220   0.16136   0.00000  Uiso   1.00
C286   C     0.04284   0.83447   0.17197   0.00000  Uiso   1.00
C287   C     0.14259   0.69204   0.13259   0.00000  Uiso   1.00
C288   C     0.19074   0.97462   0.20074   0.00000  Uiso   1.00
C289   C     0.19038   0.69062   0.20109   0.00000  Uiso   1.00
C290   C     0.14296   0.97604   0.13225   0.00000  Uiso   1.00
N291   N     0.16667   0.95069   0.16667   0.00000  Uiso   1.00
N292   N     0.16667   0.71598   0.16667   0.00000  Uiso   1.00
N293   N     0.04458   0.75085   0.19402   0.00000  Uiso   1.00
O294   O     0.06415   0.74949   0.23722   0.00000  Uiso   1.00
O295   O     0.04368   0.71391   0.16678   0.00000  Uiso   1.00
N296   N     0.28875   0.91582   0.13931   0.00000  Uiso   1.00
O297   O     0.26918   0.91717   0.09611   0.00000  Uiso   1.00
O298   O     0.28965   0.95276   0.16656   0.00000  Uiso   1.00
N299   N     0.29444   0.74609   0.16879   0.00000  Uiso   1.00
O300   O     0.27656   0.73158   0.12774   0.00000  Uiso   1.00
O301   O     0.30228   0.71663   0.20473   0.00000  Uiso   1.00
N302   N     0.03889   0.92057   0.16454   0.00000  Uiso   1.00
O303   O     0.05678   0.93509   0.20559   0.00000  Uiso   1.00
O304   O     0.03105   0.95004   0.12861   0.00000  Uiso   1.00
Br305  Br    0.10659   0.72444   0.08456   0.00000  Uiso   1.00
Br306  Br    0.22674   0.94223   0.24877   0.00000  Uiso   1.00
Br307  Br    0.22307   0.72080   0.25236   0.00000  Uiso   1.00
Br308  Br    0.11026   0.94586   0.08097   0.00000  Uiso   1.00
O309   O     0.43988   0.87291   0.16666   0.00000  Uiso   1.00
O310   O     0.56012   0.79375   0.16667   0.00000  Uiso   1.00
O311   O     0.56012   0.87291   0.16667   0.00000  Uiso   1.00
O312   O     0.43988   0.79375   0.16666   0.00000  Uiso   1.00
C313   C     0.42089   0.83376   0.16920   0.00000  Uiso   1.00
C314   C     0.57911   0.83291   0.16413   0.00000  Uiso   1.00
O315   O     0.50000   0.87292   0.09613   0.00000  Uiso   1.00
O316   O     0.50000   0.79375   0.23720   0.00000  Uiso   1.00
O317   O     0.50000   0.87292   0.23720   0.00000  Uiso   1.00
O318   O     0.50000   0.79375   0.09613   0.00000  Uiso   1.00
C319   C     0.49993   0.83342   0.07363   0.00000  Uiso   1.00
C320   C     0.50007   0.83325   0.25970   0.00000  Uiso   1.00
Cu321  Cu    0.50000   0.88022   0.16667   0.00000  Uiso   1.00
Cu322  Cu    0.50000   0.78645   0.16667   0.00000  Uiso   1.00
C323   C     0.49998   0.83345   0.02187   0.00000  Uiso   1.00
C324   C     0.50002   0.83322   0.31146   0.00000  Uiso   1.00
C325   C     0.35583   0.79222   0.17789   0.00000  Uiso   1.00
C326   C     0.64417   0.87445   0.15545   0.00000  Uiso   1.00
C327   C     0.64680   0.79057   0.16985   0.00000  Uiso   1.00
C328   C     0.35320   0.87610   0.16348   0.00000  Uiso   1.00
C329   C     0.62383   0.83220   0.16136   0.00000  Uiso   1.00
C330   C     0.37617   0.83447   0.17197   0.00000  Uiso   1.00
C331   C     0.47593   0.69204   0.13259   0.00000  Uiso   1.00
C332   C     0.52407   0.97462   0.20074   0.00000  Uiso   1.00
C333   C     0.52371   0.69062   0.20109   0.00000  Uiso   1.00
C334   C     0.47629   0.97604   0.13225   0.00000  Uiso   1.00
N335   N     0.50000   0.95069   0.16667   0.00000  Uiso   1.00
N336   N     0.50000   0.71598   0.16667   0.00000  Uiso   1.00
N337   N     0.37792   0.75085   0.19402   0.00000  Uiso   1.00
O338   O     0.39749   0.74949   0.23722   0.00000  Uiso   1.00
O339   O     0.37702   0.71391   0.16678   0.00000  Uiso   1.00
N340   N     0.62208   0.91582   0.13931   0.00000  Uiso   1.00
O341   O     0.60252   0.91717   0.09611   0.00000  Uiso   1.00
O342   O     0.62298   0.95276   0.16656   0.00000  Uiso   1.00
N343   N     0.62778   0.74609   0.16879   0.00000  Uiso   1.00
O344   O     0.60989   0.73158   0.12774   0.00000  Uiso   1.00
O345   O     0.63562   0.71663   0.20473   0.00000  Uiso   1.00
N346   N     0.37222   0.92057   0.16454   0.00000  Uiso   1.00
O347   O     0.39011   0.93509   0.20559   0.00000  Uiso   1.00
O348   O     0.36438   0.95004   0.12861   0.00000  Uiso   1.00
Br349  Br    0.43992   0.72444   0.08456   0.00000  Uiso   1.00
Br350  Br    0.56008   0.94223   0.24877   0.00000  Uiso   1.00
Br351  Br    0.55641   0.72080   0.25236   0.00000  Uiso   1.00
Br352  Br    0.44359   0.94586   0.08097   0.00000  Uiso   1.00
O353   O     0.77321   0.87291   0.16666   0.00000  Uiso   1.00
O354   O     0.89345   0.79375   0.16667   0.00000  Uiso   1.00
O355   O     0.89345   0.87291   0.16667   0.00000  Uiso   1.00
O356   O     0.77321   0.79375   0.16666   0.00000  Uiso   1.00
C357   C     0.75423   0.83376   0.16920   0.00000  Uiso   1.00
C358   C     0.91244   0.83291   0.16413   0.00000  Uiso   1.00
O359   O     0.83333   0.87292   0.09613   0.00000  Uiso   1.00
O360   O     0.83333   0.79375   0.23720   0.00000  Uiso   1.00
O361   O     0.83333   0.87292   0.23720   0.00000  Uiso   1.00
O362   O     0.83333   0.79375   0.09613   0.00000  Uiso   1.00
C363   C     0.83327   0.83342   0.07363   0.00000  Uiso   1.00
C364   C     0.83340   0.83325   0.25970   0.00000  Uiso   1.00
Cu365  Cu    0.83333   0.88022   0.16667   0.00000  Uiso   1.00
Cu366  Cu    0.83333   0.78645   0.16667   0.00000  Uiso   1.00
C367   C     0.83331   0.83345   0.02187   0.00000  Uiso   1.00
C368   C     0.83335   0.83322   0.31146   0.00000  Uiso   1.00
C369   C     0.68917   0.79222   0.17789   0.00000  Uiso   1.00
C370   C     0.97750   0.87445   0.15545   0.00000  Uiso   1.00
C371   C     0.98014   0.79057   0.16985   0.00000  Uiso   1.00
C372   C     0.68653   0.87610   0.16348   0.00000  Uiso   1.00
C373   C     0.95716   0.83220   0.16136   0.00000  Uiso   1.00
C374   C     0.70951   0.83447   0.17197   0.00000  Uiso   1.00
C375   C     0.80926   0.69204   0.13259   0.00000  Uiso   1.00
C376   C     0.85741   0.97462   0.20074   0.00000  Uiso   1.00
C377   C     0.85704   0.69062   0.20109   0.00000  Uiso   1.00
C378   C     0.80962   0.97604   0.13225   0.00000  Uiso   1.00
N379   N     0.83333   0.95069   0.16667   0.00000  Uiso   1.00
N380   N     0.83333   0.71598   0.16667   0.00000  Uiso   1.00
N381   N     0.71125   0.75085   0.19402   0.00000  Uiso   1.00
O382   O     0.73082   0.74949   0.23722   0.00000  Uiso   1.00
O383   O     0.71035   0.71391   0.16678   0.00000  Uiso   1.00
N384   N     0.95542   0.91582   0.13931   0.00000  Uiso   1.00
O385   O     0.93585   0.91717   0.09611   0.00000  Uiso   1.00
O386   O     0.95632   0.95276   0.16656   0.00000  Uiso   1.00
N387   N     0.96111   0.74609   0.16879   0.00000  Uiso   1.00
O388   O     0.94322   0.73158   0.12774   0.00000  Uiso   1.00
O389   O     0.96895   0.71663   0.20473   0.00000  Uiso   1.00
N390   N     0.70556   0.92057   0.16454   0.00000  Uiso   1.00
O391   O     0.72344   0.93509   0.20559   0.00000  Uiso   1.00
O392   O     0.69772   0.95004   0.12861   0.00000  Uiso   1.00
Br393  Br    0.77326   0.72444   0.08456   0.00000  Uiso   1.00
Br394  Br    0.89341   0.94223   0.24877   0.00000  Uiso   1.00
Br395  Br    0.88974   0.72080   0.25236   0.00000  Uiso   1.00
Br396  Br    0.77693   0.94586   0.08097   0.00000  Uiso   1.00
O397   O     0.10655   0.20625   0.50000   0.00000  Uiso   1.00
O398   O     0.22679   0.12709   0.50000   0.00000  Uiso   1.00
O399   O     0.22679   0.20625   0.50000   0.00000  Uiso   1.00
O400   O     0.10655   0.12709   0.50000   0.00000  Uiso   1.00
C401   C     0.08756   0.16709   0.50254   0.00000  Uiso   1.00
C402   C     0.24577   0.16624   0.49746   0.00000  Uiso   1.00
O403   O     0.16667   0.20625   0.42946   0.00000  Uiso   1.00
O404   O     0.16667   0.12708   0.57054   0.00000  Uiso   1.00
O405   O     0.16667   0.20625   0.57054   0.00000  Uiso   1.00
O406   O     0.16667   0.12708   0.42946   0.00000  Uiso   1.00
C407   C     0.16660   0.16675   0.40696   0.00000  Uiso   1.00
C408   C     0.16673   0.16658   0.59304   0.00000  Uiso   1.00
Cu409  Cu    0.16667   0.21355   0.50000   0.00000  Uiso   1.00
Cu410  Cu    0.16667   0.11978   0.50000   0.00000  Uiso   1.00
C411   C     0.16665   0.16678   0.35521   0.00000  Uiso   1.00
C412   C     0.16669   0.16655   0.64479   0.00000  Uiso   1.00
C413   C     0.02250   0.12555   0.51122   0.00000  Uiso   1.00
C414   C     0.31083   0.20778   0.48878   0.00000  Uiso   1.00
C415   C     0.31347   0.12390   0.50318   0.00000  Uiso   1.00
C416   C     0.01986   0.20943   0.49682   0.00000  Uiso   1.00
C417   C     0.29049   0.16553   0.49470   0.00000  Uiso   1.00
C418   C     0.04284   0.16780   0.50530   0.00000  Uiso   1.00
C419   C     0.14259   0.02538   0.46592   0.00000  Uiso   1.00
C420   C     0.19074   0.30796   0.53408   0.00000  Uiso   1.00
C421   C     0.19038   0.02396   0.53442   0.00000  Uiso   1.00
C422   C     0.14296   0.30938   0.46558   0.00000  Uiso   1.00
N423   N     0.16667   0.28402   0.50000   0.00000  Uiso   1.00
N424   N     0.16667   0.04931   0.50000   0.00000  Uiso   1.00
N425   N     0.04458   0.08418   0.52736   0.00000  Uiso   1.00
O426   O     0.06415   0.08283   0.57055   0.00000  Uiso   1.00
O427   O     0.04368   0.04724   0.50011   0.00000  Uiso   1.00
N428   N     0.28875   0.24915   0.47264   0.00000  Uiso   1.00
O429   O     0.26918   0.25051   0.42945   0.00000  Uiso   1.00
O430   O     0.28965   0.28609   0.49989   0.00000  Uiso   1.00
N431   N     0.29444   0.07943   0.50213   0.00000  Uiso   1.00
O432   O     0.27656   0.06491   0.46108   0.00000  Uiso   1.00
O433   O     0.30228   0.04996   0.53806   0.00000  Uiso   1.00
N434   N     0.03889   0.25391   0.49788   0.00000  Uiso   1.00
O435   O     0.05678   0.26842   0.53893   0.00000  Uiso   1.00
O436   O     0.03105   0.28338   0.46194   0.00000  Uiso   1.00
Br437  Br    0.10659   0.05777   0.41790   0.00000  Uiso   1.00
Br438  Br    0.22674   0.27556   0.58210   0.00000  Uiso   1.00
Br439  Br    0.22307   0.05414   0.58570   0.00000  Uiso   1.00
Br440  Br    0.11026   0.27920   0.41430   0.00000  Uiso   1.00
O441   O     0.43988   0.20625   0.50000   0.00000  Uiso   1.00
O442   O     0.56012   0.12709   0.50000   0.00000  Uiso   1.00
O443   O     0.56012   0.20625   0.50000   0.00000  Uiso   1.00
O444   O     0.43988   0.12709   0.50000   0.00000  Uiso   1.00
C445   C     0.42089   0.16709   0.50254   0.00000  Uiso   1.00
C446   C     0.57911   0.16624   0.49746   0.00000  Uiso   1.00
O447   O     0.50000   0.20625   0.42946   0.00000  Uiso   1.00
O448   O     0.50000   0.12708   0.57054   0.00000  Uiso   1.00
O449   O     0.50000   0.20625   0.57054   0.00000  Uiso   1.00
O450   O     0.50000   0.12708   0.42946   0.00000  Uiso   1.00
C451   C     0.49993   0.16675   0.40696   0.00000  Uiso   1.00
C452   C     0.50007   0.16658   0.59304   0.00000  Uiso   1.00
Cu453  Cu    0.50000   0.21355   0.50000   0.00000  Uiso   1.00
Cu454  Cu    0.50000   0.11978   0.50000   0.00000  Uiso   1.00
C455   C     0.49998   0.16678   0.35521   0.00000  Uiso   1.00
C456   C     0.50002   0.16655   0.64479   0.00000  Uiso   1.00
C457   C     0.35583   0.12555   0.51122   0.00000  Uiso   1.00
C458   C     0.64417   0.20778   0.48878   0.00000  Uiso   1.00
C459   C     0.64680   0.12390   0.50318   0.00000  Uiso   1.00
C460   C     0.35320   0.20943   0.49682   0.00000  Uiso   1.00
C461   C     0.62383   0.16553   0.49470   0.00000  Uiso   1.00
C462   C     0.37617   0.16780   0.50530   0.00000  Uiso   1.00
C463   C     0.47593   0.02538   0.46592   0.00000  Uiso   1.00
C464   C     0.52407   0.30796   0.53408   0.00000  Uiso   1.00
C465   C     0.52371   0.02396   0.53442   0.00000  Uiso   1.00
C466   C     0.47629   0.30938   0.46558   0.00000  Uiso   1.00
N467   N     0.50000   0.28402   0.50000   0.00000  Uiso   1.00
N468   N     0.50000   0.04931   0.50000   0.00000  Uiso   1.00
N469   N     0.37792   0.08418   0.52736   0.00000  Uiso   1.00
O470   O     0.39749   0.08283   0.57055   0.00000  Uiso   1.00
O471   O     0.37702   0.04724   0.50011   0.00000  Uiso   1.00
N472   N     0.62208   0.24915   0.47264   0.00000  Uiso   1.00
O473   O     0.60252   0.25051   0.42945   0.00000  Uiso   1.00
O474   O     0.62298   0.28609   0.49989   0.00000  Uiso   1.00
N475   N     0.62778   0.07943   0.50213   0.00000  Uiso   1.00
O476   O     0.60989   0.06491   0.46108   0.00000  Uiso   1.00
O477   O     0.63562   0.04996   0.53806   0.00000  Uiso   1.00
N478   N     0.37222   0.25391   0.49788   0.00000  Uiso   1.00
O479   O     0.39011   0.26842   0.53893   0.00000  Uiso   1.00
O480   O     0.36438   0.28338   0.46194   0.00000  Uiso   1.00
Br481  Br    0.43992   0.05777   0.41790   0.00000  Uiso   1.00
Br482  Br    0.56008   0.27556   0.58210   0.00000  Uiso   1.00
Br483  Br    0.55641   0.05414   0.58570   0.00000  Uiso   1.00
Br484  Br    0.44359   0.27920   0.41430   0.00000  Uiso   1.00
O485   O     0.77321   0.20625   0.50000   0.00000  Uiso   1.00
O486   O     0.89345   0.12709   0.50000   0.00000  Uiso   1.00
O487   O     0.89345   0.20625   0.50000   0.00000  Uiso   1.00
O488   O     0.77321   0.12709   0.50000   0.00000  Uiso   1.00
C489   C     0.75423   0.16709   0.50254   0.00000  Uiso   1.00
C490   C     0.91244   0.16624   0.49746   0.00000  Uiso   1.00
O491   O     0.83333   0.20625   0.42946   0.00000  Uiso   1.00
O492   O     0.83333   0.12708   0.57054   0.00000  Uiso   1.00
O493   O     0.83333   0.20625   0.57054   0.00000  Uiso   1.00
O494   O     0.83333   0.12708   0.42946   0.00000  Uiso   1.00
C495   C     0.83327   0.16675   0.40696   0.00000  Uiso   1.00
C496   C     0.83340   0.16658   0.59304   0.00000  Uiso   1.00
Cu497  Cu    0.83333   0.21355   0.50000   0.00000  Uiso   1.00
Cu498  Cu    0.83333   0.11978   0.50000   0.00000  Uiso   1.00
C499   C     0.83331   0.16678   0.35521   0.00000  Uiso   1.00
C500   C     0.83335   0.16655   0.64479   0.00000  Uiso   1.00
C501   C     0.68917   0.12555   0.51122   0.00000  Uiso   1.00
C502   C     0.97750   0.20778   0.48878   0.00000  Uiso   1.00
C503   C     0.98014   0.12390   0.50318   0.00000  Uiso   1.00
C504   C     0.68653   0.20943   0.49682   0.00000  Uiso   1.00
C505   C     0.95716   0.16553   0.49470   0.00000  Uiso   1.00
C506   C     0.70951   0.16780   0.50530   0.00000  Uiso   1.00
C507   C     0.80926   0.02538   0.46592   0.00000  Uiso   1.00
C508   C     0.85741   0.30796   0.53408   0.00000  Uiso   1.00
C509   C     0.85704   0.02396   0.53442   0.00000  Uiso   1.00
C510   C     0.80962   0.30938   0.46558   0.00000  Uiso   1.00
N511   N     0.83333   0.28402   0.50000   0.00000  Uiso   1.00
N512   N     0.83333   0.04931   0.50000   0.00000  Uiso   1.00
N513   N     0.71125   0.08418   0.52736   0.00000  Uiso   1.00
O514   O     0.73082   0.08283   0.57055   0.00000  Uiso   1.00
O515   O     0.71035   0.04724   0.50011   0.00000  Uiso   1.00
N516   N     0.95542   0.24915   0.47264   0.00000  Uiso   1.00
O517   O     0.93585   0.25051   0.42945   0.00000  Uiso   1.00
O518   O     0.95632   0.28609   0.49989   0.00000  Uiso   1.00
N519   N     0.96111   0.07943   0.50213   0.00000  Uiso   1.00
O520   O     0.94322   0.06491   0.46108   0.00000  Uiso   1.00
O521   O     0.96895   0.04996   0.53806   0.00000  Uiso   1.00
N522   N     0.70556   0.25391   0.49788   0.00000  Uiso   1.00
O523   O     0.72344   0.26842   0.53893   0.00000  Uiso   1.00
O524   O     0.69772   0.28338   0.46194   0.00000  Uiso   1.00
Br525  Br    0.77326   0.05777   0.41790   0.00000  Uiso   1.00
Br526  Br    0.89341   0.27556   0.58210   0.00000  Uiso   1.00
Br527  Br    0.88974   0.05414   0.58570   0.00000  Uiso   1.00
Br528  Br    0.77693   0.27920   0.41430   0.00000  Uiso   1.00
O529   O     0.10655   0.53958   0.50000   0.00000  Uiso   1.00
O530   O     0.22679   0.46042   0.50000   0.00000  Uiso   1.00
O531   O     0.22679   0.53958   0.50000   0.00000  Uiso   1.00
O532   O     0.10655   0.46042   0.50000   0.00000  Uiso   1.00
C533   C     0.08756   0.50042   0.50254   0.00000  Uiso   1.00
C534   C     0.24577   0.49958   0.49746   0.00000  Uiso   1.00
O535   O     0.16667   0.53959   0.42946   0.00000  Uiso   1.00
O536   O     0.16667   0.46041   0.57054   0.00000  Uiso   1.00
O537   O     0.16667   0.53959   0.57054   0.00000  Uiso   1.00
O538   O     0.16667   0.46041   0.42946   0.00000  Uiso   1.00
C539   C     0.16660   0.50008   0.40696   0.00000  Uiso   1.00
C540   C     0.16673   0.49992   0.59304   0.00000  Uiso   1.00
Cu541  Cu    0.16667   0.54689   0.50000   0.00000  Uiso   1.00
Cu542  Cu    0.16667   0.45311   0.50000   0.00000  Uiso   1.00
C543   C     0.16665   0.50011   0.35521   0.00000  Uiso   1.00
C544   C     0.16669   0.49989   0.64479   0.00000  Uiso   1.00
C545   C     0.02250   0.45888   0.51122   0.00000  Uiso   1.00
C546   C     0.31083   0.54112   0.48878   0.00000  Uiso   1.00
C547   C     0.31347   0.45723   0.50318   0.00000  Uiso   1.00
C548   C     0.01986   0.54277   0.49682   0.00000  Uiso   1.00
C549   C     0.29049   0.49886   0.49470   0.00000  Uiso   1.00
C550   C     0.04284   0.50114   0.50530   0.00000  Uiso   1.00
C551   C     0.14259   0.35871   0.46592   0.00000  Uiso   1.00
C552   C     0.19074   0.64129   0.53408   0.00000  Uiso   1.00
C553   C     0.19038   0.35729   0.53442   0.00000  Uiso   1.00
C554   C     0.14296   0.64271   0.46558   0.00000  Uiso   1.00
N555   N     0.16667   0.61736   0.50000   0.00000  Uiso   1.00
N556   N     0.16667   0.38264   0.50000   0.00000  Uiso   1.00
N557   N     0.04458   0.41752   0.52736   0.00000  Uiso   1.00
O558   O     0.06415   0.41616   0.57055   0.00000  Uiso   1.00
O559   O     0.04368   0.38058   0.50011   0.00000  Uiso   1.00
N560   N     0.28875   0.58248   0.47264   0.00000  Uiso   1.00
O561   O     0.26918   0.58384   0.42945   0.00000  Uiso   1.00
O562   O     0.28965   0.61942   0.49989   0.00000  Uiso   1.00
N563   N     0.29444   0.41276   0.50213   0.00000  Uiso   1.00
O564   O     0.27656   0.39825   0.46108   0.00000  Uiso   1.00
O565   O     0.30228   0.38329   0.53806   0.00000  Uiso   1.00
N566   N     0.03889   0.58724   0.49788   0.00000  Uiso   1.00
O567   O     0.05678   0.60175   0.53893   0.00000  Uiso   1.00
O568   O     0.03105   0.61671   0.46194   0.00000  Uiso   1.00
Br569  Br    0.10659   0.39111   0.41790   0.00000  Uiso   1.00
Br570  Br    0.22674   0.60889   0.58210   0.00000  Uiso   1.00
Br571  Br    0.22307   0.38747   0.58570   0.00000  Uiso   1.00
Br572  Br    0.11026   0.61253   0.41430   0.00000  Uiso   1.00
O573   O     0.43988   0.53958   0.50000   0.00000  Uiso   1.00
O574   O     0.56012   0.46042   0.50000   0.00000  Uiso   1.00
O575   O     0.56012   0.53958   0.50000   0.00000  Uiso   1.00
O576   O     0.43988   0.46042   0.50000   0.00000  Uiso   1.00
C577   C     0.42089   0.50042   0.50254   0.00000  Uiso   1.00
C578   C     0.57911   0.49958   0.49746   0.00000  Uiso   1.00
O579   O     0.50000   0.53959   0.42946   0.00000  Uiso   1.00
O580   O     0.50000   0.46041   0.57054   0.00000  Uiso   1.00
O581   O     0.50000   0.53959   0.57054   0.00000  Uiso   1.00
O582   O     0.50000   0.46041   0.42946   0.00000  Uiso   1.00
C583   C     0.49993   0.50008   0.40696   0.00000  Uiso   1.00
C584   C     0.50007   0.49992   0.59304   0.00000  Uiso   1.00
Cu585  Cu    0.50000   0.54689   0.50000   0.00000  Uiso   1.00
Cu586  Cu    0.50000   0.45311   0.50000   0.00000  Uiso   1.00
C587   C     0.49998   0.50011   0.35521   0.00000  Uiso   1.00
C588   C     0.50002   0.49989   0.64479   0.00000  Uiso   1.00
C589   C     0.35583   0.45888   0.51122   0.00000  Uiso   1.00
C590   C     0.64417   0.54112   0.48878   0.00000  Uiso   1.00
C591   C     0.64680   0.45723   0.50318   0.00000  Uiso   1.00
C592   C     0.35320   0.54277   0.49682   0.00000  Uiso   1.00
C593   C     0.62383   0.49886   0.49470   0.00000  Uiso   1.00
C594   C     0.37617   0.50114   0.50530   0.00000  Uiso   1.00
C595   C     0.47593   0.35871   0.46592   0.00000  Uiso   1.00
C596   C     0.52407   0.64129   0.53408   0.00000  Uiso   1.00
C597   C     0.52371   0.35729   0.53442   0.00000  Uiso   1.00
C598   C     0.47629   0.64271   0.46558   0.00000  Uiso   1.00
N599   N     0.50000   0.61736   0.50000   0.00000  Uiso   1.00
N600   N     0.50000   0.38264   0.50000   0.00000  Uiso   1.00
N601   N     0.37792   0.41752   0.52736   0.00000  Uiso   1.00
O602   O     0.39749   0.41616   0.57055   0.00000  Uiso   1.00
O603   O     0.37702   0.38058   0.50011   0.00000  Uiso   1.00
N604   N     0.62208   0.58248   0.47264   0.00000  Uiso   1.00
O605   O     0.60252   0.58384   0.42945   0.00000  Uiso   1.00
O606   O     0.62298   0.61942   0.49989   0.00000  Uiso   1.00
N607   N     0.62778   0.41276   0.50213   0.00000  Uiso   1.00
O608   O     0.60989   0.39825   0.46108   0.00000  Uiso   1.00
O609   O     0.63562   0.38329   0.53806   0.00000  Uiso   1.00
N610   N     0.37222   0.58724   0.49788   0.00000  Uiso   1.00
O611   O     0.39011   0.60175   0.53893   0.00000  Uiso   1.00
O612   O     0.36438   0.61671   0.46194   0.00000  Uiso   1.00
Br613  Br    0.43992   0.39111   0.41790   0.00000  Uiso   1.00
Br614  Br    0.56008   0.60889   0.58210   0.00000  Uiso   1.00
Br615  Br    0.55641   0.38747   0.58570   0.00000  Uiso   1.00
Br616  Br    0.44359   0.61253   0.41430   0.00000  Uiso   1.00
O617   O     0.77321   0.53958   0.50000   0.00000  Uiso   1.00
O618   O     0.89345   0.46042   0.50000   0.00000  Uiso   1.00
O619   O     0.89345   0.53958   0.50000   0.00000  Uiso   1.00
O620   O     0.77321   0.46042   0.50000   0.00000  Uiso   1.00
C621   C     0.75423   0.50042   0.50254   0.00000  Uiso   1.00
C622   C     0.91244   0.49958   0.49746   0.00000  Uiso   1.00
O623   O     0.83333   0.53959   0.42946   0.00000  Uiso   1.00
O624   O     0.83333   0.46041   0.57054   0.00000  Uiso   1.00
O625   O     0.83333   0.53959   0.57054   0.00000  Uiso   1.00
O626   O     0.83333   0.46041   0.42946   0.00000  Uiso   1.00
C627   C     0.83327   0.50008   0.40696   0.00000  Uiso   1.00
C628   C     0.83340   0.49992   0.59304   0.00000  Uiso   1.00
Cu629  Cu    0.83333   0.54689   0.50000   0.00000  Uiso   1.00
Cu630  Cu    0.83333   0.45311   0.50000   0.00000  Uiso   1.00
C631   C     0.83331   0.50011   0.35521   0.00000  Uiso   1.00
C632   C     0.83335   0.49989   0.64479   0.00000  Uiso   1.00
C633   C     0.68917   0.45888   0.51122   0.00000  Uiso   1.00
C634   C     0.97750   0.54112   0.48878   0.00000  Uiso   1.00
C635   C     0.98014   0.45723   0.50318   0.00000  Uiso   1.00
C636   C     0.68653   0.54277   0.49682   0.00000  Uiso   1.00
C637   C     0.95716   0.49886   0.49470   0.00000  Uiso   1.00
C638   C     0.70951   0.50114   0.50530   0.00000  Uiso   1.00
C639   C     0.80926   0.35871   0.46592   0.00000  Uiso   1.00
C640   C     0.85741   0.64129   0.53408   0.00000  Uiso   1.00
C641   C     0.85704   0.35729   0.53442   0.00000  Uiso   1.00
C642   C     0.80962   0.64271   0.46558   0.00000  Uiso   1.00
N643   N     0.83333   0.61736   0.50000   0.00000  Uiso   1.00
N644   N     0.83333   0.38264   0.50000   0.00000  Uiso   1.00
N645   N     0.71125   0.41752   0.52736   0.00000  Uiso   1.00
O646   O     0.73082   0.41616   0.57055   0.00000  Uiso   1.00
O647   O     0.71035   0.38058   0.50011   0.00000  Uiso   1.00
N648   N     0.95542   0.58248   0.47264   0.00000  Uiso   1.00
O649   O     0.93585   0.58384   0.42945   0.00000  Uiso   1.00
O650   O     0.95632   0.61942   0.49989   0.00000  Uiso   1.00
N651   N     0.96111   0.41276   0.50213   0.00000  Uiso   1.00
O652   O     0.94322   0.39825   0.46108   0.00000  Uiso   1.00
O653   O     0.96895   0.38329   0.53806   0.00000  Uiso   1.00
N654   N     0.70556   0.58724   0.49788   0.00000  Uiso   1.00
O655   O     0.72344   0.60175   0.53893   0.00000  Uiso   1.00
O656   O     0.69772   0.61671   0.46194   0.00000  Uiso   1.00
Br657  Br    0.77326   0.39111   0.41790   0.00000  Uiso   1.00
Br658  Br    0.89341   0.60889   0.58210   0.00000  Uiso   1.00
Br659  Br    0.88974   0.38747   0.58570   0.00000  Uiso   1.00
Br660  Br    0.77693   0.61253   0.41430   0.00000  Uiso   1.00
O661   O     0.10655   0.87291   0.50000   0.00000  Uiso   1.00
O662   O     0.22679   0.79375   0.50000   0.00000  Uiso   1.00
O663   O     0.22679   0.87291   0.50000   0.00000  Uiso   1.00
O664   O     0.10655   0.79375   0.50000   0.00000  Uiso   1.00
C665   C     0.08756   0.83376   0.50254   0.00000  Uiso   1.00
C666   C     0.24577   0.83291   0.49746   0.00000  Uiso   1.00
O667   O     0.16667   0.87292   0.42946   0.00000  Uiso   1.00
O668   O     0.16667   0.79375   0.57054   0.00000  Uiso   1.00
O669   O     0.16667   0.87292   0.57054   0.00000  Uiso   1.00
O670   O     0.16667   0.79375   0.42946   0.00000  Uiso   1.00
C671   C     0.16660   0.83342   0.40696   0.00000  Uiso   1.00
C672   C     0.16673   0.83325   0.59304   0.00000  Uiso   1.00
Cu673  Cu    0.16667   0.88022   0.50000   0.00000  Uiso   1.00
Cu674  Cu    0.16667   0.78645   0.50000   0.00000  Uiso   1.00
C675   C     0.16665   0.83345   0.35521   0.00000  Uiso   1.00
C676   C     0.16669   0.83322   0.64479   0.00000  Uiso   1.00
C677   C     0.02250   0.79222   0.51122   0.00000  Uiso   1.00
C678   C     0.31083   0.87445   0.48878   0.00000  Uiso   1.00
C679   C     0.31347   0.79057   0.50318   0.00000  Uiso   1.00
C680   C     0.01986   0.87610   0.49682   0.00000  Uiso   1.00
C681   C     0.29049   0.83220   0.49470   0.00000  Uiso   1.00
C682   C     0.04284   0.83447   0.50530   0.00000  Uiso   1.00
C683   C     0.14259   0.69204   0.46592   0.00000  Uiso   1.00
C684   C     0.19074   0.97462   0.53408   0.00000  Uiso   1.00
C685   C     0.19038   0.69062   0.53442   0.00000  Uiso   1.00
C686   C     0.14296   0.97604   0.46558   0.00000  Uiso   1.00
N687   N     0.16667   0.95069   0.50000   0.00000  Uiso   1.00
N688   N     0.16667   0.71598   0.50000   0.00000  Uiso   1.00
N689   N     0.04458   0.75085   0.52736   0.00000  Uiso   1.00
O690   O     0.06415   0.74949   0.57055   0.00000  Uiso   1.00
O691   O     0.04368   0.71391   0.50011   0.00000  Uiso   1.00
N692   N     0.28875   0.91582   0.47264   0.00000  Uiso   1.00
O693   O     0.26918   0.91717   0.42945   0.00000  Uiso   1.00
O694   O     0.28965   0.95276   0.49989   0.00000  Uiso   1.00
N695   N     0.29444   0.74609   0.50213   0.00000  Uiso   1.00
O696   O     0.27656   0.73158   0.46108   0.00000  Uiso   1.00
O697   O     0.30228   0.71663   0.53806   0.00000  Uiso   1.00
N698   N     0.03889   0.92057   0.49788   0.00000  Uiso   1.00
O699   O     0.05678   0.93509   0.53893   0.00000  Uiso   1.00
O700   O     0.03105   0.95004   0.46194   0.00000  Uiso   1.00
Br701  Br    0.10659   0.72444   0.41790   0.00000  Uiso   1.00
Br702  Br    0.22674   0.94223   0.58210   0.00000  Uiso   1.00
Br703  Br    0.22307   0.72080   0.58570   0.00000  Uiso   1.00
Br704  Br    0.11026   0.94586   0.41430   0.00000  Uiso   1.00
O705   O     0.43988   0.87291   0.50000   0.00000  Uiso   1.00
O706   O     0.56012   0.79375   0.50000   0.00000  Uiso   1.00
O707   O     0.56012   0.87291   0.50000   0.00000  Uiso   1.00
O708   O     0.43988   0.79375   0.50000   0.00000  Uiso   1.00
C709   C     0.42089   0.83376   0.50254   0.00000  Uiso   1.00
C710   C     0.57911   0.83291   0.49746   0.00000  Uiso   1.00
O711   O     0.50000   0.87292   0.42946   0.00000  Uiso   1.00
O712   O     0.50000   0.79375   0.57054   0.00000  Uiso   1.00
O713   O     0.50000   0.87292   0.57054   0.00000  Uiso   1.00
O714   O     0.50000   0.79375   0.42946   0.00000  Uiso   1.00
C715   C     0.49993   0.83342   0.40696   0.00000  Uiso   1.00
C716   C     0.50007   0.83325   0.59304   0.00000  Uiso   1.00
Cu717  Cu    0.50000   0.88022   0.50000   0.00000  Uiso   1.00
Cu718  Cu    0.50000   0.78645   0.50000   0.00000  Uiso   1.00
C719   C     0.49998   0.83345   0.35521   0.00000  Uiso   1.00
C720   C     0.50002   0.83322   0.64479   0.00000  Uiso   1.00
C721   C     0.35583   0.79222   0.51122   0.00000  Uiso   1.00
C722   C     0.64417   0.87445   0.48878   0.00000  Uiso   1.00
C723   C     0.64680   0.79057   0.50318   0.00000  Uiso   1.00
C724   C     0.35320   0.87610   0.49682   0.00000  Uiso   1.00
C725   C     0.62383   0.83220   0.49470   0.00000  Uiso   1.00
C726   C     0.37617   0.83447   0.50530   0.00000  Uiso   1.00
C727   C     0.47593   0.69204   0.46592   0.00000  Uiso   1.00
C728   C     0.52407   0.97462   0.53408   0.00000  Uiso   1.00
C729   C     0.52371   0.69062   0.53442   0.00000  Uiso   1.00
C730   C     0.47629   0.97604   0.46558   0.00000  Uiso   1.00
N731   N     0.50000   0.95069   0.50000   0.00000  Uiso   1.00
N732   N     0.50000   0.71598   0.50000   0.00000  Uiso   1.00
N733   N     0.37792   0.75085   0.52736   0.00000  Uiso   1.00
O734   O     0.39749   0.74949   0.57055   0.00000  Uiso   1.00
O735   O     0.37702   0.71391   0.50011   0.00000  Uiso   1.00
N736   N     0.62208   0.91582   0.47264   0.00000  Uiso   1.00
O737   O     0.60252   0.91717   0.42945   0.00000  Uiso   1.00
O738   O     0.62298   0.95276   0.49989   0.00000  Uiso   1.00
N739   N     0.62778   0.74609   0.50213   0.00000  Uiso   1.00
O740   O     0.60989   0.73158   0.46108   0.00000  Uiso   1.00
O741   O     0.63562   0.71663   0.53806   0.00000  Uiso   1.00
N742   N     0.37222   0.92057   0.49788   0.00000  Uiso   1.00
O743   O     0.39011   0.93509   0.53893   0.00000  Uiso   1.00
O744   O     0.36438   0.95004   0.46194   0.00000  Uiso   1.00
Br745  Br    0.43992   0.72444   0.41790   0.00000  Uiso   1.00
Br746  Br    0.56008   0.94223   0.58210   0.00000  Uiso   1.00
Br747  Br    0.55641   0.72080   0.58570   0.00000  Uiso   1.00
Br748  Br    0.44359   0.94586   0.41430   0.00000  Uiso   1.00
O749   O     0.77321   0.87291   0.50000   0.00000  Uiso   1.00
O750   O     0.89345   0.79375   0.50000   0.00000  Uiso   1.00
O751   O     0.89345   0.87291   0.50000   0.00000  Uiso   1.00
O752   O     0.77321   0.79375   0.50000   0.00000  Uiso   1.00
C753   C     0.75423   0.83376   0.50254   0.00000  Uiso   1.00
C754   C     0.91244   0.83291   0.49746   0.00000  Uiso   1.00
O755   O     0.83333   0.87292   0.42946   0.00000  Uiso   1.00
O756   O     0.83333   0.79375   0.57054   0.00000  Uiso   1.00
O757   O     0.83333   0.87292   0.57054   0.00000  Uiso   1.00
O758   O     0.83333   0.79375   0.42946   0.00000  Uiso   1.00
C759   C     0.83327   0.83342   0.40696   0.00000  Uiso   1.00
C760   C     0.83340   0.83325   0.59304   0.00000  Uiso   1.00
Cu761  Cu    0.83333   0.88022   0.50000   0.00000  Uiso   1.00
Cu762  Cu    0.83333   0.78645   0.50000   0.00000  Uiso   1.00
C763   C     0.83331   0.83345   0.35521   0.00000  Uiso   1.00
C764   C     0.83335   0.83322   0.64479   0.00000  Uiso   1.00
C765   C     0.68917   0.79222   0.51122   0.00000  Uiso   1.00
C766   C     0.97750   0.87445   0.48878   0.00000  Uiso   1.00
C767   C     0.98014   0.79057   0.50318   0.00000  Uiso   1.00
C768   C     0.68653   0.87610   0.49682   0.00000  Uiso   1.00
C769   C     0.95716   0.83220   0.49470   0.00000  Uiso   1.00
C770   C     0.70951   0.83447   0.50530   0.00000  Uiso   1.00
C771   C     0.80926   0.69204   0.46592   0.00000  Uiso   1.00
C772   C     0.85741   0.97462   0.53408   0.00000  Uiso   1.00
C773   C     0.85704   0.69062   0.53442   0.00000  Uiso   1.00
C774   C     0.80962   0.97604   0.46558   0.00000  Uiso   1.00
N775   N     0.83333   0.95069   0.50000   0.00000  Uiso   1.00
N776   N     0.83333   0.71598   0.50000   0.00000  Uiso   1.00
N777   N     0.71125   0.75085   0.52736   0.00000  Uiso   1.00
O778   O     0.73082   0.74949   0.57055   0.00000  Uiso   1.00
O779   O     0.71035   0.71391   0.50011   0.00000  Uiso   1.00
N780   N     0.95542   0.91582   0.47264   0.00000  Uiso   1.00
O781   O     0.93585   0.91717   0.42945   0.00000  Uiso   1.00
O782   O     0.95632   0.95276   0.49989   0.00000  Uiso   1.00
N783   N     0.96111   0.74609   0.50213   0.00000  Uiso   1.00
O784   O     0.94322   0.73158   0.46108   0.00000  Uiso   1.00
O785   O     0.96895   0.71663   0.53806   0.00000  Uiso   1.00
N786   N     0.70556   0.92057   0.49788   0.00000  Uiso   1.00
O787   O     0.72344   0.93509   0.53893   0.00000  Uiso   1.00
O788   O     0.69772   0.95004   0.46194   0.00000  Uiso   1.00
Br789  Br    0.77326   0.72444   0.41790   0.00000  Uiso   1.00
Br790  Br    0.89341   0.94223   0.58210   0.00000  Uiso   1.00
Br791  Br    0.88974   0.72080   0.58570   0.00000  Uiso   1.00
Br792  Br    0.77693   0.94586   0.41430   0.00000  Uiso   1.00
O793   O     0.10655   0.20625   0.83333   0.00000  Uiso   1.00
O794   O     0.22679   0.12709   0.83334   0.00000  Uiso   1.00
O795   O     0.22679   0.20625   0.83334   0.00000  Uiso   1.00
O796   O     0.10655   0.12709   0.83333   0.00000  Uiso   1.00
C797   C     0.08756   0.16709   0.83587   0.00000  Uiso   1.00
C798   C     0.24577   0.16624   0.83080   0.00000  Uiso   1.00
O799   O     0.16667   0.20625   0.76280   0.00000  Uiso   1.00
O800   O     0.16667   0.12708   0.90387   0.00000  Uiso   1.00
O801   O     0.16667   0.20625   0.90387   0.00000  Uiso   1.00
O802   O     0.16667   0.12708   0.76280   0.00000  Uiso   1.00
C803   C     0.16660   0.16675   0.74030   0.00000  Uiso   1.00
C804   C     0.16673   0.16658   0.92637   0.00000  Uiso   1.00
Cu805  Cu    0.16667   0.21355   0.83333   0.00000  Uiso   1.00
Cu806  Cu    0.16667   0.11978   0.83333   0.00000  Uiso   1.00
C807   C     0.16665   0.16678   0.68854   0.00000  Uiso   1.00
C808   C     0.16669   0.16655   0.97813   0.00000  Uiso   1.00
C809   C     0.02250   0.12555   0.84455   0.00000  Uiso   1.00
C810   C     0.31083   0.20778   0.82211   0.00000  Uiso   1.00
C811   C     0.31347   0.12390   0.83652   0.00000  Uiso   1.00
C812   C     0.01986   0.20943   0.83015   0.00000  Uiso   1.00
C813   C     0.29049   0.16553   0.82803   0.00000  Uiso   1.00
C814   C     0.04284   0.16780   0.83864   0.00000  Uiso   1.00
C815   C     0.14259   0.02538   0.79926   0.00000  Uiso   1.00
C816   C     0.19074   0.30796   0.86741   0.00000  Uiso   1.00
C817   C     0.19038   0.02396   0.86775   0.00000  Uiso   1.00
C818   C     0.14296   0.30938   0.79891   0.00000  Uiso   1.00
N819   N     0.16667   0.28402   0.83333   0.00000  Uiso   1.00
N820   N     0.16667   0.04931   0.83333   0.00000  Uiso   1.00
N821   N     0.04458   0.08418   0.86069   0.00000  Uiso   1.00
O822   O     0.06415   0.08283   0.90389   0.00000  Uiso   1.00
O823   O     0.04368   0.04724   0.83344   0.00000  Uiso   1.00
N824   N     0.28875   0.24915   0.80598   0.00000  Uiso   1.00
O825   O     0.26918   0.25051   0.76278   0.00000  Uiso   1.00
O826   O     0.28965   0.28609   0.83323   0.00000  Uiso   1.00
N827   N     0.29444   0.07943   0.83546   0.00000  Uiso   1.00
O828   O     0.27656   0.06491   0.79441   0.00000  Uiso   1.00
O829   O     0.30228   0.04996   0.87139   0.00000  Uiso   1.00
N830   N     0.03889   0.25391   0.83121   0.00000  Uiso   1.00
O831   O     0.05678   0.26842   0.87226   0.00000  Uiso   1.00
O832   O     0.03105   0.28338   0.79528   0.00000  Uiso   1.00
Br833  Br    0.10659   0.05777   0.75123   0.00000  Uiso   1.00
Br834  Br    0.22674   0.27556   0.91544   0.00000  Uiso   1.00
Br835  Br    0.22307   0.05414   0.91903   0.00000  Uiso   1.00
Br836  Br    0.11026   0.27920   0.74764   0.00000  Uiso   1.00
O837   O     0.43988   0.20625   0.83333   0.00000  Uiso   1.00
O838   O     0.56012   0.12709   0.83334   0.00000  Uiso   1.00
O839   O     0.56012   0.20625   0.83334   0.00000  Uiso   1.00
O840   O     0.43988   0.12709   0.83333   0.00000  Uiso   1.00
C841   C     0.42089   0.16709   0.83587   0.00000  Uiso   1.00
C842   C     0.57911   0.16624   0.83080   0.00000  Uiso   1.00
O843   O     0.50000   0.20625   0.76280   0.00000  Uiso   1.00
O844   O     0.50000   0.12708   0.90387   0.00000  Uiso   1.00
O845   O     0.50000   0.20625   0.90387   0.00000  Uiso   1.00
O846   O     0.50000   0.12708   0.76280   0.00000  Uiso   1.00
C847   C     0.49993   0.16675   0.74030   0.00000  Uiso   1.00
C848   C     0.50007   0.16658   0.92637   0.00000  Uiso   1.00
Cu849  Cu    0.50000   0.21355   0.83333   0.00000  Uiso   1.00
Cu850  Cu    0.50000   0.11978   0.83333   0.00000  Uiso   1.00
C851   C     0.49998   0.16678   0.68854   0.00000  Uiso   1.00
C852   C     0.50002   0.16655   0.97813   0.00000  Uiso   1.00
C853   C     0.35583   0.12555   0.84455   0.00000  Uiso   1.00
C854   C     0.64417   0.20778   0.82211   0.00000  Uiso   1.00
C855   C     0.64680   0.12390   0.83652   0.00000  Uiso   1.00
C856   C     0.35320   0.20943   0.83015   0.00000  Uiso   1.00
C857   C     0.62383   0.16553   0.82803   0.00000  Uiso   1.00
C858   C     0.37617   0.16780   0.83864   0.00000  Uiso   1.00
C859   C     0.47593   0.02538   0.79926   0.00000  Uiso   1.00
C860   C     0.52407   0.30796   0.86741   0.00000  Uiso   1.00
C861   C     0.52371   0.02396   0.86775   0.00000  Uiso   1.00
C862   C     0.47629   0.30938   0.79891   0.00000  Uiso   1.00
N863   N     0.50000   0.28402   0.83333   0.00000  Uiso   1.00
N864   N     0.50000   0.04931   0.83333   0.00000  Uiso   1.00
N865   N     0.37792   0.08418   0.86069   0.00000  Uiso   1.00
O866   O     0.39749   0.08283   0.90389   0.00000  Uiso   1.00
O867   O     0.37702   0.04724   0.83344   0.00000  Uiso   1.00
N868   N     0.62208   0.24915   0.80598   0.00000  Uiso   1.00
O869   O     0.60252   0.25051   0.76278   0.00000  Uiso   1.00
O870   O     0.62298   0.28609   0.83323   0.00000  Uiso   1.00
N871   N     0.62778   0.07943   0.83546   0.00000  Uiso   1.00
O872   O     0.60989   0.06491   0.79441   0.00000  Uiso   1.00
O873   O     0.63562   0.04996   0.87139   0.00000  Uiso   1.00
N874   N     0.37222   0.25391   0.83121   0.00000  Uiso   1.00
O875   O     0.39011   0.26842   0.87226   0.00000  Uiso   1.00
O876   O     0.36438   0.28338   0.79528   0.00000  Uiso   1.00
Br877  Br    0.43992   0.05777   0.75123   0.00000  Uiso   1.00
Br878  Br    0.56008   0.27556   0.91544   0.00000  Uiso   1.00
Br879  Br    0.55641   0.05414   0.91903   0.00000  Uiso   1.00
Br880  Br    0.44359   0.27920   0.74764   0.00000  Uiso   1.00
O881   O     0.77321   0.20625   0.83333   0.00000  Uiso   1.00
O882   O     0.89345   0.12709   0.83334   0.00000  Uiso   1.00
O883   O     0.89345   0.20625   0.83334   0.00000  Uiso   1.00
O884   O     0.77321   0.12709   0.83333   0.00000  Uiso   1.00
C885   C     0.75423   0.16709   0.83587   0.00000  Uiso   1.00
C886   C     0.91244   0.16624   0.83080   0.00000  Uiso   1.00
O887   O     0.83333   0.20625   0.76280   0.00000  Uiso   1.00
O888   O     0.83333   0.12708   0.90387   0.00000  Uiso   1.00
O889   O     0.83333   0.20625   0.90387   0.00000  Uiso   1.00
O890   O     0.83333   0.12708   0.76280   0.00000  Uiso   1.00
C891   C     0.83327   0.16675   0.74030   0.00000  Uiso   1.00
C892   C     0.83340   0.16658   0.92637   0.00000  Uiso   1.00
Cu893  Cu    0.83333   0.21355   0.83333   0.00000  Uiso   1.00
Cu894  Cu    0.83333   0.11978   0.83333   0.00000  Uiso   1.00
C895   C     0.83331   0.16678   0.68854   0.00000  Uiso   1.00
C896   C     0.83335   0.16655   0.97813   0.00000  Uiso   1.00
C897   C     0.68917   0.12555   0.84455   0.00000  Uiso   1.00
C898   C     0.97750   0.20778   0.82211   0.00000  Uiso   1.00
C899   C     0.98014   0.12390   0.83652   0.00000  Uiso   1.00
C900   C     0.68653   0.20943   0.83015   0.00000  Uiso   1.00
C901   C     0.95716   0.16553   0.82803   0.00000  Uiso   1.00
C902   C     0.70951   0.16780   0.83864   0.00000  Uiso   1.00
C903   C     0.80926   0.02538   0.79926   0.00000  Uiso   1.00
C904   C     0.85741   0.30796   0.86741   0.00000  Uiso   1.00
C905   C     0.85704   0.02396   0.86775   0.00000  Uiso   1.00
C906   C     0.80962   0.30938   0.79891   0.00000  Uiso   1.00
N907   N     0.83333   0.28402   0.83333   0.00000  Uiso   1.00
N908   N     0.83333   0.04931   0.83333   0.00000  Uiso   1.00
N909   N     0.71125   0.08418   0.86069   0.00000  Uiso   1.00
O910   O     0.73082   0.08283   0.90389   0.00000  Uiso   1.00
O911   O     0.71035   0.04724   0.83344   0.00000  Uiso   1.00
N912   N     0.95542   0.24915   0.80598   0.00000  Uiso   1.00
O913   O     0.93585   0.25051   0.76278   0.00000  Uiso   1.00
O914   O     0.95632   0.28609   0.83323   0.00000  Uiso   1.00
N915   N     0.96111   0.07943   0.83546   0.00000  Uiso   1.00
O916   O     0.94322   0.06491   0.79441   0.00000  Uiso   1.00
O917   O     0.96895   0.04996   0.87139   0.00000  Uiso   1.00
N918   N     0.70556   0.25391   0.83121   0.00000  Uiso   1.00
O919   O     0.72344   0.26842   0.87226   0.00000  Uiso   1.00
O920   O     0.69772   0.28338   0.79528   0.00000  Uiso   1.00
Br921  Br    0.77326   0.05777   0.75123   0.00000  Uiso   1.00
Br922  Br    0.89341   0.27556   0.91544   0.00000  Uiso   1.00
Br923  Br    0.88974   0.05414   0.91903   0.00000  Uiso   1.00
Br924  Br    0.77693   0.27920   0.74764   0.00000  Uiso   1.00
O925   O     0.10655   0.53958   0.83333   0.00000  Uiso   1.00
O926   O     0.22679   0.46042   0.83334   0.00000  Uiso   1.00
O927   O     0.22679   0.53958   0.83334   0.00000  Uiso   1.00
O928   O     0.10655   0.46042   0.83333   0.00000  Uiso   1.00
C929   C     0.08756   0.50042   0.83587   0.00000  Uiso   1.00
C930   C     0.24577   0.49958   0.83080   0.00000  Uiso   1.00
O931   O     0.16667   0.53959   0.76280   0.00000  Uiso   1.00
O932   O     0.16667   0.46041   0.90387   0.00000  Uiso   1.00
O933   O     0.16667   0.53959   0.90387   0.00000  Uiso   1.00
O934   O     0.16667   0.46041   0.76280   0.00000  Uiso   1.00
C935   C     0.16660   0.50008   0.74030   0.00000  Uiso   1.00
C936   C     0.16673   0.49992   0.92637   0.00000  Uiso   1.00
Cu937  Cu    0.16667   0.54689   0.83333   0.00000  Uiso   1.00
Cu938  Cu    0.16667   0.45311   0.83333   0.00000  Uiso   1.00
C939   C     0.16665   0.50011   0.68854   0.00000  Uiso   1.00
C940   C     0.16669   0.49989   0.97813   0.00000  Uiso   1.00
C941   C     0.02250   0.45888   0.84455   0.00000  Uiso   1.00
C942   C     0.31083   0.54112   0.82211   0.00000  Uiso   1.00
C943   C     0.31347   0.45723   0.83652   0.00000  Uiso   1.00
C944   C     0.01986   0.54277   0.83015   0.00000  Uiso   1.00
C945   C     0.29049   0.49886   0.82803   0.00000  Uiso   1.00
C946   C     0.04284   0.50114   0.83864   0.00000  Uiso   1.00
C947   C     0.14259   0.35871   0.79926   0.00000  Uiso   1.00
C948   C     0.19074   0.64129   0.86741   0.00000  Uiso   1.00
C949   C     0.19038   0.35729   0.86775   0.00000  Uiso   1.00
C950   C     0.14296   0.64271   0.79891   0.00000  Uiso   1.00
N951   N     0.16667   0.61736   0.83333   0.00000  Uiso   1.00
N952   N     0.16667   0.38264   0.83333   0.00000  Uiso   1.00
N953   N     0.04458   0.41752   0.86069   0.00000  Uiso   1.00
O954   O     0.06415   0.41616   0.90389   0.00000  Uiso   1.00
O955   O     0.04368   0.38058   0.83344   0.00000  Uiso   1.00
N956   N     0.28875   0.58248   0.80598   0.00000  Uiso   1.00
O957   O     0.26918   0.58384   0.76278   0.00000  Uiso   1.00
O958   O     0.28965   0.61942   0.83323   0.00000  Uiso   1.00
N959   N     0.29444   0.41276   0.83546   0.00000  Uiso   1.00
O960   O     0.27656   0.39825   0.79441   0.00000  Uiso   1.00
O961   O     0.30228   0.38329   0.87139   0.00000  Uiso   1.00
N962   N     0.03889   0.58724   0.83121   0.00000  Uiso   1.00
O963   O     0.05678   0.60175   0.87226   0.00000  Uiso   1.00
O964   O     0.03105   0.61671   0.79528   0.00000  Uiso   1.00
Br965  Br    0.10659   0.39111   0.75123   0.00000  Uiso   1.00
Br966  Br    0.22674   0.60889   0.91544   0.00000  Uiso   1.00
Br967  Br    0.22307   0.38747   0.91903   0.00000  Uiso   1.00
Br968  Br    0.11026   0.61253   0.74764   0.00000  Uiso   1.00
O969   O     0.43988   0.53958   0.83333   0.00000  Uiso   1.00
O970   O     0.56012   0.46042   0.83334   0.00000  Uiso   1.00
O971   O     0.56012   0.53958   0.83334   0.00000  Uiso   1.00
O972   O     0.43988   0.46042   0.83333   0.00000  Uiso   1.00
C973   C     0.42089   0.50042   0.83587   0.00000  Uiso   1.00
C974   C     0.57911   0.49958   0.83080   0.00000  Uiso   1.00
O975   O     0.50000   0.53959   0.76280   0.00000  Uiso   1.00
O976   O     0.50000   0.46041   0.90387   0.00000  Uiso   1.00
O977   O     0.50000   0.53959   0.90387   0.00000  Uiso   1.00
O978   O     0.50000   0.46041   0.76280   0.00000  Uiso   1.00
C979   C     0.49993   0.50008   0.74030   0.00000  Uiso   1.00
C980   C     0.50007   0.49992   0.92637   0.00000  Uiso   1.00
Cu981  Cu    0.50000   0.54689   0.83333   0.00000  Uiso   1.00
Cu982  Cu    0.50000   0.45311   0.83333   0.00000  Uiso   1.00
C983   C     0.49998   0.50011   0.68854   0.00000  Uiso   1.00
C984   C     0.50002   0.49989   0.97813   0.00000  Uiso   1.00
C985   C     0.35583   0.45888   0.84455   0.00000  Uiso   1.00
C986   C     0.64417   0.54112   0.82211   0.00000  Uiso   1.00
C987   C     0.64680   0.45723   0.83652   0.00000  Uiso   1.00
C988   C     0.35320   0.54277   0.83015   0.00000  Uiso   1.00
C989   C     0.62383   0.49886   0.82803   0.00000  Uiso   1.00
C990   C     0.37617   0.50114   0.83864   0.00000  Uiso   1.00
C991   C     0.47593   0.35871   0.79926   0.00000  Uiso   1.00
C992   C     0.52407   0.64129   0.86741   0.00000  Uiso   1.00
C993   C     0.52371   0.35729   0.86775   0.00000  Uiso   1.00
C994   C     0.47629   0.64271   0.79891   0.00000  Uiso   1.00
N995   N     0.50000   0.61736   0.83333   0.00000  Uiso   1.00
N996   N     0.50000   0.38264   0.83333   0.00000  Uiso   1.00
N997   N     0.37792   0.41752   0.86069   0.00000  Uiso   1.00
O998   O     0.39749   0.41616   0.90389   0.00000  Uiso   1.00
O999   O     0.37702   0.38058   0.83344   0.00000  Uiso   1.00
N1000  N     0.62208   0.58248   0.80598   0.00000  Uiso   1.00
O1001  O     0.60252   0.58384   0.76278   0.00000  Uiso   1.00
O1002  O     0.62298   0.61942   0.83323   0.00000  Uiso   1.00
N1003  N     0.62778   0.41276   0.83546   0.00000  Uiso   1.00
O1004  O     0.60989   0.39825   0.79441   0.00000  Uiso   1.00
O1005  O     0.63562   0.38329   0.87139   0.00000  Uiso   1.00
N1006  N     0.37222   0.58724   0.83121   0.00000  Uiso   1.00
O1007  O     0.39011   0.60175   0.87226   0.00000  Uiso   1.00
O1008  O     0.36438   0.61671   0.79528   0.00000  Uiso   1.00
Br1009 Br    0.43992   0.39111   0.75123   0.00000  Uiso   1.00
Br1010 Br    0.56008   0.60889   0.91544   0.00000  Uiso   1.00
Br1011 Br    0.55641   0.38747   0.91903   0.00000  Uiso   1.00
Br1012 Br    0.44359   0.61253   0.74764   0.00000  Uiso   1.00
O1013  O     0.77321   0.53958   0.83333   0.00000  Uiso   1.00
O1014  O     0.89345   0.46042   0.83334   0.00000  Uiso   1.00
O1015  O     0.89345   0.53958   0.83334   0.00000  Uiso   1.00
O1016  O     0.77321   0.46042   0.83333   0.00000  Uiso   1.00
C1017  C     0.75423   0.50042   0.83587   0.00000  Uiso   1.00
C1018  C     0.91244   0.49958   0.83080   0.00000  Uiso   1.00
O1019  O     0.83333   0.53959   0.76280   0.00000  Uiso   1.00
O1020  O     0.83333   0.46041   0.90387   0.00000  Uiso   1.00
O1021  O     0.83333   0.53959   0.90387   0.00000  Uiso   1.00
O1022  O     0.83333   0.46041   0.76280   0.00000  Uiso   1.00
C1023  C     0.83327   0.50008   0.74030   0.00000  Uiso   1.00
C1024  C     0.83340   0.49992   0.92637   0.00000  Uiso   1.00
Cu1025 Cu    0.83333   0.54689   0.83333   0.00000  Uiso   1.00
Cu1026 Cu    0.83333   0.45311   0.83333   0.00000  Uiso   1.00
C1027  C     0.83331   0.50011   0.68854   0.00000  Uiso   1.00
C1028  C     0.83335   0.49989   0.97813   0.00000  Uiso   1.00
C1029  C     0.68917   0.45888   0.84455   0.00000  Uiso   1.00
C1030  C     0.97750   0.54112   0.82211   0.00000  Uiso   1.00
C1031  C     0.98014   0.45723   0.83652   0.00000  Uiso   1.00
C1032  C     0.68653   0.54277   0.83015   0.00000  Uiso   1.00
C1033  C     0.95716   0.49886   0.82803   0.00000  Uiso   1.00
C1034  C     0.70951   0.50114   0.83864   0.00000  Uiso   1.00
C1035  C     0.80926   0.35871   0.79926   0.00000  Uiso   1.00
C1036  C     0.85741   0.64129   0.86741   0.00000  Uiso   1.00
C1037  C     0.85704   0.35729   0.86775   0.00000  Uiso   1.00
C1038  C     0.80962   0.64271   0.79891   0.00000  Uiso   1.00
N1039  N     0.83333   0.61736   0.83333   0.00000  Uiso   1.00
N1040  N     0.83333   0.38264   0.83333   0.00000  Uiso   1.00
N1041  N     0.71125   0.41752   0.86069   0.00000  Uiso   1.00
O1042  O     0.73082   0.41616   0.90389   0.00000  Uiso   1.00
O1043  O     0.71035   0.38058   0.83344   0.00000  Uiso   1.00
N1044  N     0.95542   0.58248   0.80598   0.00000  Uiso   1.00
O1045  O     0.93585   0.58384   0.76278   0.00000  Uiso   1.00
O1046  O     0.95632   0.61942   0.83323   0.00000  Uiso   1.00
N1047  N     0.96111   0.41276   0.83546   0.00000  Uiso   1.00
O1048  O     0.94322   0.39825   0.79441   0.00000  Uiso   1.00
O1049  O     0.96895   0.38329   0.87139   0.00000  Uiso   1.00
N1050  N     0.70556   0.58724   0.83121   0.00000  Uiso   1.00
O1051  O     0.72344   0.60175   0.87226   0.00000  Uiso   1.00
O1052  O     0.69772   0.61671   0.79528   0.00000  Uiso   1.00
Br1053 Br    0.77326   0.39111   0.75123   0.00000  Uiso   1.00
Br1054 Br    0.89341   0.60889   0.91544   0.00000  Uiso   1.00
Br1055 Br    0.88974   0.38747   0.91903   0.00000  Uiso   1.00
Br1056 Br    0.77693   0.61253   0.74764   0.00000  Uiso   1.00
O1057  O     0.10655   0.87291   0.83333   0.00000  Uiso   1.00
O1058  O     0.22679   0.79375   0.83334   0.00000  Uiso   1.00
O1059  O     0.22679   0.87291   0.83334   0.00000  Uiso   1.00
O1060  O     0.10655   0.79375   0.83333   0.00000  Uiso   1.00
C1061  C     0.08756   0.83376   0.83587   0.00000  Uiso   1.00
C1062  C     0.24577   0.83291   0.83080   0.00000  Uiso   1.00
O1063  O     0.16667   0.87292   0.76280   0.00000  Uiso   1.00
O1064  O     0.16667   0.79375   0.90387   0.00000  Uiso   1.00
O1065  O     0.16667   0.87292   0.90387   0.00000  Uiso   1.00
O1066  O     0.16667   0.79375   0.76280   0.00000  Uiso   1.00
C1067  C     0.16660   0.83342   0.74030   0.00000  Uiso   1.00
C1068  C     0.16673   0.83325   0.92637   0.00000  Uiso   1.00
Cu1069 Cu    0.16667   0.88022   0.83333   0.00000  Uiso   1.00
Cu1070 Cu    0.16667   0.78645   0.83333   0.00000  Uiso   1.00
C1071  C     0.16665   0.83345   0.68854   0.00000  Uiso   1.00
C1072  C     0.16669   0.83322   0.97813   0.00000  Uiso   1.00
C1073  C     0.02250   0.79222   0.84455   0.00000  Uiso   1.00
C1074  C     0.31083   0.87445   0.82211   0.00000  Uiso   1.00
C1075  C     0.31347   0.79057   0.83652   0.00000  Uiso   1.00
C1076  C     0.01986   0.87610   0.83015   0.00000  Uiso   1.00
C1077  C     0.29049   0.83220   0.82803   0.00000  Uiso   1.00
C1078  C     0.04284   0.83447   0.83864   0.00000  Uiso   1.00
C1079  C     0.14259   0.69204   0.79926   0.00000  Uiso   1.00
C1080  C     0.19074   0.97462   0.86741   0.00000  Uiso   1.00
C1081  C     0.19038   0.69062   0.86775   0.00000  Uiso   1.00
C1082  C     0.14296   0.97604   0.79891   0.00000  Uiso   1.00
N1083  N     0.16667   0.95069   0.83333   0.00000  Uiso   1.00
N1084  N     0.16667   0.71598   0.83333   0.00000  Uiso   1.00
N1085  N     0.04458   0.75085   0.86069   0.00000  Uiso   1.00
O1086  O     0.06415   0.74949   0.90389   0.00000  Uiso   1.00
O1087  O     0.04368   0.71391   0.83344   0.00000  Uiso   1.00
N1088  N     0.28875   0.91582   0.80598   0.00000  Uiso   1.00
O1089  O     0.26918   0.91717   0.76278   0.00000  Uiso   1.00
O1090  O     0.28965   0.95276   0.83323   0.00000  Uiso   1.00
N1091  N     0.29444   0.74609   0.83546   0.00000  Uiso   1.00
O1092  O     0.27656   0.73158   0.79441   0.00000  Uiso   1.00
O1093  O     0.30228   0.71663   0.87139   0.00000  Uiso   1.00
N1094  N     0.03889   0.92057   0.83121   0.00000  Uiso   1.00
O1095  O     0.05678   0.93509   0.87226   0.00000  Uiso   1.00
O1096  O     0.03105   0.95004   0.79528   0.00000  Uiso   1.00
Br1097 Br    0.10659   0.72444   0.75123   0.00000  Uiso   1.00
Br1098 Br    0.22674   0.94223   0.91544   0.00000  Uiso   1.00
Br1099 Br    0.22307   0.72080   0.91903   0.00000  Uiso   1.00
Br1100 Br    0.11026   0.94586   0.74764   0.00000  Uiso   1.00
O1101  O     0.43988   0.87291   0.83333   0.00000  Uiso   1.00
O1102  O     0.56012   0.79375   0.83334   0.00000  Uiso   1.00
O1103  O     0.56012   0.87291   0.83334   0.00000  Uiso   1.00
O1104  O     0.43988   0.79375   0.83333   0.00000  Uiso   1.00
C1105  C     0.42089   0.83376   0.83587   0.00000  Uiso   1.00
C1106  C     0.57911   0.83291   0.83080   0.00000  Uiso   1.00
O1107  O     0.50000   0.87292   0.76280   0.00000  Uiso   1.00
O1108  O     0.50000   0.79375   0.90387   0.00000  Uiso   1.00
O1109  O     0.50000   0.87292   0.90387   0.00000  Uiso   1.00
O1110  O     0.50000   0.79375   0.76280   0.00000  Uiso   1.00
C1111  C     0.49993   0.83342   0.74030   0.00000  Uiso   1.00
C1112  C     0.50007   0.83325   0.92637   0.00000  Uiso   1.00
Cu1113 Cu    0.50000   0.88022   0.83333   0.00000  Uiso   1.00
Cu1114 Cu    0.50000   0.78645   0.83333   0.00000  Uiso   1.00
C1115  C     0.49998   0.83345   0.68854   0.00000  Uiso   1.00
C1116  C     0.50002   0.83322   0.97813   0.00000  Uiso   1.00
C1117  C     0.35583   0.79222   0.84455   0.00000  Uiso   1.00
C1118  C     0.64417   0.87445   0.82211   0.00000  Uiso   1.00
C1119  C     0.64680   0.79057   0.83652   0.00000  Uiso   1.00
C1120  C     0.35320   0.87610   0.83015   0.00000  Uiso   1.00
C1121  C     0.62383   0.83220   0.82803   0.00000  Uiso   1.00
C1122  C     0.37617   0.83447   0.83864   0.00000  Uiso   1.00
C1123  C     0.47593   0.69204   0.79926   0.00000  Uiso   1.00
C1124  C     0.52407   0.97462   0.86741   0.00000  Uiso   1.00
C1125  C     0.52371   0.69062   0.86775   0.00000  Uiso   1.00
C1126  C     0.47629   0.97604   0.79891   0.00000  Uiso   1.00
N1127  N     0.50000   0.95069   0.83333   0.00000  Uiso   1.00
N1128  N     0.50000   0.71598   0.83333   0.00000  Uiso   1.00
N1129  N     0.37792   0.75085   0.86069   0.00000  Uiso   1.00
O1130  O     0.39749   0.74949   0.90389   0.00000  Uiso   1.00
O1131  O     0.37702   0.71391   0.83344   0.00000  Uiso   1.00
N1132  N     0.62208   0.91582   0.80598   0.00000  Uiso   1.00
O1133  O     0.60252   0.91717   0.76278   0.00000  Uiso   1.00
O1134  O     0.62298   0.95276   0.83323   0.00000  Uiso   1.00
N1135  N     0.62778   0.74609   0.83546   0.00000  Uiso   1.00
O1136  O     0.60989   0.73158   0.79441   0.00000  Uiso   1.00
O1137  O     0.63562   0.71663   0.87139   0.00000  Uiso   1.00
N1138  N     0.37222   0.92057   0.83121   0.00000  Uiso   1.00
O1139  O     0.39011   0.93509   0.87226   0.00000  Uiso   1.00
O1140  O     0.36438   0.95004   0.79528   0.00000  Uiso   1.00
Br1141 Br    0.43992   0.72444   0.75123   0.00000  Uiso   1.00
Br1142 Br    0.56008   0.94223   0.91544   0.00000  Uiso   1.00
Br1143 Br    0.55641   0.72080   0.91903   0.00000  Uiso   1.00
Br1144 Br    0.44359   0.94586   0.74764   0.00000  Uiso   1.00
O1145  O     0.77321   0.87291   0.83333   0.00000  Uiso   1.00
O1146  O     0.89345   0.79375   0.83334   0.00000  Uiso   1.00
O1147  O     0.89345   0.87291   0.83334   0.00000  Uiso   1.00
O1148  O     0.77321   0.79375   0.83333   0.00000  Uiso   1.00
C1149  C     0.75423   0.83376   0.83587   0.00000  Uiso   1.00
C1150  C     0.91244   0.83291   0.83080   0.00000  Uiso   1.00
O1151  O     0.83333   0.87292   0.76280   0.00000  Uiso   1.00
O1152  O     0.83333   0.79375   0.90387   0.00000  Uiso   1.00
O1153  O     0.83333   0.87292   0.90387   0.00000  Uiso   1.00
O1154  O     0.83333   0.79375   0.76280   0.00000  Uiso   1.00
C1155  C     0.83327   0.83342   0.74030   0.00000  Uiso   1.00
C1156  C     0.83340   0.83325   0.92637   0.00000  Uiso   1.00
Cu1157 Cu    0.83333   0.88022   0.83333   0.00000  Uiso   1.00
Cu1158 Cu    0.83333   0.78645   0.83333   0.00000  Uiso   1.00
C1159  C     0.83331   0.83345   0.68854   0.00000  Uiso   1.00
C1160  C     0.83335   0.83322   0.97813   0.00000  Uiso   1.00
C1161  C     0.68917   0.79222   0.84455   0.00000  Uiso   1.00
C1162  C     0.97750   0.87445   0.82211   0.00000  Uiso   1.00
C1163  C     0.98014   0.79057   0.83652   0.00000  Uiso   1.00
C1164  C     0.68653   0.87610   0.83015   0.00000  Uiso   1.00
C1165  C     0.95716   0.83220   0.82803   0.00000  Uiso   1.00
C1166  C     0.70951   0.83447   0.83864   0.00000  Uiso   1.00
C1167  C     0.80926   0.69204   0.79926   0.00000  Uiso   1.00
C1168  C     0.85741   0.97462   0.86741   0.00000  Uiso   1.00
C1169  C     0.85704   0.69062   0.86775   0.00000  Uiso   1.00
C1170  C     0.80962   0.97604   0.79891   0.00000  Uiso   1.00
N1171  N     0.83333   0.95069   0.83333   0.00000  Uiso   1.00
N1172  N     0.83333   0.71598   0.83333   0.00000  Uiso   1.00
N1173  N     0.71125   0.75085   0.86069   0.00000  Uiso   1.00
O1174  O     0.73082   0.74949   0.90389   0.00000  Uiso   1.00
O1175  O     0.71035   0.71391   0.83344   0.00000  Uiso   1.00
N1176  N     0.95542   0.91582   0.80598   0.00000  Uiso   1.00
O1177  O     0.93585   0.91717   0.76278   0.00000  Uiso   1.00
O1178  O     0.95632   0.95276   0.83323   0.00000  Uiso   1.00
N1179  N     0.96111   0.74609   0.83546   0.00000  Uiso   1.00
O1180  O     0.94322   0.73158   0.79441   0.00000  Uiso   1.00
O1181  O     0.96895   0.71663   0.87139   0.00000  Uiso   1.00
N1182  N     0.70556   0.92057   0.83121   0.00000  Uiso   1.00
O1183  O     0.72344   0.93509   0.87226   0.00000  Uiso   1.00
O1184  O     0.69772   0.95004   0.79528   0.00000  Uiso   1.00
Br1185 Br    0.77326   0.72444   0.75123   0.00000  Uiso   1.00
Br1186 Br    0.89341   0.94223   0.91544   0.00000  Uiso   1.00
Br1187 Br    0.88974   0.72080   0.91903   0.00000  Uiso   1.00
Br1188 Br    0.77693   0.94586   0.74764   0.00000  Uiso   1.00
loop_
_geom_bond_atom_site_label_1
_geom_bond_atom_site_label_2
_geom_bond_distance
_geom_bond_site_symmetry_2
_ccdc_geom_bond_type
O1     C5      1.304   .     A
O1     Cu13    1.994   .     S
O2     C6      1.304   .     A
O2     Cu14    1.994   .     S
O3     Cu13    1.987   .     S
O3     C6      1.307   .     A
O4     Cu14    1.987   .     S
O4     C5      1.307   .     A
C5     C22     1.479   .     S
C6     C21     1.479   .     S
O7     C11     1.296   .     A
O7     Cu13    1.930   .     S
O8     C12     1.296   .     A
O8     Cu14    1.930   .     S
O9     C12     1.294   .     A
O9     Cu13    1.928   .     S
O10    C11     1.294   .     A
O10    Cu14    1.928   .     S
C11    C15     1.407   .     S
C12    C16     1.407   .     S
Cu13   N27     2.033   .     S
Cu13   Cu14    2.705   .     S
Cu14   N28     2.033   .     S
C15    C808    1.189   1_554 S
C16    C411    1.189   .     S
C17    C22     1.414   .     A
C17    N29     1.437   .     S
C17    C107    1.399   1_455 S
C18    C21     1.414   .     A
C18    N32     1.437   .     S
C18    C64     1.399   .     S
C19    N35     1.437   .     S
C19    C21     1.417   .     A
C19    C61     1.399   .     S
C20    N38     1.437   .     S
C20    C22     1.417   .     A
C20    C106    1.399   1_455 S
C23    N28     1.375   .     A
C23    Br41    1.930   .     S
C23    C290    1.423   1_545 S
C24    N27     1.375   .     A
C24    Br42    1.930   .     S
C24    C157    1.423   .     S
C25    Br43    1.925   .     S
C25    N28     1.377   .     A
C25    C288    1.423   1_545 S
C26    Br44    1.925   .     S
C26    N27     1.377   .     A
C26    C155    1.423   .     S
N29    O30     1.301   .     A
N29    O31     1.301   .     A
N32    O33     1.301   .     A
N32    O34     1.301   .     A
N35    O37     1.301   .     A
N35    O36     1.302   .     A
N38    O40     1.301   .     A
N38    O39     1.302   .     A
O45    C49     1.304   .     A
O45    Cu57    1.994   .     S
O46    C50     1.304   .     A
O46    Cu58    1.994   .     S
O47    Cu57    1.987   .     S
O47    C50     1.307   .     A
O48    Cu58    1.987   .     S
O48    C49     1.307   .     A
C49    C66     1.479   .     S
C50    C65     1.479   .     S
O51    C55     1.296   .     A
O51    Cu57    1.930   .     S
O52    C56     1.296   .     A
O52    Cu58    1.930   .     S
O53    C56     1.294   .     A
O53    Cu57    1.928   .     S
O54    C55     1.294   .     A
O54    Cu58    1.928   .     S
C55    C59     1.407   .     S
C56    C60     1.407   .     S
Cu57   N71     2.033   .     S
Cu57   Cu58    2.705   .     S
Cu58   N72     2.033   .     S
C59    C852    1.189   1_554 S
C60    C455    1.189   .     S
C61    C66     1.414   .     A
C61    N73     1.437   .     S
C62    C65     1.414   .     A
C62    N76     1.437   .     S
C62    C108    1.399   .     S
C63    N79     1.437   .     S
C63    C65     1.417   .     A
C63    C105    1.399   .     S
C64    N82     1.437   .     S
C64    C66     1.417   .     A
C67    N72     1.375   .     A
C67    Br85    1.930   .     S
C67    C334    1.423   1_545 S
C68    N71     1.375   .     A
C68    Br86    1.930   .     S
C68    C201    1.423   .     S
C69    Br87    1.925   .     S
C69    N72     1.377   .     A
C69    C332    1.423   1_545 S
C70    Br88    1.925   .     S
C70    N71     1.377   .     A
C70    C199    1.423   .     S
N73    O74     1.301   .     A
N73    O75     1.301   .     A
N76    O77     1.301   .     A
N76    O78     1.301   .     A
N79    O81     1.301   .     A
N79    O80     1.302   .     A
N82    O84     1.301   .     A
N82    O83     1.302   .     A
O89    C93     1.304   .     A
O89    Cu101   1.994   .     S
O90    C94     1.304   .     A
O90    Cu102   1.994   .     S
O91    Cu101   1.987   .     S
O91    C94     1.307   .     A
O92    Cu102   1.987   .     S
O92    C93     1.307   .     A
C93    C110    1.479   .     S
C94    C109    1.479   .     S
O95    C99     1.296   .     A
O95    Cu101   1.930   .     S
O96    C100    1.296   .     A
O96    Cu102   1.930   .     S
O97    C100    1.294   .     A
O97    Cu101   1.928   .     S
O98    C99     1.294   .     A
O98    Cu102   1.928   .     S
C99    C103    1.407   .     S
C100   C104    1.407   .     S
Cu101  N115    2.033   .     S
Cu101  Cu102   2.705   .     S
Cu102  N116    2.033   .     S
C103   C896    1.189   1_554 S
C104   C499    1.189   .     S
C105   C110    1.414   .     A
C105   N117    1.437   .     S
C106   C109    1.414   .     A
C106   N120    1.437   .     S
C106   C20     1.399   1_655 S
C107   N123    1.437   .     S
C107   C109    1.417   .     A
C107   C17     1.399   1_655 S
C108   N126    1.437   .     S
C108   C110    1.417   .     A
C111   N116    1.375   .     A
C111   Br129   1.930   .     S
C111   C378    1.423   1_545 S
C112   N115    1.375   .     A
C112   Br130   1.930   .     S
C112   C245    1.423   .     S
C113   Br131   1.925   .     S
C113   N116    1.377   .     A
C113   C376    1.423   1_545 S
C114   Br132   1.925   .     S
C114   N115    1.377   .     A
C114   C243    1.423   .     S
N117   O118    1.301   .     A
N117   O119    1.301   .     A
N120   O121    1.301   .     A
N120   O122    1.301   .     A
N123   O125    1.301   .     A
N123   O124    1.302   .     A
N126   O128    1.301   .     A
N126   O127    1.302   .     A
O133   C137    1.304   .     A
O133   Cu145   1.994   .     S
O134   C138    1.304   .     A
O134   Cu146   1.994   .     S
O135   Cu145   1.987   .     S
O135   C138    1.307   .     A
O136   Cu146   1.987   .     S
O136   C137    1.307   .     A
C137   C154    1.479   .     S
C138   C153    1.479   .     S
O139   C143    1.296   .     A
O139   Cu145   1.930   .     S
O140   C144    1.296   .     A
O140   Cu146   1.930   .     S
O141   C144    1.294   .     A
O141   Cu145   1.928   .     S
O142   C143    1.294   .     A
O142   Cu146   1.928   .     S
C143   C147    1.407   .     S
C144   C148    1.407   .     S
Cu145  N159    2.033   .     S
Cu145  Cu146   2.705   .     S
Cu146  N160    2.033   .     S
C147   C940    1.189   1_554 S
C148   C543    1.189   .     S
C149   C154    1.414   .     A
C149   N161    1.437   .     S
C149   C239    1.399   1_455 S
C150   C153    1.414   .     A
C150   N164    1.437   .     S
C150   C196    1.399   .     S
C151   N167    1.437   .     S
C151   C153    1.417   .     A
C151   C193    1.399   .     S
C152   N170    1.437   .     S
C152   C154    1.417   .     A
C152   C238    1.399   1_455 S
C155   N160    1.375   .     A
C155   Br173   1.930   .     S
C156   N159    1.375   .     A
C156   Br174   1.930   .     S
C156   C289    1.423   .     S
C157   Br175   1.925   .     S
C157   N160    1.377   .     A
C158   Br176   1.925   .     S
C158   N159    1.377   .     A
C158   C287    1.423   .     S
N161   O162    1.301   .     A
N161   O163    1.301   .     A
N164   O165    1.301   .     A
N164   O166    1.301   .     A
N167   O169    1.301   .     A
N167   O168    1.302   .     A
N170   O172    1.301   .     A
N170   O171    1.302   .     A
O177   C181    1.304   .     A
O177   Cu189   1.994   .     S
O178   C182    1.304   .     A
O178   Cu190   1.994   .     S
O179   Cu189   1.987   .     S
O179   C182    1.307   .     A
O180   Cu190   1.987   .     S
O180   C181    1.307   .     A
C181   C198    1.479   .     S
C182   C197    1.479   .     S
O183   C187    1.296   .     A
O183   Cu189   1.930   .     S
O184   C188    1.296   .     A
O184   Cu190   1.930   .     S
O185   C188    1.294   .     A
O185   Cu189   1.928   .     S
O186   C187    1.294   .     A
O186   Cu190   1.928   .     S
C187   C191    1.407   .     S
C188   C192    1.407   .     S
Cu189  N203    2.033   .     S
Cu189  Cu190   2.705   .     S
Cu190  N204    2.033   .     S
C191   C984    1.189   1_554 S
C192   C587    1.189   .     S
C193   C198    1.414   .     A
C193   N205    1.437   .     S
C194   C197    1.414   .     A
C194   N208    1.437   .     S
C194   C240    1.399   .     S
C195   N211    1.437   .     S
C195   C197    1.417   .     A
C195   C237    1.399   .     S
C196   N214    1.437   .     S
C196   C198    1.417   .     A
C199   N204    1.375   .     A
C199   Br217   1.930   .     S
C200   N203    1.375   .     A
C200   Br218   1.930   .     S
C200   C333    1.423   .     S
C201   Br219   1.925   .     S
C201   N204    1.377   .     A
C202   Br220   1.925   .     S
C202   N203    1.377   .     A
C202   C331    1.423   .     S
N205   O206    1.301   .     A
N205   O207    1.301   .     A
N208   O209    1.301   .     A
N208   O210    1.301   .     A
N211   O213    1.301   .     A
N211   O212    1.302   .     A
N214   O216    1.301   .     A
N214   O215    1.302   .     A
O221   C225    1.304   .     A
O221   Cu233   1.994   .     S
O222   C226    1.304   .     A
O222   Cu234   1.994   .     S
O223   Cu233   1.987   .     S
O223   C226    1.307   .     A
O224   Cu234   1.987   .     S
O224   C225    1.307   .     A
C225   C242    1.479   .     S
C226   C241    1.479   .     S
O227   C231    1.296   .     A
O227   Cu233   1.930   .     S
O228   C232    1.296   .     A
O228   Cu234   1.930   .     S
O229   C232    1.294   .     A
O229   Cu233   1.928   .     S
O230   C231    1.294   .     A
O230   Cu234   1.928   .     S
C231   C235    1.407   .     S
C232   C236    1.407   .     S
Cu233  N247    2.033   .     S
Cu233  Cu234   2.705   .     S
Cu234  N248    2.033   .     S
C235   C1028   1.189   1_554 S
C236   C631    1.189   .     S
C237   C242    1.414   .     A
C237   N249    1.437   .     S
C238   C241    1.414   .     A
C238   N252    1.437   .     S
C238   C152    1.399   1_655 S
C239   N255    1.437   .     S
C239   C241    1.417   .     A
C239   C149    1.399   1_655 S
C240   N258    1.437   .     S
C240   C242    1.417   .     A
C243   N248    1.375   .     A
C243   Br261   1.930   .     S
C244   N247    1.375   .     A
C244   Br262   1.930   .     S
C244   C377    1.423   .     S
C245   Br263   1.925   .     S
C245   N248    1.377   .     A
C246   Br264   1.925   .     S
C246   N247    1.377   .     A
C246   C375    1.423   .     S
N249   O250    1.301   .     A
N249   O251    1.301   .     A
N252   O253    1.301   .     A
N252   O254    1.301   .     A
N255   O257    1.301   .     A
N255   O256    1.302   .     A
N258   O260    1.301   .     A
N258   O259    1.302   .     A
O265   C269    1.304   .     A
O265   Cu277   1.994   .     S
O266   C270    1.304   .     A
O266   Cu278   1.994   .     S
O267   Cu277   1.987   .     S
O267   C270    1.307   .     A
O268   Cu278   1.987   .     S
O268   C269    1.307   .     A
C269   C286    1.479   .     S
C270   C285    1.479   .     S
O271   C275    1.296   .     A
O271   Cu277   1.930   .     S
O272   C276    1.296   .     A
O272   Cu278   1.930   .     S
O273   C276    1.294   .     A
O273   Cu277   1.928   .     S
O274   C275    1.294   .     A
O274   Cu278   1.928   .     S
C275   C279    1.407   .     S
C276   C280    1.407   .     S
Cu277  N291    2.033   .     S
Cu277  Cu278   2.705   .     S
Cu278  N292    2.033   .     S
C279   C1072   1.189   1_554 S
C280   C675    1.189   .     S
C281   C286    1.414   .     A
C281   N293    1.437   .     S
C281   C371    1.399   1_455 S
C282   C285    1.414   .     A
C282   N296    1.437   .     S
C282   C328    1.399   .     S
C283   N299    1.437   .     S
C283   C285    1.417   .     A
C283   C325    1.399   .     S
C284   N302    1.437   .     S
C284   C286    1.417   .     A
C284   C370    1.399   1_455 S
C287   N292    1.375   .     A
C287   Br305   1.930   .     S
C288   N291    1.375   .     A
C288   Br306   1.930   .     S
C288   C25     1.423   1_565 S
C289   Br307   1.925   .     S
C289   N292    1.377   .     A
C290   Br308   1.925   .     S
C290   N291    1.377   .     A
C290   C23     1.423   1_565 S
N293   O294    1.301   .     A
N293   O295    1.301   .     A
N296   O297    1.301   .     A
N296   O298    1.301   .     A
N299   O301    1.301   .     A
N299   O300    1.302   .     A
N302   O304    1.301   .     A
N302   O303    1.302   .     A
O309   C313    1.304   .     A
O309   Cu321   1.994   .     S
O310   C314    1.304   .     A
O310   Cu322   1.994   .     S
O311   Cu321   1.987   .     S
O311   C314    1.307   .     A
O312   Cu322   1.987   .     S
O312   C313    1.307   .     A
C313   C330    1.479   .     S
C314   C329    1.479   .     S
O315   C319    1.296   .     A
O315   Cu321   1.930   .     S
O316   C320    1.296   .     A
O316   Cu322   1.930   .     S
O317   C320    1.294   .     A
O317   Cu321   1.928   .     S
O318   C319    1.294   .     A
O318   Cu322   1.928   .     S
C319   C323    1.407   .     S
C320   C324    1.407   .     S
Cu321  N335    2.033   .     S
Cu321  Cu322   2.705   .     S
Cu322  N336    2.033   .     S
C323   C1116   1.189   1_554 S
C324   C719    1.189   .     S
C325   C330    1.414   .     A
C325   N337    1.437   .     S
C326   C329    1.414   .     A
C326   N340    1.437   .     S
C326   C372    1.399   .     S
C327   N343    1.437   .     S
C327   C329    1.417   .     A
C327   C369    1.399   .     S
C328   N346    1.437   .     S
C328   C330    1.417   .     A
C331   N336    1.375   .     A
C331   Br349   1.930   .     S
C332   N335    1.375   .     A
C332   Br350   1.930   .     S
C332   C69     1.423   1_565 S
C333   Br351   1.925   .     S
C333   N336    1.377   .     A
C334   Br352   1.925   .     S
C334   N335    1.377   .     A
C334   C67     1.423   1_565 S
N337   O338    1.301   .     A
N337   O339    1.301   .     A
N340   O341    1.301   .     A
N340   O342    1.301   .     A
N343   O345    1.301   .     A
N343   O344    1.302   .     A
N346   O348    1.301   .     A
N346   O347    1.302   .     A
O353   C357    1.304   .     A
O353   Cu365   1.994   .     S
O354   C358    1.304   .     A
O354   Cu366   1.994   .     S
O355   Cu365   1.987   .     S
O355   C358    1.307   .     A
O356   Cu366   1.987   .     S
O356   C357    1.307   .     A
C357   C374    1.479   .     S
C358   C373    1.479   .     S
O359   C363    1.296   .     A
O359   Cu365   1.930   .     S
O360   C364    1.296   .     A
O360   Cu366   1.930   .     S
O361   C364    1.294   .     A
O361   Cu365   1.928   .     S
O362   C363    1.294   .     A
O362   Cu366   1.928   .     S
C363   C367    1.407   .     S
C364   C368    1.407   .     S
Cu365  N379    2.033   .     S
Cu365  Cu366   2.705   .     S
Cu366  N380    2.033   .     S
C367   C1160   1.189   1_554 S
C368   C763    1.189   .     S
C369   C374    1.414   .     A
C369   N381    1.437   .     S
C370   C373    1.414   .     A
C370   N384    1.437   .     S
C370   C284    1.399   1_655 S
C371   N387    1.437   .     S
C371   C373    1.417   .     A
C371   C281    1.399   1_655 S
C372   N390    1.437   .     S
C372   C374    1.417   .     A
C375   N380    1.375   .     A
C375   Br393   1.930   .     S
C376   N379    1.375   .     A
C376   Br394   1.930   .     S
C376   C113    1.423   1_565 S
C377   Br395   1.925   .     S
C377   N380    1.377   .     A
C378   Br396   1.925   .     S
C378   N379    1.377   .     A
C378   C111    1.423   1_565 S
N381   O382    1.301   .     A
N381   O383    1.301   .     A
N384   O385    1.301   .     A
N384   O386    1.301   .     A
N387   O389    1.301   .     A
N387   O388    1.302   .     A
N390   O392    1.301   .     A
N390   O391    1.302   .     A
O397   C401    1.304   .     A
O397   Cu409   1.994   .     S
O398   C402    1.304   .     A
O398   Cu410   1.994   .     S
O399   Cu409   1.987   .     S
O399   C402    1.307   .     A
O400   Cu410   1.987   .     S
O400   C401    1.307   .     A
C401   C418    1.479   .     S
C402   C417    1.479   .     S
O403   C407    1.296   .     A
O403   Cu409   1.930   .     S
O404   C408    1.296   .     A
O404   Cu410   1.930   .     S
O405   C408    1.294   .     A
O405   Cu409   1.928   .     S
O406   C407    1.294   .     A
O406   Cu410   1.928   .     S
C407   C411    1.407   .     S
C408   C412    1.407   .     S
Cu409  N423    2.033   .     S
Cu409  Cu410   2.705   .     S
Cu410  N424    2.033   .     S
C412   C807    1.189   .     S
C413   C418    1.414   .     A
C413   N425    1.437   .     S
C413   C503    1.399   1_455 S
C414   C417    1.414   .     A
C414   N428    1.437   .     S
C414   C460    1.399   .     S
C415   N431    1.437   .     S
C415   C417    1.417   .     A
C415   C457    1.399   .     S
C416   N434    1.437   .     S
C416   C418    1.417   .     A
C416   C502    1.399   1_455 S
C419   N424    1.375   .     A
C419   Br437   1.930   .     S
C419   C686    1.423   1_545 S
C420   N423    1.375   .     A
C420   Br438   1.930   .     S
C420   C553    1.423   .     S
C421   Br439   1.925   .     S
C421   N424    1.377   .     A
C421   C684    1.423   1_545 S
C422   Br440   1.925   .     S
C422   N423    1.377   .     A
C422   C551    1.423   .     S
N425   O426    1.301   .     A
N425   O427    1.301   .     A
N428   O429    1.301   .     A
N428   O430    1.301   .     A
N431   O433    1.301   .     A
N431   O432    1.302   .     A
N434   O436    1.301   .     A
N434   O435    1.302   .     A
O441   C445    1.304   .     A
O441   Cu453   1.994   .     S
O442   C446    1.304   .     A
O442   Cu454   1.994   .     S
O443   Cu453   1.987   .     S
O443   C446    1.307   .     A
O444   Cu454   1.987   .     S
O444   C445    1.307   .     A
C445   C462    1.479   .     S
C446   C461    1.479   .     S
O447   C451    1.296   .     A
O447   Cu453   1.930   .     S
O448   C452    1.296   .     A
O448   Cu454   1.930   .     S
O449   C452    1.294   .     A
O449   Cu453   1.928   .     S
O450   C451    1.294   .     A
O450   Cu454   1.928   .     S
C451   C455    1.407   .     S
C452   C456    1.407   .     S
Cu453  N467    2.033   .     S
Cu453  Cu454   2.705   .     S
Cu454  N468    2.033   .     S
C456   C851    1.189   .     S
C457   C462    1.414   .     A
C457   N469    1.437   .     S
C458   C461    1.414   .     A
C458   N472    1.437   .     S
C458   C504    1.399   .     S
C459   N475    1.437   .     S
C459   C461    1.417   .     A
C459   C501    1.399   .     S
C460   N478    1.437   .     S
C460   C462    1.417   .     A
C463   N468    1.375   .     A
C463   Br481   1.930   .     S
C463   C730    1.423   1_545 S
C464   N467    1.375   .     A
C464   Br482   1.930   .     S
C464   C597    1.423   .     S
C465   Br483   1.925   .     S
C465   N468    1.377   .     A
C465   C728    1.423   1_545 S
C466   Br484   1.925   .     S
C466   N467    1.377   .     A
C466   C595    1.423   .     S
N469   O470    1.301   .     A
N469   O471    1.301   .     A
N472   O473    1.301   .     A
N472   O474    1.301   .     A
N475   O477    1.301   .     A
N475   O476    1.302   .     A
N478   O480    1.301   .     A
N478   O479    1.302   .     A
O485   C489    1.304   .     A
O485   Cu497   1.994   .     S
O486   C490    1.304   .     A
O486   Cu498   1.994   .     S
O487   Cu497   1.987   .     S
O487   C490    1.307   .     A
O488   Cu498   1.987   .     S
O488   C489    1.307   .     A
C489   C506    1.479   .     S
C490   C505    1.479   .     S
O491   C495    1.296   .     A
O491   Cu497   1.930   .     S
O492   C496    1.296   .     A
O492   Cu498   1.930   .     S
O493   C496    1.294   .     A
O493   Cu497   1.928   .     S
O494   C495    1.294   .     A
O494   Cu498   1.928   .     S
C495   C499    1.407   .     S
C496   C500    1.407   .     S
Cu497  N511    2.033   .     S
Cu497  Cu498   2.705   .     S
Cu498  N512    2.033   .     S
C500   C895    1.189   .     S
C501   C506    1.414   .     A
C501   N513    1.437   .     S
C502   C505    1.414   .     A
C502   N516    1.437   .     S
C502   C416    1.399   1_655 S
C503   N519    1.437   .     S
C503   C505    1.417   .     A
C503   C413    1.399   1_655 S
C504   N522    1.437   .     S
C504   C506    1.417   .     A
C507   N512    1.375   .     A
C507   Br525   1.930   .     S
C507   C774    1.423   1_545 S
C508   N511    1.375   .     A
C508   Br526   1.930   .     S
C508   C641    1.423   .     S
C509   Br527   1.925   .     S
C509   N512    1.377   .     A
C509   C772    1.423   1_545 S
C510   Br528   1.925   .     S
C510   N511    1.377   .     A
C510   C639    1.423   .     S
N513   O514    1.301   .     A
N513   O515    1.301   .     A
N516   O517    1.301   .     A
N516   O518    1.301   .     A
N519   O521    1.301   .     A
N519   O520    1.302   .     A
N522   O524    1.301   .     A
N522   O523    1.302   .     A
O529   C533    1.304   .     A
O529   Cu541   1.994   .     S
O530   C534    1.304   .     A
O530   Cu542   1.994   .     S
O531   Cu541   1.987   .     S
O531   C534    1.307   .     A
O532   Cu542   1.987   .     S
O532   C533    1.307   .     A
C533   C550    1.479   .     S
C534   C549    1.479   .     S
O535   C539    1.296   .     A
O535   Cu541   1.930   .     S
O536   C540    1.296   .     A
O536   Cu542   1.930   .     S
O537   C540    1.294   .     A
O537   Cu541   1.928   .     S
O538   C539    1.294   .     A
O538   Cu542   1.928   .     S
C539   C543    1.407   .     S
C540   C544    1.407   .     S
Cu541  N555    2.033   .     S
Cu541  Cu542   2.705   .     S
Cu542  N556    2.033   .     S
C544   C939    1.189   .     S
C545   C550    1.414   .     A
C545   N557    1.437   .     S
C545   C635    1.399   1_455 S
C546   C549    1.414   .     A
C546   N560    1.437   .     S
C546   C592    1.399   .     S
C547   N563    1.437   .     S
C547   C549    1.417   .     A
C547   C589    1.399   .     S
C548   N566    1.437   .     S
C548   C550    1.417   .     A
C548   C634    1.399   1_455 S
C551   N556    1.375   .     A
C551   Br569   1.930   .     S
C552   N555    1.375   .     A
C552   Br570   1.930   .     S
C552   C685    1.423   .     S
C553   Br571   1.925   .     S
C553   N556    1.377   .     A
C554   Br572   1.925   .     S
C554   N555    1.377   .     A
C554   C683    1.423   .     S
N557   O558    1.301   .     A
N557   O559    1.301   .     A
N560   O561    1.301   .     A
N560   O562    1.301   .     A
N563   O565    1.301   .     A
N563   O564    1.302   .     A
N566   O568    1.301   .     A
N566   O567    1.302   .     A
O573   C577    1.304   .     A
O573   Cu585   1.994   .     S
O574   C578    1.304   .     A
O574   Cu586   1.994   .     S
O575   Cu585   1.987   .     S
O575   C578    1.307   .     A
O576   Cu586   1.987   .     S
O576   C577    1.307   .     A
C577   C594    1.479   .     S
C578   C593    1.479   .     S
O579   C583    1.296   .     A
O579   Cu585   1.930   .     S
O580   C584    1.296   .     A
O580   Cu586   1.930   .     S
O581   C584    1.294   .     A
O581   Cu585   1.928   .     S
O582   C583    1.294   .     A
O582   Cu586   1.928   .     S
C583   C587    1.407   .     S
C584   C588    1.407   .     S
Cu585  N599    2.033   .     S
Cu585  Cu586   2.705   .     S
Cu586  N600    2.033   .     S
C588   C983    1.189   .     S
C589   C594    1.414   .     A
C589   N601    1.437   .     S
C590   C593    1.414   .     A
C590   N604    1.437   .     S
C590   C636    1.399   .     S
C591   N607    1.437   .     S
C591   C593    1.417   .     A
C591   C633    1.399   .     S
C592   N610    1.437   .     S
C592   C594    1.417   .     A
C595   N600    1.375   .     A
C595   Br613   1.930   .     S
C596   N599    1.375   .     A
C596   Br614   1.930   .     S
C596   C729    1.423   .     S
C597   Br615   1.925   .     S
C597   N600    1.377   .     A
C598   Br616   1.925   .     S
C598   N599    1.377   .     A
C598   C727    1.423   .     S
N601   O602    1.301   .     A
N601   O603    1.301   .     A
N604   O605    1.301   .     A
N604   O606    1.301   .     A
N607   O609    1.301   .     A
N607   O608    1.302   .     A
N610   O612    1.301   .     A
N610   O611    1.302   .     A
O617   C621    1.304   .     A
O617   Cu629   1.994   .     S
O618   C622    1.304   .     A
O618   Cu630   1.994   .     S
O619   Cu629   1.987   .     S
O619   C622    1.307   .     A
O620   Cu630   1.987   .     S
O620   C621    1.307   .     A
C621   C638    1.479   .     S
C622   C637    1.479   .     S
O623   C627    1.296   .     A
O623   Cu629   1.930   .     S
O624   C628    1.296   .     A
O624   Cu630   1.930   .     S
O625   C628    1.294   .     A
O625   Cu629   1.928   .     S
O626   C627    1.294   .     A
O626   Cu630   1.928   .     S
C627   C631    1.407   .     S
C628   C632    1.407   .     S
Cu629  N643    2.033   .     S
Cu629  Cu630   2.705   .     S
Cu630  N644    2.033   .     S
C632   C1027   1.189   .     S
C633   C638    1.414   .     A
C633   N645    1.437   .     S
C634   C637    1.414   .     A
C634   N648    1.437   .     S
C634   C548    1.399   1_655 S
C635   N651    1.437   .     S
C635   C637    1.417   .     A
C635   C545    1.399   1_655 S
C636   N654    1.437   .     S
C636   C638    1.417   .     A
C639   N644    1.375   .     A
C639   Br657   1.930   .     S
C640   N643    1.375   .     A
C640   Br658   1.930   .     S
C640   C773    1.423   .     S
C641   Br659   1.925   .     S
C641   N644    1.377   .     A
C642   Br660   1.925   .     S
C642   N643    1.377   .     A
C642   C771    1.423   .     S
N645   O646    1.301   .     A
N645   O647    1.301   .     A
N648   O649    1.301   .     A
N648   O650    1.301   .     A
N651   O653    1.301   .     A
N651   O652    1.302   .     A
N654   O656    1.301   .     A
N654   O655    1.302   .     A
O661   C665    1.304   .     A
O661   Cu673   1.994   .     S
O662   C666    1.304   .     A
O662   Cu674   1.994   .     S
O663   Cu673   1.987   .     S
O663   C666    1.307   .     A
O664   Cu674   1.987   .     S
O664   C665    1.307   .     A
C665   C682    1.479   .     S
C666   C681    1.479   .     S
O667   C671    1.296   .     A
O667   Cu673   1.930   .     S
O668   C672    1.296   .     A
O668   Cu674   1.930   .     S
O669   C672    1.294   .     A
O669   Cu673   1.928   .     S
O670   C671    1.294   .     A
O670   Cu674   1.928   .     S
C671   C675    1.407   .     S
C672   C676    1.407   .     S
Cu673  N687    2.033   .     S
Cu673  Cu674   2.705   .     S
Cu674  N688    2.033   .     S
C676   C1071   1.189   .     S
C677   C682    1.414   .     A
C677   N689    1.437   .     S
C677   C767    1.399   1_455 S
C678   C681    1.414   .     A
C678   N692    1.437   .     S
C678   C724    1.399   .     S
C679   N695    1.437   .     S
C679   C681    1.417   .     A
C679   C721    1.399   .     S
C680   N698    1.437   .     S
C680   C682    1.417   .     A
C680   C766    1.399   1_455 S
C683   N688    1.375   .     A
C683   Br701   1.930   .     S
C684   N687    1.375   .     A
C684   Br702   1.930   .     S
C684   C421    1.423   1_565 S
C685   Br703   1.925   .     S
C685   N688    1.377   .     A
C686   Br704   1.925   .     S
C686   N687    1.377   .     A
C686   C419    1.423   1_565 S
N689   O690    1.301   .     A
N689   O691    1.301   .     A
N692   O693    1.301   .     A
N692   O694    1.301   .     A
N695   O697    1.301   .     A
N695   O696    1.302   .     A
N698   O700    1.301   .     A
N698   O699    1.302   .     A
O705   C709    1.304   .     A
O705   Cu717   1.994   .     S
O706   C710    1.304   .     A
O706   Cu718   1.994   .     S
O707   Cu717   1.987   .     S
O707   C710    1.307   .     A
O708   Cu718   1.987   .     S
O708   C709    1.307   .     A
C709   C726    1.479   .     S
C710   C725    1.479   .     S
O711   C715    1.296   .     A
O711   Cu717   1.930   .     S
O712   C716    1.296   .     A
O712   Cu718   1.930   .     S
O713   C716    1.294   .     A
O713   Cu717   1.928   .     S
O714   C715    1.294   .     A
O714   Cu718   1.928   .     S
C715   C719    1.407   .     S
C716   C720    1.407   .     S
Cu717  N731    2.033   .     S
Cu717  Cu718   2.705   .     S
Cu718  N732    2.033   .     S
C720   C1115   1.189   .     S
C721   C726    1.414   .     A
C721   N733    1.437   .     S
C722   C725    1.414   .     A
C722   N736    1.437   .     S
C722   C768    1.399   .     S
C723   N739    1.437   .     S
C723   C725    1.417   .     A
C723   C765    1.399   .     S
C724   N742    1.437   .     S
C724   C726    1.417   .     A
C727   N732    1.375   .     A
C727   Br745   1.930   .     S
C728   N731    1.375   .     A
C728   Br746   1.930   .     S
C728   C465    1.423   1_565 S
C729   Br747   1.925   .     S
C729   N732    1.377   .     A
C730   Br748   1.925   .     S
C730   N731    1.377   .     A
C730   C463    1.423   1_565 S
N733   O734    1.301   .     A
N733   O735    1.301   .     A
N736   O737    1.301   .     A
N736   O738    1.301   .     A
N739   O741    1.301   .     A
N739   O740    1.302   .     A
N742   O744    1.301   .     A
N742   O743    1.302   .     A
O749   C753    1.304   .     A
O749   Cu761   1.994   .     S
O750   C754    1.304   .     A
O750   Cu762   1.994   .     S
O751   Cu761   1.987   .     S
O751   C754    1.307   .     A
O752   Cu762   1.987   .     S
O752   C753    1.307   .     A
C753   C770    1.479   .     S
C754   C769    1.479   .     S
O755   C759    1.296   .     A
O755   Cu761   1.930   .     S
O756   C760    1.296   .     A
O756   Cu762   1.930   .     S
O757   C760    1.294   .     A
O757   Cu761   1.928   .     S
O758   C759    1.294   .     A
O758   Cu762   1.928   .     S
C759   C763    1.407   .     S
C760   C764    1.407   .     S
Cu761  N775    2.033   .     S
Cu761  Cu762   2.705   .     S
Cu762  N776    2.033   .     S
C764   C1159   1.189   .     S
C765   C770    1.414   .     A
C765   N777    1.437   .     S
C766   C769    1.414   .     A
C766   N780    1.437   .     S
C766   C680    1.399   1_655 S
C767   N783    1.437   .     S
C767   C769    1.417   .     A
C767   C677    1.399   1_655 S
C768   N786    1.437   .     S
C768   C770    1.417   .     A
C771   N776    1.375   .     A
C771   Br789   1.930   .     S
C772   N775    1.375   .     A
C772   Br790   1.930   .     S
C772   C509    1.423   1_565 S
C773   Br791   1.925   .     S
C773   N776    1.377   .     A
C774   Br792   1.925   .     S
C774   N775    1.377   .     A
C774   C507    1.423   1_565 S
N777   O778    1.301   .     A
N777   O779    1.301   .     A
N780   O781    1.301   .     A
N780   O782    1.301   .     A
N783   O785    1.301   .     A
N783   O784    1.302   .     A
N786   O788    1.301   .     A
N786   O787    1.302   .     A
O793   C797    1.304   .     A
O793   Cu805   1.994   .     S
O794   C798    1.304   .     A
O794   Cu806   1.994   .     S
O795   Cu805   1.987   .     S
O795   C798    1.307   .     A
O796   Cu806   1.987   .     S
O796   C797    1.307   .     A
C797   C814    1.479   .     S
C798   C813    1.479   .     S
O799   C803    1.296   .     A
O799   Cu805   1.930   .     S
O800   C804    1.296   .     A
O800   Cu806   1.930   .     S
O801   C804    1.294   .     A
O801   Cu805   1.928   .     S
O802   C803    1.294   .     A
O802   Cu806   1.928   .     S
C803   C807    1.407   .     S
C804   C808    1.407   .     S
Cu805  N819    2.033   .     S
Cu805  Cu806   2.705   .     S
Cu806  N820    2.033   .     S
C808   C15     1.189   1_556 S
C809   C814    1.414   .     A
C809   N821    1.437   .     S
C809   C899    1.399   1_455 S
C810   C813    1.414   .     A
C810   N824    1.437   .     S
C810   C856    1.399   .     S
C811   N827    1.437   .     S
C811   C813    1.417   .     A
C811   C853    1.399   .     S
C812   N830    1.437   .     S
C812   C814    1.417   .     A
C812   C898    1.399   1_455 S
C815   N820    1.375   .     A
C815   Br833   1.930   .     S
C815   C1082   1.423   1_545 S
C816   N819    1.375   .     A
C816   Br834   1.930   .     S
C816   C949    1.423   .     S
C817   Br835   1.925   .     S
C817   N820    1.377   .     A
C817   C1080   1.423   1_545 S
C818   Br836   1.925   .     S
C818   N819    1.377   .     A
C818   C947    1.423   .     S
N821   O822    1.301   .     A
N821   O823    1.301   .     A
N824   O825    1.301   .     A
N824   O826    1.301   .     A
N827   O829    1.301   .     A
N827   O828    1.302   .     A
N830   O832    1.301   .     A
N830   O831    1.302   .     A
O837   C841    1.304   .     A
O837   Cu849   1.994   .     S
O838   C842    1.304   .     A
O838   Cu850   1.994   .     S
O839   Cu849   1.987   .     S
O839   C842    1.307   .     A
O840   Cu850   1.987   .     S
O840   C841    1.307   .     A
C841   C858    1.479   .     S
C842   C857    1.479   .     S
O843   C847    1.296   .     A
O843   Cu849   1.930   .     S
O844   C848    1.296   .     A
O844   Cu850   1.930   .     S
O845   C848    1.294   .     A
O845   Cu849   1.928   .     S
O846   C847    1.294   .     A
O846   Cu850   1.928   .     S
C847   C851    1.407   .     S
C848   C852    1.407   .     S
Cu849  N863    2.033   .     S
Cu849  Cu850   2.705   .     S
Cu850  N864    2.033   .     S
C852   C59     1.189   1_556 S
C853   C858    1.414   .     A
C853   N865    1.437   .     S
C854   C857    1.414   .     A
C854   N868    1.437   .     S
C854   C900    1.399   .     S
C855   N871    1.437   .     S
C855   C857    1.417   .     A
C855   C897    1.399   .     S
C856   N874    1.437   .     S
C856   C858    1.417   .     A
C859   N864    1.375   .     A
C859   Br877   1.930   .     S
C859   C1126   1.423   1_545 S
C860   N863    1.375   .     A
C860   Br878   1.930   .     S
C860   C993    1.423   .     S
C861   Br879   1.925   .     S
C861   N864    1.377   .     A
C861   C1124   1.423   1_545 S
C862   Br880   1.925   .     S
C862   N863    1.377   .     A
C862   C991    1.423   .     S
N865   O866    1.301   .     A
N865   O867    1.301   .     A
N868   O869    1.301   .     A
N868   O870    1.301   .     A
N871   O873    1.301   .     A
N871   O872    1.302   .     A
N874   O876    1.301   .     A
N874   O875    1.302   .     A
O881   C885    1.304   .     A
O881   Cu893   1.994   .     S
O882   C886    1.304   .     A
O882   Cu894   1.994   .     S
O883   Cu893   1.987   .     S
O883   C886    1.307   .     A
O884   Cu894   1.987   .     S
O884   C885    1.307   .     A
C885   C902    1.479   .     S
C886   C901    1.479   .     S
O887   C891    1.296   .     A
O887   Cu893   1.930   .     S
O888   C892    1.296   .     A
O888   Cu894   1.930   .     S
O889   C892    1.294   .     A
O889   Cu893   1.928   .     S
O890   C891    1.294   .     A
O890   Cu894   1.928   .     S
C891   C895    1.407   .     S
C892   C896    1.407   .     S
Cu893  N907    2.033   .     S
Cu893  Cu894   2.705   .     S
Cu894  N908    2.033   .     S
C896   C103    1.189   1_556 S
C897   C902    1.414   .     A
C897   N909    1.437   .     S
C898   C901    1.414   .     A
C898   N912    1.437   .     S
C898   C812    1.399   1_655 S
C899   N915    1.437   .     S
C899   C901    1.417   .     A
C899   C809    1.399   1_655 S
C900   N918    1.437   .     S
C900   C902    1.417   .     A
C903   N908    1.375   .     A
C903   Br921   1.930   .     S
C903   C1170   1.423   1_545 S
C904   N907    1.375   .     A
C904   Br922   1.930   .     S
C904   C1037   1.423   .     S
C905   Br923   1.925   .     S
C905   N908    1.377   .     A
C905   C1168   1.423   1_545 S
C906   Br924   1.925   .     S
C906   N907    1.377   .     A
C906   C1035   1.423   .     S
N909   O910    1.301   .     A
N909   O911    1.301   .     A
N912   O913    1.301   .     A
N912   O914    1.301   .     A
N915   O917    1.301   .     A
N915   O916    1.302   .     A
N918   O920    1.301   .     A
N918   O919    1.302   .     A
O925   C929    1.304   .     A
O925   Cu937   1.994   .     S
O926   C930    1.304   .     A
O926   Cu938   1.994   .     S
O927   Cu937   1.987   .     S
O927   C930    1.307   .     A
O928   Cu938   1.987   .     S
O928   C929    1.307   .     A
C929   C946    1.479   .     S
C930   C945    1.479   .     S
O931   C935    1.296   .     A
O931   Cu937   1.930   .     S
O932   C936    1.296   .     A
O932   Cu938   1.930   .     S
O933   C936    1.294   .     A
O933   Cu937   1.928   .     S
O934   C935    1.294   .     A
O934   Cu938   1.928   .     S
C935   C939    1.407   .     S
C936   C940    1.407   .     S
Cu937  N951    2.033   .     S
Cu937  Cu938   2.705   .     S
Cu938  N952    2.033   .     S
C940   C147    1.189   1_556 S
C941   C946    1.414   .     A
C941   N953    1.437   .     S
C941   C1031   1.399   1_455 S
C942   C945    1.414   .     A
C942   N956    1.437   .     S
C942   C988    1.399   .     S
C943   N959    1.437   .     S
C943   C945    1.417   .     A
C943   C985    1.399   .     S
C944   N962    1.437   .     S
C944   C946    1.417   .     A
C944   C1030   1.399   1_455 S
C947   N952    1.375   .     A
C947   Br965   1.930   .     S
C948   N951    1.375   .     A
C948   Br966   1.930   .     S
C948   C1081   1.423   .     S
C949   Br967   1.925   .     S
C949   N952    1.377   .     A
C950   Br968   1.925   .     S
C950   N951    1.377   .     A
C950   C1079   1.423   .     S
N953   O954    1.301   .     A
N953   O955    1.301   .     A
N956   O957    1.301   .     A
N956   O958    1.301   .     A
N959   O961    1.301   .     A
N959   O960    1.302   .     A
N962   O964    1.301   .     A
N962   O963    1.302   .     A
O969   C973    1.304   .     A
O969   Cu981   1.994   .     S
O970   C974    1.304   .     A
O970   Cu982   1.994   .     S
O971   Cu981   1.987   .     S
O971   C974    1.307   .     A
O972   Cu982   1.987   .     S
O972   C973    1.307   .     A
C973   C990    1.479   .     S
C974   C989    1.479   .     S
O975   C979    1.296   .     A
O975   Cu981   1.930   .     S
O976   C980    1.296   .     A
O976   Cu982   1.930   .     S
O977   C980    1.294   .     A
O977   Cu981   1.928   .     S
O978   C979    1.294   .     A
O978   Cu982   1.928   .     S
C979   C983    1.407   .     S
C980   C984    1.407   .     S
Cu981  N995    2.033   .     S
Cu981  Cu982   2.705   .     S
Cu982  N996    2.033   .     S
C984   C191    1.189   1_556 S
C985   C990    1.414   .     A
C985   N997    1.437   .     S
C986   C989    1.414   .     A
C986   N1000   1.437   .     S
C986   C1032   1.399   .     S
C987   N1003   1.437   .     S
C987   C989    1.417   .     A
C987   C1029   1.399   .     S
C988   N1006   1.437   .     S
C988   C990    1.417   .     A
C991   N996    1.375   .     A
C991   Br1009  1.930   .     S
C992   N995    1.375   .     A
C992   Br1010  1.930   .     S
C992   C1125   1.423   .     S
C993   Br1011  1.925   .     S
C993   N996    1.377   .     A
C994   Br1012  1.925   .     S
C994   N995    1.377   .     A
C994   C1123   1.423   .     S
N997   O998    1.301   .     A
N997   O999    1.301   .     A
N1000  O1001   1.301   .     A
N1000  O1002   1.301   .     A
N1003  O1005   1.301   .     A
N1003  O1004   1.302   .     A
N1006  O1008   1.301   .     A
N1006  O1007   1.302   .     A
O1013  C1017   1.304   .     A
O1013  Cu1025  1.994   .     S
O1014  C1018   1.304   .     A
O1014  Cu1026  1.994   .     S
O1015  Cu1025  1.987   .     S
O1015  C1018   1.307   .     A
O1016  Cu1026  1.987   .     S
O1016  C1017   1.307   .     A
C1017  C1034   1.479   .     S
C1018  C1033   1.479   .     S
O1019  C1023   1.296   .     A
O1019  Cu1025  1.930   .     S
O1020  C1024   1.296   .     A
O1020  Cu1026  1.930   .     S
O1021  C1024   1.294   .     A
O1021  Cu1025  1.928   .     S
O1022  C1023   1.294   .     A
O1022  Cu1026  1.928   .     S
C1023  C1027   1.407   .     S
C1024  C1028   1.407   .     S
Cu1025 N1039   2.033   .     S
Cu1025 Cu1026  2.705   .     S
Cu1026 N1040   2.033   .     S
C1028  C235    1.189   1_556 S
C1029  C1034   1.414   .     A
C1029  N1041   1.437   .     S
C1030  C1033   1.414   .     A
C1030  N1044   1.437   .     S
C1030  C944    1.399   1_655 S
C1031  N1047   1.437   .     S
C1031  C1033   1.417   .     A
C1031  C941    1.399   1_655 S
C1032  N1050   1.437   .     S
C1032  C1034   1.417   .     A
C1035  N1040   1.375   .     A
C1035  Br1053  1.930   .     S
C1036  N1039   1.375   .     A
C1036  Br1054  1.930   .     S
C1036  C1169   1.423   .     S
C1037  Br1055  1.925   .     S
C1037  N1040   1.377   .     A
C1038  Br1056  1.925   .     S
C1038  N1039   1.377   .     A
C1038  C1167   1.423   .     S
N1041  O1042   1.301   .     A
N1041  O1043   1.301   .     A
N1044  O1045   1.301   .     A
N1044  O1046   1.301   .     A
N1047  O1049   1.301   .     A
N1047  O1048   1.302   .     A
N1050  O1052   1.301   .     A
N1050  O1051   1.302   .     A
O1057  C1061   1.304   .     A
O1057  Cu1069  1.994   .     S
O1058  C1062   1.304   .     A
O1058  Cu1070  1.994   .     S
O1059  Cu1069  1.987   .     S
O1059  C1062   1.307   .     A
O1060  Cu1070  1.987   .     S
O1060  C1061   1.307   .     A
C1061  C1078   1.479   .     S
C1062  C1077   1.479   .     S
O1063  C1067   1.296   .     A
O1063  Cu1069  1.930   .     S
O1064  C1068   1.296   .     A
O1064  Cu1070  1.930   .     S
O1065  C1068   1.294   .     A
O1065  Cu1069  1.928   .     S
O1066  C1067   1.294   .     A
O1066  Cu1070  1.928   .     S
C1067  C1071   1.407   .     S
C1068  C1072   1.407   .     S
Cu1069 N1083   2.033   .     S
Cu1069 Cu1070  2.705   .     S
Cu1070 N1084   2.033   .     S
C1072  C279    1.189   1_556 S
C1073  C1078   1.414   .     A
C1073  N1085   1.437   .     S
C1073  C1163   1.399   1_455 S
C1074  C1077   1.414   .     A
C1074  N1088   1.437   .     S
C1074  C1120   1.399   .     S
C1075  N1091   1.437   .     S
C1075  C1077   1.417   .     A
C1075  C1117   1.399   .     S
C1076  N1094   1.437   .     S
C1076  C1078   1.417   .     A
C1076  C1162   1.399   1_455 S
C1079  N1084   1.375   .     A
C1079  Br1097  1.930   .     S
C1080  N1083   1.375   .     A
C1080  Br1098  1.930   .     S
C1080  C817    1.423   1_565 S
C1081  Br1099  1.925   .     S
C1081  N1084   1.377   .     A
C1082  Br1100  1.925   .     S
C1082  N1083   1.377   .     A
C1082  C815    1.423   1_565 S
N1085  O1086   1.301   .     A
N1085  O1087   1.301   .     A
N1088  O1089   1.301   .     A
N1088  O1090   1.301   .     A
N1091  O1093   1.301   .     A
N1091  O1092   1.302   .     A
N1094  O1096   1.301   .     A
N1094  O1095   1.302   .     A
O1101  C1105   1.304   .     A
O1101  Cu1113  1.994   .     S
O1102  C1106   1.304   .     A
O1102  Cu1114  1.994   .     S
O1103  Cu1113  1.987   .     S
O1103  C1106   1.307   .     A
O1104  Cu1114  1.987   .     S
O1104  C1105   1.307   .     A
C1105  C1122   1.479   .     S
C1106  C1121   1.479   .     S
O1107  C1111   1.296   .     A
O1107  Cu1113  1.930   .     S
O1108  C1112   1.296   .     A
O1108  Cu1114  1.930   .     S
O1109  C1112   1.294   .     A
O1109  Cu1113  1.928   .     S
O1110  C1111   1.294   .     A
O1110  Cu1114  1.928   .     S
C1111  C1115   1.407   .     S
C1112  C1116   1.407   .     S
Cu1113 N1127   2.033   .     S
Cu1113 Cu1114  2.705   .     S
Cu1114 N1128   2.033   .     S
C1116  C323    1.189   1_556 S
C1117  C1122   1.414   .     A
C1117  N1129   1.437   .     S
C1118  C1121   1.414   .     A
C1118  N1132   1.437   .     S
C1118  C1164   1.399   .     S
C1119  N1135   1.437   .     S
C1119  C1121   1.417   .     A
C1119  C1161   1.399   .     S
C1120  N1138   1.437   .     S
C1120  C1122   1.417   .     A
C1123  N1128   1.375   .     A
C1123  Br1141  1.930   .     S
C1124  N1127   1.375   .     A
C1124  Br1142  1.930   .     S
C1124  C861    1.423   1_565 S
C1125  Br1143  1.925   .     S
C1125  N1128   1.377   .     A
C1126  Br1144  1.925   .     S
C1126  N1127   1.377   .     A
C1126  C859    1.423   1_565 S
N1129  O1130   1.301   .     A
N1129  O1131   1.301   .     A
N1132  O1133   1.301   .     A
N1132  O1134   1.301   .     A
N1135  O1137   1.301   .     A
N1135  O1136   1.302   .     A
N1138  O1140   1.301   .     A
N1138  O1139   1.302   .     A
O1145  C1149   1.304   .     A
O1145  Cu1157  1.994   .     S
O1146  C1150   1.304   .     A
O1146  Cu1158  1.994   .     S
O1147  Cu1157  1.987   .     S
O1147  C1150   1.307   .     A
O1148  Cu1158  1.987   .     S
O1148  C1149   1.307   .     A
C1149  C1166   1.479   .     S
C1150  C1165   1.479   .     S
O1151  C1155   1.296   .     A
O1151  Cu1157  1.930   .     S
O1152  C1156   1.296   .     A
O1152  Cu1158  1.930   .     S
O1153  C1156   1.294   .     A
O1153  Cu1157  1.928   .     S
O1154  C1155   1.294   .     A
O1154  Cu1158  1.928   .     S
C1155  C1159   1.407   .     S
C1156  C1160   1.407   .     S
Cu1157 N1171   2.033   .     S
Cu1157 Cu1158  2.705   .     S
Cu1158 N1172   2.033   .     S
C1160  C367    1.189   1_556 S
C1161  C1166   1.414   .     A
C1161  N1173   1.437   .     S
C1162  C1165   1.414   .     A
C1162  N1176   1.437   .     S
C1162  C1076   1.399   1_655 S
C1163  N1179   1.437   .     S
C1163  C1165   1.417   .     A
C1163  C1073   1.399   1_655 S
C1164  N1182   1.437   .     S
C1164  C1166   1.417   .     A
C1167  N1172   1.375   .     A
C1167  Br1185  1.930   .     S
C1168  N1171   1.375   .     A
C1168  Br1186  1.930   .     S
C1168  C905    1.423   1_565 S
C1169  Br1187  1.925   .     S
C1169  N1172   1.377   .     A
C1170  Br1188  1.925   .     S
C1170  N1171   1.377   .     A
C1170  C903    1.423   1_565 S
N1173  O1174   1.301   .     A
N1173  O1175   1.301   .     A
N1176  O1177   1.301   .     A
N1176  O1178   1.301   .     A
N1179  O1181   1.301   .     A
N1179  O1180   1.302   .     A
N1182  O1184   1.301   .     A
N1182  O1183   1.302   .     A
