data_str_m3_o1_o18_pcu_sym.100
_audit_creation_date              2020-01-03
_audit_creation_method            'Materials Studio'
_symmetry_space_group_name_H-M    'P1'
_symmetry_Int_Tables_number       1
_symmetry_cell_setting            triclinic
loop_
_symmetry_equiv_pos_as_xyz
  x,y,z
_cell_length_a                    29.6265
_cell_length_b                    31.9505
_cell_length_c                    31.1931
_cell_angle_alpha                 90.9062
_cell_angle_beta                  67.0352
_cell_angle_gamma                 90.4767
loop_
_atom_site_label
_atom_site_type_symbol
_atom_site_fract_x
_atom_site_fract_y
_atom_site_fract_z
_atom_site_U_iso_or_equiv
_atom_site_adp_type
_atom_site_occupancy
O1     O     0.12846   0.22775   0.25000   0.00000  Uiso   1.00
O2     O     0.20488   0.10558   0.24999   0.00000  Uiso   1.00
O3     O     0.20490   0.22774   0.25000   0.00000  Uiso   1.00
O4     O     0.12843   0.10559   0.25000   0.00000  Uiso   1.00
C5     C     0.16677   0.24653   0.25026   0.00000  Uiso   1.00
C6     C     0.16664   0.08681   0.24956   0.00000  Uiso   1.00
O7     O     0.10661   0.16667   0.31612   0.00000  Uiso   1.00
O8     O     0.22672   0.16666   0.18387   0.00000  Uiso   1.00
O9     O     0.18305   0.16666   0.31612   0.00000  Uiso   1.00
O10    O     0.15028   0.16667   0.18388   0.00000  Uiso   1.00
C11    C     0.13554   0.16625   0.33812   0.00000  Uiso   1.00
C12    C     0.19773   0.16726   0.16188   0.00000  Uiso   1.00
Zn13   Zn    0.11562   0.16667   0.25000   0.00000  Uiso   1.00
Zn14   Zn    0.21771   0.16666   0.25000   0.00000  Uiso   1.00
C15    C     0.11498   0.16776   0.38919   0.00000  Uiso   1.00
C16    C     0.21817   0.16738   0.11079   0.00000  Uiso   1.00
C17    C     0.05807   0.19537   0.46297   0.00000  Uiso   1.00
C18    C     0.27774   0.14550   0.03554   0.00000  Uiso   1.00
C19    C     0.06840   0.18471   0.41647   0.00000  Uiso   1.00
C20    C     0.26606   0.15364   0.08279   0.00000  Uiso   1.00
C21    C     0.14692   0.15711   0.41025   0.00000  Uiso   1.00
C22    C     0.18575   0.17758   0.09004   0.00000  Uiso   1.00
C23    C     0.13819   0.16940   0.45598   0.00000  Uiso   1.00
C24    C     0.19708   0.17015   0.04274   0.00000  Uiso   1.00
C25    C     0.09292   0.18907   0.48228   0.00000  Uiso   1.00
C26    C     0.24329   0.15239   0.01588   0.00000  Uiso   1.00
C27    C     0.17380   0.16398   0.47561   0.00000  Uiso   1.00
C28    C     0.16255   0.17748   0.02229   0.00000  Uiso   1.00
C29    C     0.11726   0.19793   0.04692   0.00000  Uiso   1.00
C30    C     0.22057   0.14627   0.44998   0.00000  Uiso   1.00
C31    C     0.08311   0.20315   0.02732   0.00000  Uiso   1.00
C32    C     0.25449   0.14087   0.46984   0.00000  Uiso   1.00
C33    C     0.20536   0.31134   0.21529   0.00000  Uiso   1.00
C34    C     0.12813   0.02201   0.28437   0.00000  Uiso   1.00
C35    C     0.20490   0.02127   0.21432   0.00000  Uiso   1.00
C36    C     0.12864   0.31211   0.28534   0.00000  Uiso   1.00
C37    C     0.16634   0.04265   0.24910   0.00000  Uiso   1.00
C38    C     0.16714   0.29071   0.25058   0.00000  Uiso   1.00
C39    C     0.31975   0.13841   0.22354   0.00000  Uiso   1.00
C40    C     0.01359   0.19495   0.27642   0.00000  Uiso   1.00
C41    C     0.03430   0.13823   0.22347   0.00000  Uiso   1.00
C42    C     0.29903   0.19509   0.27655   0.00000  Uiso   1.00
N43    N     0.04759   0.16668   0.25001   0.00000  Uiso   1.00
N44    N     0.28574   0.16666   0.24999   0.00000  Uiso   1.00
H45    H     0.04905   0.21912   0.04733   0.00000  Uiso   1.00
H46    H     0.28939   0.12646   0.44934   0.00000  Uiso   1.00
H47    H     0.15027   0.18896   0.11254   0.00000  Uiso   1.00
H48    H     0.17972   0.14076   0.38891   0.00000  Uiso   1.00
N49    N     0.30270   0.14696   0.10140   0.00000  Uiso   1.00
O50    O     0.31584   0.17783   0.12173   0.00000  Uiso   1.00
O51    O     0.33036   0.11387   0.08886   0.00000  Uiso   1.00
N52    N     0.03184   0.19213   0.39787   0.00000  Uiso   1.00
O53    O     0.01830   0.16182   0.37716   0.00000  Uiso   1.00
O54    O     0.00473   0.22554   0.41051   0.00000  Uiso   1.00
H55    H     0.02300   0.20942   0.48388   0.00000  Uiso   1.00
H56    H     0.31370   0.13328   0.01420   0.00000  Uiso   1.00
H57    H     0.10712   0.21148   0.08118   0.00000  Uiso   1.00
H58    H     0.23289   0.13628   0.41417   0.00000  Uiso   1.00
N59    N     0.24230   0.28826   0.17867   0.00000  Uiso   1.00
O60    O     0.23109   0.26842   0.14741   0.00000  Uiso   1.00
O61    O     0.28529   0.28295   0.17982   0.00000  Uiso   1.00
N62    N     0.09119   0.04505   0.32106   0.00000  Uiso   1.00
O63    O     0.10259   0.06548   0.35185   0.00000  Uiso   1.00
O64    O     0.04782   0.04956   0.32051   0.00000  Uiso   1.00
N65    N     0.24146   0.04328   0.17669   0.00000  Uiso   1.00
O66    O     0.28785   0.03690   0.16643   0.00000  Uiso   1.00
O67    O     0.22836   0.06896   0.15172   0.00000  Uiso   1.00
N68    N     0.09240   0.29014   0.32319   0.00000  Uiso   1.00
O69    O     0.04593   0.29575   0.33321   0.00000  Uiso   1.00
O70    O     0.10593   0.26541   0.34869   0.00000  Uiso   1.00
H71    H     0.30990   0.11589   0.20237   0.00000  Uiso   1.00
H72    H     0.02345   0.21750   0.29756   0.00000  Uiso   1.00
N73    N     0.06851   0.10784   0.19543   0.00000  Uiso   1.00
O74    O     0.09167   0.11459   0.15118   0.00000  Uiso   1.00
O75    O     0.06549   0.06975   0.21044   0.00000  Uiso   1.00
N76    N     0.26476   0.22539   0.30471   0.00000  Uiso   1.00
O77    O     0.24155   0.21846   0.34892   0.00000  Uiso   1.00
O78    O     0.26772   0.26353   0.28988   0.00000  Uiso   1.00
O79    O     0.46179   0.22775   0.25000   0.00000  Uiso   1.00
O80    O     0.53821   0.10558   0.24999   0.00000  Uiso   1.00
O81    O     0.53823   0.22774   0.25000   0.00000  Uiso   1.00
O82    O     0.46177   0.10559   0.25000   0.00000  Uiso   1.00
C83    C     0.50010   0.24653   0.25026   0.00000  Uiso   1.00
C84    C     0.49998   0.08681   0.24956   0.00000  Uiso   1.00
O85    O     0.43994   0.16667   0.31612   0.00000  Uiso   1.00
O86    O     0.56006   0.16666   0.18387   0.00000  Uiso   1.00
O87    O     0.51639   0.16666   0.31612   0.00000  Uiso   1.00
O88    O     0.48361   0.16667   0.18388   0.00000  Uiso   1.00
C89    C     0.46888   0.16625   0.33812   0.00000  Uiso   1.00
C90    C     0.53107   0.16726   0.16188   0.00000  Uiso   1.00
Zn91   Zn    0.44896   0.16667   0.25000   0.00000  Uiso   1.00
Zn92   Zn    0.55104   0.16666   0.25000   0.00000  Uiso   1.00
C93    C     0.44831   0.16776   0.38919   0.00000  Uiso   1.00
C94    C     0.55150   0.16738   0.11079   0.00000  Uiso   1.00
C95    C     0.39140   0.19537   0.46297   0.00000  Uiso   1.00
C96    C     0.61108   0.14550   0.03554   0.00000  Uiso   1.00
C97    C     0.40174   0.18471   0.41647   0.00000  Uiso   1.00
C98    C     0.59940   0.15364   0.08279   0.00000  Uiso   1.00
C99    C     0.48025   0.15711   0.41025   0.00000  Uiso   1.00
C100   C     0.51908   0.17758   0.09004   0.00000  Uiso   1.00
C101   C     0.47152   0.16940   0.45598   0.00000  Uiso   1.00
C102   C     0.53041   0.17015   0.04274   0.00000  Uiso   1.00
C103   C     0.42626   0.18907   0.48228   0.00000  Uiso   1.00
C104   C     0.57662   0.15239   0.01588   0.00000  Uiso   1.00
C105   C     0.50713   0.16398   0.47561   0.00000  Uiso   1.00
C106   C     0.49589   0.17748   0.02229   0.00000  Uiso   1.00
C107   C     0.45060   0.19793   0.04692   0.00000  Uiso   1.00
C108   C     0.55390   0.14627   0.44998   0.00000  Uiso   1.00
C109   C     0.41644   0.20315   0.02732   0.00000  Uiso   1.00
C110   C     0.58783   0.14087   0.46984   0.00000  Uiso   1.00
C111   C     0.53869   0.31134   0.21529   0.00000  Uiso   1.00
C112   C     0.46146   0.02201   0.28437   0.00000  Uiso   1.00
C113   C     0.53823   0.02127   0.21432   0.00000  Uiso   1.00
C114   C     0.46198   0.31211   0.28534   0.00000  Uiso   1.00
C115   C     0.49967   0.04265   0.24910   0.00000  Uiso   1.00
C116   C     0.50048   0.29071   0.25058   0.00000  Uiso   1.00
C117   C     0.65309   0.13841   0.22354   0.00000  Uiso   1.00
C118   C     0.34693   0.19495   0.27642   0.00000  Uiso   1.00
C119   C     0.36763   0.13823   0.22347   0.00000  Uiso   1.00
C120   C     0.63236   0.19509   0.27655   0.00000  Uiso   1.00
N121   N     0.38093   0.16668   0.25001   0.00000  Uiso   1.00
N122   N     0.61907   0.16666   0.24999   0.00000  Uiso   1.00
H123   H     0.38239   0.21912   0.04733   0.00000  Uiso   1.00
H124   H     0.62272   0.12646   0.44934   0.00000  Uiso   1.00
H125   H     0.48360   0.18896   0.11254   0.00000  Uiso   1.00
H126   H     0.51305   0.14076   0.38891   0.00000  Uiso   1.00
N127   N     0.63603   0.14696   0.10140   0.00000  Uiso   1.00
O128   O     0.64917   0.17783   0.12173   0.00000  Uiso   1.00
O129   O     0.66369   0.11387   0.08886   0.00000  Uiso   1.00
N130   N     0.36517   0.19213   0.39787   0.00000  Uiso   1.00
O131   O     0.35163   0.16182   0.37716   0.00000  Uiso   1.00
O132   O     0.33806   0.22554   0.41051   0.00000  Uiso   1.00
H133   H     0.35633   0.20942   0.48388   0.00000  Uiso   1.00
H134   H     0.64703   0.13328   0.01420   0.00000  Uiso   1.00
H135   H     0.44046   0.21148   0.08118   0.00000  Uiso   1.00
H136   H     0.56622   0.13628   0.41417   0.00000  Uiso   1.00
N137   N     0.57563   0.28826   0.17867   0.00000  Uiso   1.00
O138   O     0.56443   0.26842   0.14741   0.00000  Uiso   1.00
O139   O     0.61863   0.28295   0.17982   0.00000  Uiso   1.00
N140   N     0.42453   0.04505   0.32106   0.00000  Uiso   1.00
O141   O     0.43592   0.06548   0.35185   0.00000  Uiso   1.00
O142   O     0.38116   0.04956   0.32051   0.00000  Uiso   1.00
N143   N     0.57480   0.04328   0.17669   0.00000  Uiso   1.00
O144   O     0.62118   0.03690   0.16643   0.00000  Uiso   1.00
O145   O     0.56169   0.06896   0.15172   0.00000  Uiso   1.00
N146   N     0.42574   0.29014   0.32319   0.00000  Uiso   1.00
O147   O     0.37927   0.29575   0.33321   0.00000  Uiso   1.00
O148   O     0.43926   0.26541   0.34869   0.00000  Uiso   1.00
H149   H     0.64324   0.11589   0.20237   0.00000  Uiso   1.00
H150   H     0.35678   0.21750   0.29756   0.00000  Uiso   1.00
N151   N     0.40184   0.10784   0.19543   0.00000  Uiso   1.00
O152   O     0.42501   0.11459   0.15118   0.00000  Uiso   1.00
O153   O     0.39883   0.06975   0.21044   0.00000  Uiso   1.00
N154   N     0.59810   0.22539   0.30471   0.00000  Uiso   1.00
O155   O     0.57489   0.21846   0.34892   0.00000  Uiso   1.00
O156   O     0.60105   0.26353   0.28988   0.00000  Uiso   1.00
O157   O     0.79512   0.22775   0.25000   0.00000  Uiso   1.00
O158   O     0.87154   0.10558   0.24999   0.00000  Uiso   1.00
O159   O     0.87157   0.22774   0.25000   0.00000  Uiso   1.00
O160   O     0.79510   0.10559   0.25000   0.00000  Uiso   1.00
C161   C     0.83344   0.24653   0.25026   0.00000  Uiso   1.00
C162   C     0.83331   0.08681   0.24956   0.00000  Uiso   1.00
O163   O     0.77328   0.16667   0.31612   0.00000  Uiso   1.00
O164   O     0.89339   0.16666   0.18387   0.00000  Uiso   1.00
O165   O     0.84972   0.16666   0.31612   0.00000  Uiso   1.00
O166   O     0.81695   0.16667   0.18388   0.00000  Uiso   1.00
C167   C     0.80221   0.16625   0.33812   0.00000  Uiso   1.00
C168   C     0.86440   0.16726   0.16188   0.00000  Uiso   1.00
Zn169  Zn    0.78229   0.16667   0.25000   0.00000  Uiso   1.00
Zn170  Zn    0.88438   0.16666   0.25000   0.00000  Uiso   1.00
C171   C     0.78164   0.16776   0.38919   0.00000  Uiso   1.00
C172   C     0.88483   0.16738   0.11079   0.00000  Uiso   1.00
C173   C     0.72474   0.19537   0.46297   0.00000  Uiso   1.00
C174   C     0.94441   0.14550   0.03554   0.00000  Uiso   1.00
C175   C     0.73507   0.18471   0.41647   0.00000  Uiso   1.00
C176   C     0.93273   0.15364   0.08279   0.00000  Uiso   1.00
C177   C     0.81358   0.15711   0.41025   0.00000  Uiso   1.00
C178   C     0.85241   0.17758   0.09004   0.00000  Uiso   1.00
C179   C     0.80486   0.16940   0.45598   0.00000  Uiso   1.00
C180   C     0.86374   0.17015   0.04274   0.00000  Uiso   1.00
C181   C     0.75959   0.18907   0.48228   0.00000  Uiso   1.00
C182   C     0.90996   0.15239   0.01588   0.00000  Uiso   1.00
C183   C     0.84047   0.16398   0.47561   0.00000  Uiso   1.00
C184   C     0.82922   0.17748   0.02229   0.00000  Uiso   1.00
C185   C     0.78393   0.19793   0.04692   0.00000  Uiso   1.00
C186   C     0.88724   0.14627   0.44998   0.00000  Uiso   1.00
C187   C     0.74978   0.20315   0.02732   0.00000  Uiso   1.00
C188   C     0.92116   0.14087   0.46984   0.00000  Uiso   1.00
C189   C     0.87203   0.31134   0.21529   0.00000  Uiso   1.00
C190   C     0.79480   0.02201   0.28437   0.00000  Uiso   1.00
C191   C     0.87156   0.02127   0.21432   0.00000  Uiso   1.00
C192   C     0.79531   0.31211   0.28534   0.00000  Uiso   1.00
C193   C     0.83301   0.04265   0.24910   0.00000  Uiso   1.00
C194   C     0.83381   0.29071   0.25058   0.00000  Uiso   1.00
C195   C     0.98642   0.13841   0.22354   0.00000  Uiso   1.00
C196   C     0.68026   0.19495   0.27642   0.00000  Uiso   1.00
C197   C     0.70096   0.13823   0.22347   0.00000  Uiso   1.00
C198   C     0.96569   0.19509   0.27655   0.00000  Uiso   1.00
N199   N     0.71426   0.16668   0.25001   0.00000  Uiso   1.00
N200   N     0.95241   0.16666   0.24999   0.00000  Uiso   1.00
H201   H     0.71572   0.21912   0.04733   0.00000  Uiso   1.00
H202   H     0.95606   0.12646   0.44934   0.00000  Uiso   1.00
H203   H     0.81693   0.18896   0.11254   0.00000  Uiso   1.00
H204   H     0.84638   0.14076   0.38891   0.00000  Uiso   1.00
N205   N     0.96936   0.14696   0.10140   0.00000  Uiso   1.00
O206   O     0.98251   0.17783   0.12173   0.00000  Uiso   1.00
O207   O     0.99702   0.11387   0.08886   0.00000  Uiso   1.00
N208   N     0.69851   0.19213   0.39787   0.00000  Uiso   1.00
O209   O     0.68496   0.16182   0.37716   0.00000  Uiso   1.00
O210   O     0.67140   0.22554   0.41051   0.00000  Uiso   1.00
H211   H     0.68967   0.20942   0.48388   0.00000  Uiso   1.00
H212   H     0.98037   0.13328   0.01420   0.00000  Uiso   1.00
H213   H     0.77379   0.21148   0.08118   0.00000  Uiso   1.00
H214   H     0.89955   0.13628   0.41417   0.00000  Uiso   1.00
N215   N     0.90896   0.28826   0.17867   0.00000  Uiso   1.00
O216   O     0.89776   0.26842   0.14741   0.00000  Uiso   1.00
O217   O     0.95196   0.28295   0.17982   0.00000  Uiso   1.00
N218   N     0.75786   0.04505   0.32106   0.00000  Uiso   1.00
O219   O     0.76926   0.06548   0.35185   0.00000  Uiso   1.00
O220   O     0.71449   0.04956   0.32051   0.00000  Uiso   1.00
N221   N     0.90813   0.04328   0.17669   0.00000  Uiso   1.00
O222   O     0.95452   0.03690   0.16643   0.00000  Uiso   1.00
O223   O     0.89503   0.06896   0.15172   0.00000  Uiso   1.00
N224   N     0.75907   0.29014   0.32319   0.00000  Uiso   1.00
O225   O     0.71260   0.29575   0.33321   0.00000  Uiso   1.00
O226   O     0.77260   0.26541   0.34869   0.00000  Uiso   1.00
H227   H     0.97657   0.11589   0.20237   0.00000  Uiso   1.00
H228   H     0.69012   0.21750   0.29756   0.00000  Uiso   1.00
N229   N     0.73517   0.10784   0.19543   0.00000  Uiso   1.00
O230   O     0.75834   0.11459   0.15118   0.00000  Uiso   1.00
O231   O     0.73216   0.06975   0.21044   0.00000  Uiso   1.00
N232   N     0.93143   0.22539   0.30471   0.00000  Uiso   1.00
O233   O     0.90822   0.21846   0.34892   0.00000  Uiso   1.00
O234   O     0.93439   0.26353   0.28988   0.00000  Uiso   1.00
O235   O     0.12846   0.56108   0.25000   0.00000  Uiso   1.00
O236   O     0.20488   0.43892   0.24999   0.00000  Uiso   1.00
O237   O     0.20490   0.56107   0.25000   0.00000  Uiso   1.00
O238   O     0.12843   0.43893   0.25000   0.00000  Uiso   1.00
C239   C     0.16677   0.57986   0.25026   0.00000  Uiso   1.00
C240   C     0.16664   0.42015   0.24956   0.00000  Uiso   1.00
O241   O     0.10661   0.50001   0.31612   0.00000  Uiso   1.00
O242   O     0.22672   0.49999   0.18387   0.00000  Uiso   1.00
O243   O     0.18305   0.50000   0.31612   0.00000  Uiso   1.00
O244   O     0.15028   0.50000   0.18388   0.00000  Uiso   1.00
C245   C     0.13554   0.49958   0.33812   0.00000  Uiso   1.00
C246   C     0.19773   0.50059   0.16188   0.00000  Uiso   1.00
Zn247  Zn    0.11562   0.50001   0.25000   0.00000  Uiso   1.00
Zn248  Zn    0.21771   0.49999   0.25000   0.00000  Uiso   1.00
C249   C     0.11498   0.50109   0.38919   0.00000  Uiso   1.00
C250   C     0.21817   0.50071   0.11079   0.00000  Uiso   1.00
C251   C     0.05807   0.52871   0.46297   0.00000  Uiso   1.00
C252   C     0.27774   0.47884   0.03554   0.00000  Uiso   1.00
C253   C     0.06840   0.51804   0.41647   0.00000  Uiso   1.00
C254   C     0.26606   0.48697   0.08279   0.00000  Uiso   1.00
C255   C     0.14692   0.49045   0.41025   0.00000  Uiso   1.00
C256   C     0.18575   0.51091   0.09004   0.00000  Uiso   1.00
C257   C     0.13819   0.50273   0.45598   0.00000  Uiso   1.00
C258   C     0.19708   0.50348   0.04274   0.00000  Uiso   1.00
C259   C     0.09292   0.52240   0.48228   0.00000  Uiso   1.00
C260   C     0.24329   0.48572   0.01588   0.00000  Uiso   1.00
C261   C     0.17380   0.49732   0.47561   0.00000  Uiso   1.00
C262   C     0.16255   0.51082   0.02229   0.00000  Uiso   1.00
C263   C     0.11726   0.53126   0.04692   0.00000  Uiso   1.00
C264   C     0.22057   0.47960   0.44998   0.00000  Uiso   1.00
C265   C     0.08311   0.53648   0.02732   0.00000  Uiso   1.00
C266   C     0.25449   0.47420   0.46984   0.00000  Uiso   1.00
C267   C     0.20536   0.64467   0.21529   0.00000  Uiso   1.00
C268   C     0.12813   0.35534   0.28437   0.00000  Uiso   1.00
C269   C     0.20490   0.35460   0.21432   0.00000  Uiso   1.00
C270   C     0.12864   0.64544   0.28534   0.00000  Uiso   1.00
C271   C     0.16634   0.37599   0.24910   0.00000  Uiso   1.00
C272   C     0.16714   0.62404   0.25058   0.00000  Uiso   1.00
C273   C     0.31975   0.47174   0.22354   0.00000  Uiso   1.00
C274   C     0.01359   0.52829   0.27642   0.00000  Uiso   1.00
C275   C     0.03430   0.47157   0.22347   0.00000  Uiso   1.00
C276   C     0.29903   0.52842   0.27655   0.00000  Uiso   1.00
N277   N     0.04759   0.50001   0.25001   0.00000  Uiso   1.00
N278   N     0.28574   0.49999   0.24999   0.00000  Uiso   1.00
H279   H     0.04905   0.55246   0.04733   0.00000  Uiso   1.00
H280   H     0.28939   0.45979   0.44934   0.00000  Uiso   1.00
H281   H     0.15027   0.52229   0.11254   0.00000  Uiso   1.00
H282   H     0.17972   0.47409   0.38891   0.00000  Uiso   1.00
N283   N     0.30270   0.48029   0.10140   0.00000  Uiso   1.00
O284   O     0.31584   0.51116   0.12173   0.00000  Uiso   1.00
O285   O     0.33036   0.44721   0.08886   0.00000  Uiso   1.00
N286   N     0.03184   0.52546   0.39787   0.00000  Uiso   1.00
O287   O     0.01830   0.49515   0.37716   0.00000  Uiso   1.00
O288   O     0.00473   0.55887   0.41051   0.00000  Uiso   1.00
H289   H     0.02300   0.54275   0.48388   0.00000  Uiso   1.00
H290   H     0.31370   0.46661   0.01420   0.00000  Uiso   1.00
H291   H     0.10712   0.54481   0.08118   0.00000  Uiso   1.00
H292   H     0.23289   0.46962   0.41417   0.00000  Uiso   1.00
N293   N     0.24230   0.62159   0.17867   0.00000  Uiso   1.00
O294   O     0.23109   0.60175   0.14741   0.00000  Uiso   1.00
O295   O     0.28529   0.61628   0.17982   0.00000  Uiso   1.00
N296   N     0.09119   0.37838   0.32106   0.00000  Uiso   1.00
O297   O     0.10259   0.39881   0.35185   0.00000  Uiso   1.00
O298   O     0.04782   0.38289   0.32051   0.00000  Uiso   1.00
N299   N     0.24146   0.37662   0.17669   0.00000  Uiso   1.00
O300   O     0.28785   0.37023   0.16643   0.00000  Uiso   1.00
O301   O     0.22836   0.40229   0.15172   0.00000  Uiso   1.00
N302   N     0.09240   0.62347   0.32319   0.00000  Uiso   1.00
O303   O     0.04593   0.62908   0.33321   0.00000  Uiso   1.00
O304   O     0.10593   0.59874   0.34869   0.00000  Uiso   1.00
H305   H     0.30990   0.44922   0.20237   0.00000  Uiso   1.00
H306   H     0.02345   0.55083   0.29756   0.00000  Uiso   1.00
N307   N     0.06851   0.44117   0.19543   0.00000  Uiso   1.00
O308   O     0.09167   0.44792   0.15118   0.00000  Uiso   1.00
O309   O     0.06549   0.40309   0.21044   0.00000  Uiso   1.00
N310   N     0.26476   0.55872   0.30471   0.00000  Uiso   1.00
O311   O     0.24155   0.55179   0.34892   0.00000  Uiso   1.00
O312   O     0.26772   0.59687   0.28988   0.00000  Uiso   1.00
O313   O     0.46179   0.56108   0.25000   0.00000  Uiso   1.00
O314   O     0.53821   0.43892   0.24999   0.00000  Uiso   1.00
O315   O     0.53823   0.56107   0.25000   0.00000  Uiso   1.00
O316   O     0.46177   0.43893   0.25000   0.00000  Uiso   1.00
C317   C     0.50010   0.57986   0.25026   0.00000  Uiso   1.00
C318   C     0.49998   0.42015   0.24956   0.00000  Uiso   1.00
O319   O     0.43994   0.50001   0.31612   0.00000  Uiso   1.00
O320   O     0.56006   0.49999   0.18387   0.00000  Uiso   1.00
O321   O     0.51639   0.50000   0.31612   0.00000  Uiso   1.00
O322   O     0.48361   0.50000   0.18388   0.00000  Uiso   1.00
C323   C     0.46888   0.49958   0.33812   0.00000  Uiso   1.00
C324   C     0.53107   0.50059   0.16188   0.00000  Uiso   1.00
Zn325  Zn    0.44896   0.50001   0.25000   0.00000  Uiso   1.00
Zn326  Zn    0.55104   0.49999   0.25000   0.00000  Uiso   1.00
C327   C     0.44831   0.50109   0.38919   0.00000  Uiso   1.00
C328   C     0.55150   0.50071   0.11079   0.00000  Uiso   1.00
C329   C     0.39140   0.52871   0.46297   0.00000  Uiso   1.00
C330   C     0.61108   0.47884   0.03554   0.00000  Uiso   1.00
C331   C     0.40174   0.51804   0.41647   0.00000  Uiso   1.00
C332   C     0.59940   0.48697   0.08279   0.00000  Uiso   1.00
C333   C     0.48025   0.49045   0.41025   0.00000  Uiso   1.00
C334   C     0.51908   0.51091   0.09004   0.00000  Uiso   1.00
C335   C     0.47152   0.50273   0.45598   0.00000  Uiso   1.00
C336   C     0.53041   0.50348   0.04274   0.00000  Uiso   1.00
C337   C     0.42626   0.52240   0.48228   0.00000  Uiso   1.00
C338   C     0.57662   0.48572   0.01588   0.00000  Uiso   1.00
C339   C     0.50713   0.49732   0.47561   0.00000  Uiso   1.00
C340   C     0.49589   0.51082   0.02229   0.00000  Uiso   1.00
C341   C     0.45060   0.53126   0.04692   0.00000  Uiso   1.00
C342   C     0.55390   0.47960   0.44998   0.00000  Uiso   1.00
C343   C     0.41644   0.53648   0.02732   0.00000  Uiso   1.00
C344   C     0.58783   0.47420   0.46984   0.00000  Uiso   1.00
C345   C     0.53869   0.64467   0.21529   0.00000  Uiso   1.00
C346   C     0.46146   0.35534   0.28437   0.00000  Uiso   1.00
C347   C     0.53823   0.35460   0.21432   0.00000  Uiso   1.00
C348   C     0.46198   0.64544   0.28534   0.00000  Uiso   1.00
C349   C     0.49967   0.37599   0.24910   0.00000  Uiso   1.00
C350   C     0.50048   0.62404   0.25058   0.00000  Uiso   1.00
C351   C     0.65309   0.47174   0.22354   0.00000  Uiso   1.00
C352   C     0.34693   0.52829   0.27642   0.00000  Uiso   1.00
C353   C     0.36763   0.47157   0.22347   0.00000  Uiso   1.00
C354   C     0.63236   0.52842   0.27655   0.00000  Uiso   1.00
N355   N     0.38093   0.50001   0.25001   0.00000  Uiso   1.00
N356   N     0.61907   0.49999   0.24999   0.00000  Uiso   1.00
H357   H     0.38239   0.55246   0.04733   0.00000  Uiso   1.00
H358   H     0.62272   0.45979   0.44934   0.00000  Uiso   1.00
H359   H     0.48360   0.52229   0.11254   0.00000  Uiso   1.00
H360   H     0.51305   0.47409   0.38891   0.00000  Uiso   1.00
N361   N     0.63603   0.48029   0.10140   0.00000  Uiso   1.00
O362   O     0.64917   0.51116   0.12173   0.00000  Uiso   1.00
O363   O     0.66369   0.44721   0.08886   0.00000  Uiso   1.00
N364   N     0.36517   0.52546   0.39787   0.00000  Uiso   1.00
O365   O     0.35163   0.49515   0.37716   0.00000  Uiso   1.00
O366   O     0.33806   0.55887   0.41051   0.00000  Uiso   1.00
H367   H     0.35633   0.54275   0.48388   0.00000  Uiso   1.00
H368   H     0.64703   0.46661   0.01420   0.00000  Uiso   1.00
H369   H     0.44046   0.54481   0.08118   0.00000  Uiso   1.00
H370   H     0.56622   0.46962   0.41417   0.00000  Uiso   1.00
N371   N     0.57563   0.62159   0.17867   0.00000  Uiso   1.00
O372   O     0.56443   0.60175   0.14741   0.00000  Uiso   1.00
O373   O     0.61863   0.61628   0.17982   0.00000  Uiso   1.00
N374   N     0.42453   0.37838   0.32106   0.00000  Uiso   1.00
O375   O     0.43592   0.39881   0.35185   0.00000  Uiso   1.00
O376   O     0.38116   0.38289   0.32051   0.00000  Uiso   1.00
N377   N     0.57480   0.37662   0.17669   0.00000  Uiso   1.00
O378   O     0.62118   0.37023   0.16643   0.00000  Uiso   1.00
O379   O     0.56169   0.40229   0.15172   0.00000  Uiso   1.00
N380   N     0.42574   0.62347   0.32319   0.00000  Uiso   1.00
O381   O     0.37927   0.62908   0.33321   0.00000  Uiso   1.00
O382   O     0.43926   0.59874   0.34869   0.00000  Uiso   1.00
H383   H     0.64324   0.44922   0.20237   0.00000  Uiso   1.00
H384   H     0.35678   0.55083   0.29756   0.00000  Uiso   1.00
N385   N     0.40184   0.44117   0.19543   0.00000  Uiso   1.00
O386   O     0.42501   0.44792   0.15118   0.00000  Uiso   1.00
O387   O     0.39883   0.40309   0.21044   0.00000  Uiso   1.00
N388   N     0.59810   0.55872   0.30471   0.00000  Uiso   1.00
O389   O     0.57489   0.55179   0.34892   0.00000  Uiso   1.00
O390   O     0.60105   0.59687   0.28988   0.00000  Uiso   1.00
O391   O     0.79512   0.56108   0.25000   0.00000  Uiso   1.00
O392   O     0.87154   0.43892   0.24999   0.00000  Uiso   1.00
O393   O     0.87157   0.56107   0.25000   0.00000  Uiso   1.00
O394   O     0.79510   0.43893   0.25000   0.00000  Uiso   1.00
C395   C     0.83344   0.57986   0.25026   0.00000  Uiso   1.00
C396   C     0.83331   0.42015   0.24956   0.00000  Uiso   1.00
O397   O     0.77328   0.50001   0.31612   0.00000  Uiso   1.00
O398   O     0.89339   0.49999   0.18387   0.00000  Uiso   1.00
O399   O     0.84972   0.50000   0.31612   0.00000  Uiso   1.00
O400   O     0.81695   0.50000   0.18388   0.00000  Uiso   1.00
C401   C     0.80221   0.49958   0.33812   0.00000  Uiso   1.00
C402   C     0.86440   0.50059   0.16188   0.00000  Uiso   1.00
Zn403  Zn    0.78229   0.50001   0.25000   0.00000  Uiso   1.00
Zn404  Zn    0.88438   0.49999   0.25000   0.00000  Uiso   1.00
C405   C     0.78164   0.50109   0.38919   0.00000  Uiso   1.00
C406   C     0.88483   0.50071   0.11079   0.00000  Uiso   1.00
C407   C     0.72474   0.52871   0.46297   0.00000  Uiso   1.00
C408   C     0.94441   0.47884   0.03554   0.00000  Uiso   1.00
C409   C     0.73507   0.51804   0.41647   0.00000  Uiso   1.00
C410   C     0.93273   0.48697   0.08279   0.00000  Uiso   1.00
C411   C     0.81358   0.49045   0.41025   0.00000  Uiso   1.00
C412   C     0.85241   0.51091   0.09004   0.00000  Uiso   1.00
C413   C     0.80486   0.50273   0.45598   0.00000  Uiso   1.00
C414   C     0.86374   0.50348   0.04274   0.00000  Uiso   1.00
C415   C     0.75959   0.52240   0.48228   0.00000  Uiso   1.00
C416   C     0.90996   0.48572   0.01588   0.00000  Uiso   1.00
C417   C     0.84047   0.49732   0.47561   0.00000  Uiso   1.00
C418   C     0.82922   0.51082   0.02229   0.00000  Uiso   1.00
C419   C     0.78393   0.53126   0.04692   0.00000  Uiso   1.00
C420   C     0.88724   0.47960   0.44998   0.00000  Uiso   1.00
C421   C     0.74978   0.53648   0.02732   0.00000  Uiso   1.00
C422   C     0.92116   0.47420   0.46984   0.00000  Uiso   1.00
C423   C     0.87203   0.64467   0.21529   0.00000  Uiso   1.00
C424   C     0.79480   0.35534   0.28437   0.00000  Uiso   1.00
C425   C     0.87156   0.35460   0.21432   0.00000  Uiso   1.00
C426   C     0.79531   0.64544   0.28534   0.00000  Uiso   1.00
C427   C     0.83301   0.37599   0.24910   0.00000  Uiso   1.00
C428   C     0.83381   0.62404   0.25058   0.00000  Uiso   1.00
C429   C     0.98642   0.47174   0.22354   0.00000  Uiso   1.00
C430   C     0.68026   0.52829   0.27642   0.00000  Uiso   1.00
C431   C     0.70096   0.47157   0.22347   0.00000  Uiso   1.00
C432   C     0.96569   0.52842   0.27655   0.00000  Uiso   1.00
N433   N     0.71426   0.50001   0.25001   0.00000  Uiso   1.00
N434   N     0.95241   0.49999   0.24999   0.00000  Uiso   1.00
H435   H     0.71572   0.55246   0.04733   0.00000  Uiso   1.00
H436   H     0.95606   0.45979   0.44934   0.00000  Uiso   1.00
H437   H     0.81693   0.52229   0.11254   0.00000  Uiso   1.00
H438   H     0.84638   0.47409   0.38891   0.00000  Uiso   1.00
N439   N     0.96936   0.48029   0.10140   0.00000  Uiso   1.00
O440   O     0.98251   0.51116   0.12173   0.00000  Uiso   1.00
O441   O     0.99702   0.44721   0.08886   0.00000  Uiso   1.00
N442   N     0.69851   0.52546   0.39787   0.00000  Uiso   1.00
O443   O     0.68496   0.49515   0.37716   0.00000  Uiso   1.00
O444   O     0.67140   0.55887   0.41051   0.00000  Uiso   1.00
H445   H     0.68967   0.54275   0.48388   0.00000  Uiso   1.00
H446   H     0.98037   0.46661   0.01420   0.00000  Uiso   1.00
H447   H     0.77379   0.54481   0.08118   0.00000  Uiso   1.00
H448   H     0.89955   0.46962   0.41417   0.00000  Uiso   1.00
N449   N     0.90896   0.62159   0.17867   0.00000  Uiso   1.00
O450   O     0.89776   0.60175   0.14741   0.00000  Uiso   1.00
O451   O     0.95196   0.61628   0.17982   0.00000  Uiso   1.00
N452   N     0.75786   0.37838   0.32106   0.00000  Uiso   1.00
O453   O     0.76926   0.39881   0.35185   0.00000  Uiso   1.00
O454   O     0.71449   0.38289   0.32051   0.00000  Uiso   1.00
N455   N     0.90813   0.37662   0.17669   0.00000  Uiso   1.00
O456   O     0.95452   0.37023   0.16643   0.00000  Uiso   1.00
O457   O     0.89503   0.40229   0.15172   0.00000  Uiso   1.00
N458   N     0.75907   0.62347   0.32319   0.00000  Uiso   1.00
O459   O     0.71260   0.62908   0.33321   0.00000  Uiso   1.00
O460   O     0.77260   0.59874   0.34869   0.00000  Uiso   1.00
H461   H     0.97657   0.44922   0.20237   0.00000  Uiso   1.00
H462   H     0.69012   0.55083   0.29756   0.00000  Uiso   1.00
N463   N     0.73517   0.44117   0.19543   0.00000  Uiso   1.00
O464   O     0.75834   0.44792   0.15118   0.00000  Uiso   1.00
O465   O     0.73216   0.40309   0.21044   0.00000  Uiso   1.00
N466   N     0.93143   0.55872   0.30471   0.00000  Uiso   1.00
O467   O     0.90822   0.55179   0.34892   0.00000  Uiso   1.00
O468   O     0.93439   0.59687   0.28988   0.00000  Uiso   1.00
O469   O     0.12846   0.89442   0.25000   0.00000  Uiso   1.00
O470   O     0.20488   0.77225   0.24999   0.00000  Uiso   1.00
O471   O     0.20490   0.89441   0.25000   0.00000  Uiso   1.00
O472   O     0.12843   0.77226   0.25000   0.00000  Uiso   1.00
C473   C     0.16677   0.91320   0.25026   0.00000  Uiso   1.00
C474   C     0.16664   0.75348   0.24956   0.00000  Uiso   1.00
O475   O     0.10661   0.83334   0.31612   0.00000  Uiso   1.00
O476   O     0.22672   0.83333   0.18387   0.00000  Uiso   1.00
O477   O     0.18305   0.83333   0.31612   0.00000  Uiso   1.00
O478   O     0.15028   0.83334   0.18388   0.00000  Uiso   1.00
C479   C     0.13554   0.83291   0.33812   0.00000  Uiso   1.00
C480   C     0.19773   0.83392   0.16188   0.00000  Uiso   1.00
Zn481  Zn    0.11562   0.83334   0.25000   0.00000  Uiso   1.00
Zn482  Zn    0.21771   0.83333   0.25000   0.00000  Uiso   1.00
C483   C     0.11498   0.83442   0.38919   0.00000  Uiso   1.00
C484   C     0.21817   0.83404   0.11079   0.00000  Uiso   1.00
C485   C     0.05807   0.86204   0.46297   0.00000  Uiso   1.00
C486   C     0.27774   0.81217   0.03554   0.00000  Uiso   1.00
C487   C     0.06840   0.85138   0.41647   0.00000  Uiso   1.00
C488   C     0.26606   0.82030   0.08279   0.00000  Uiso   1.00
C489   C     0.14692   0.82378   0.41025   0.00000  Uiso   1.00
C490   C     0.18575   0.84424   0.09004   0.00000  Uiso   1.00
C491   C     0.13819   0.83606   0.45598   0.00000  Uiso   1.00
C492   C     0.19708   0.83682   0.04274   0.00000  Uiso   1.00
C493   C     0.09292   0.85573   0.48228   0.00000  Uiso   1.00
C494   C     0.24329   0.81905   0.01588   0.00000  Uiso   1.00
C495   C     0.17380   0.83065   0.47561   0.00000  Uiso   1.00
C496   C     0.16255   0.84415   0.02229   0.00000  Uiso   1.00
C497   C     0.11726   0.86460   0.04692   0.00000  Uiso   1.00
C498   C     0.22057   0.81294   0.44998   0.00000  Uiso   1.00
C499   C     0.08311   0.86981   0.02732   0.00000  Uiso   1.00
C500   C     0.25449   0.80754   0.46984   0.00000  Uiso   1.00
C501   C     0.20536   0.97801   0.21529   0.00000  Uiso   1.00
C502   C     0.12813   0.68868   0.28437   0.00000  Uiso   1.00
C503   C     0.20490   0.68793   0.21432   0.00000  Uiso   1.00
C504   C     0.12864   0.97878   0.28534   0.00000  Uiso   1.00
C505   C     0.16634   0.70932   0.24910   0.00000  Uiso   1.00
C506   C     0.16714   0.95737   0.25058   0.00000  Uiso   1.00
C507   C     0.31975   0.80507   0.22354   0.00000  Uiso   1.00
C508   C     0.01359   0.86162   0.27642   0.00000  Uiso   1.00
C509   C     0.03430   0.80490   0.22347   0.00000  Uiso   1.00
C510   C     0.29903   0.86175   0.27655   0.00000  Uiso   1.00
N511   N     0.04759   0.83334   0.25001   0.00000  Uiso   1.00
N512   N     0.28574   0.83332   0.24999   0.00000  Uiso   1.00
H513   H     0.04905   0.88579   0.04733   0.00000  Uiso   1.00
H514   H     0.28939   0.79312   0.44934   0.00000  Uiso   1.00
H515   H     0.15027   0.85562   0.11254   0.00000  Uiso   1.00
H516   H     0.17972   0.80742   0.38891   0.00000  Uiso   1.00
N517   N     0.30270   0.81362   0.10140   0.00000  Uiso   1.00
O518   O     0.31584   0.84449   0.12173   0.00000  Uiso   1.00
O519   O     0.33036   0.78054   0.08886   0.00000  Uiso   1.00
N520   N     0.03184   0.85880   0.39787   0.00000  Uiso   1.00
O521   O     0.01830   0.82849   0.37716   0.00000  Uiso   1.00
O522   O     0.00473   0.89220   0.41051   0.00000  Uiso   1.00
H523   H     0.02300   0.87608   0.48388   0.00000  Uiso   1.00
H524   H     0.31370   0.79995   0.01420   0.00000  Uiso   1.00
H525   H     0.10712   0.87815   0.08118   0.00000  Uiso   1.00
H526   H     0.23289   0.80295   0.41417   0.00000  Uiso   1.00
N527   N     0.24230   0.95493   0.17867   0.00000  Uiso   1.00
O528   O     0.23109   0.93509   0.14741   0.00000  Uiso   1.00
O529   O     0.28529   0.94961   0.17982   0.00000  Uiso   1.00
N530   N     0.09119   0.71172   0.32106   0.00000  Uiso   1.00
O531   O     0.10259   0.73215   0.35185   0.00000  Uiso   1.00
O532   O     0.04782   0.71623   0.32051   0.00000  Uiso   1.00
N533   N     0.24146   0.70995   0.17669   0.00000  Uiso   1.00
O534   O     0.28785   0.70356   0.16643   0.00000  Uiso   1.00
O535   O     0.22836   0.73563   0.15172   0.00000  Uiso   1.00
N536   N     0.09240   0.95680   0.32319   0.00000  Uiso   1.00
O537   O     0.04593   0.96242   0.33321   0.00000  Uiso   1.00
O538   O     0.10593   0.93207   0.34869   0.00000  Uiso   1.00
H539   H     0.30990   0.78255   0.20237   0.00000  Uiso   1.00
H540   H     0.02345   0.88417   0.29756   0.00000  Uiso   1.00
N541   N     0.06851   0.77450   0.19543   0.00000  Uiso   1.00
O542   O     0.09167   0.78125   0.15118   0.00000  Uiso   1.00
O543   O     0.06549   0.73642   0.21044   0.00000  Uiso   1.00
N544   N     0.26476   0.89206   0.30471   0.00000  Uiso   1.00
O545   O     0.24155   0.88512   0.34892   0.00000  Uiso   1.00
O546   O     0.26772   0.93020   0.28988   0.00000  Uiso   1.00
O547   O     0.46179   0.89442   0.25000   0.00000  Uiso   1.00
O548   O     0.53821   0.77225   0.24999   0.00000  Uiso   1.00
O549   O     0.53823   0.89441   0.25000   0.00000  Uiso   1.00
O550   O     0.46177   0.77226   0.25000   0.00000  Uiso   1.00
C551   C     0.50010   0.91320   0.25026   0.00000  Uiso   1.00
C552   C     0.49998   0.75348   0.24956   0.00000  Uiso   1.00
O553   O     0.43994   0.83334   0.31612   0.00000  Uiso   1.00
O554   O     0.56006   0.83333   0.18387   0.00000  Uiso   1.00
O555   O     0.51639   0.83333   0.31612   0.00000  Uiso   1.00
O556   O     0.48361   0.83334   0.18388   0.00000  Uiso   1.00
C557   C     0.46888   0.83291   0.33812   0.00000  Uiso   1.00
C558   C     0.53107   0.83392   0.16188   0.00000  Uiso   1.00
Zn559  Zn    0.44896   0.83334   0.25000   0.00000  Uiso   1.00
Zn560  Zn    0.55104   0.83333   0.25000   0.00000  Uiso   1.00
C561   C     0.44831   0.83442   0.38919   0.00000  Uiso   1.00
C562   C     0.55150   0.83404   0.11079   0.00000  Uiso   1.00
C563   C     0.39140   0.86204   0.46297   0.00000  Uiso   1.00
C564   C     0.61108   0.81217   0.03554   0.00000  Uiso   1.00
C565   C     0.40174   0.85138   0.41647   0.00000  Uiso   1.00
C566   C     0.59940   0.82030   0.08279   0.00000  Uiso   1.00
C567   C     0.48025   0.82378   0.41025   0.00000  Uiso   1.00
C568   C     0.51908   0.84424   0.09004   0.00000  Uiso   1.00
C569   C     0.47152   0.83606   0.45598   0.00000  Uiso   1.00
C570   C     0.53041   0.83682   0.04274   0.00000  Uiso   1.00
C571   C     0.42626   0.85573   0.48228   0.00000  Uiso   1.00
C572   C     0.57662   0.81905   0.01588   0.00000  Uiso   1.00
C573   C     0.50713   0.83065   0.47561   0.00000  Uiso   1.00
C574   C     0.49589   0.84415   0.02229   0.00000  Uiso   1.00
C575   C     0.45060   0.86460   0.04692   0.00000  Uiso   1.00
C576   C     0.55390   0.81294   0.44998   0.00000  Uiso   1.00
C577   C     0.41644   0.86981   0.02732   0.00000  Uiso   1.00
C578   C     0.58783   0.80754   0.46984   0.00000  Uiso   1.00
C579   C     0.53869   0.97801   0.21529   0.00000  Uiso   1.00
C580   C     0.46146   0.68868   0.28437   0.00000  Uiso   1.00
C581   C     0.53823   0.68793   0.21432   0.00000  Uiso   1.00
C582   C     0.46198   0.97878   0.28534   0.00000  Uiso   1.00
C583   C     0.49967   0.70932   0.24910   0.00000  Uiso   1.00
C584   C     0.50048   0.95737   0.25058   0.00000  Uiso   1.00
C585   C     0.65309   0.80507   0.22354   0.00000  Uiso   1.00
C586   C     0.34693   0.86162   0.27642   0.00000  Uiso   1.00
C587   C     0.36763   0.80490   0.22347   0.00000  Uiso   1.00
C588   C     0.63236   0.86175   0.27655   0.00000  Uiso   1.00
N589   N     0.38093   0.83334   0.25001   0.00000  Uiso   1.00
N590   N     0.61907   0.83332   0.24999   0.00000  Uiso   1.00
H591   H     0.38239   0.88579   0.04733   0.00000  Uiso   1.00
H592   H     0.62272   0.79312   0.44934   0.00000  Uiso   1.00
H593   H     0.48360   0.85562   0.11254   0.00000  Uiso   1.00
H594   H     0.51305   0.80742   0.38891   0.00000  Uiso   1.00
N595   N     0.63603   0.81362   0.10140   0.00000  Uiso   1.00
O596   O     0.64917   0.84449   0.12173   0.00000  Uiso   1.00
O597   O     0.66369   0.78054   0.08886   0.00000  Uiso   1.00
N598   N     0.36517   0.85880   0.39787   0.00000  Uiso   1.00
O599   O     0.35163   0.82849   0.37716   0.00000  Uiso   1.00
O600   O     0.33806   0.89220   0.41051   0.00000  Uiso   1.00
H601   H     0.35633   0.87608   0.48388   0.00000  Uiso   1.00
H602   H     0.64703   0.79995   0.01420   0.00000  Uiso   1.00
H603   H     0.44046   0.87815   0.08118   0.00000  Uiso   1.00
H604   H     0.56622   0.80295   0.41417   0.00000  Uiso   1.00
N605   N     0.57563   0.95493   0.17867   0.00000  Uiso   1.00
O606   O     0.56443   0.93509   0.14741   0.00000  Uiso   1.00
O607   O     0.61863   0.94961   0.17982   0.00000  Uiso   1.00
N608   N     0.42453   0.71172   0.32106   0.00000  Uiso   1.00
O609   O     0.43592   0.73215   0.35185   0.00000  Uiso   1.00
O610   O     0.38116   0.71623   0.32051   0.00000  Uiso   1.00
N611   N     0.57480   0.70995   0.17669   0.00000  Uiso   1.00
O612   O     0.62118   0.70356   0.16643   0.00000  Uiso   1.00
O613   O     0.56169   0.73563   0.15172   0.00000  Uiso   1.00
N614   N     0.42574   0.95680   0.32319   0.00000  Uiso   1.00
O615   O     0.37927   0.96242   0.33321   0.00000  Uiso   1.00
O616   O     0.43926   0.93207   0.34869   0.00000  Uiso   1.00
H617   H     0.64324   0.78255   0.20237   0.00000  Uiso   1.00
H618   H     0.35678   0.88417   0.29756   0.00000  Uiso   1.00
N619   N     0.40184   0.77450   0.19543   0.00000  Uiso   1.00
O620   O     0.42501   0.78125   0.15118   0.00000  Uiso   1.00
O621   O     0.39883   0.73642   0.21044   0.00000  Uiso   1.00
N622   N     0.59810   0.89206   0.30471   0.00000  Uiso   1.00
O623   O     0.57489   0.88512   0.34892   0.00000  Uiso   1.00
O624   O     0.60105   0.93020   0.28988   0.00000  Uiso   1.00
O625   O     0.79512   0.89442   0.25000   0.00000  Uiso   1.00
O626   O     0.87154   0.77225   0.24999   0.00000  Uiso   1.00
O627   O     0.87157   0.89441   0.25000   0.00000  Uiso   1.00
O628   O     0.79510   0.77226   0.25000   0.00000  Uiso   1.00
C629   C     0.83344   0.91320   0.25026   0.00000  Uiso   1.00
C630   C     0.83331   0.75348   0.24956   0.00000  Uiso   1.00
O631   O     0.77328   0.83334   0.31612   0.00000  Uiso   1.00
O632   O     0.89339   0.83333   0.18387   0.00000  Uiso   1.00
O633   O     0.84972   0.83333   0.31612   0.00000  Uiso   1.00
O634   O     0.81695   0.83334   0.18388   0.00000  Uiso   1.00
C635   C     0.80221   0.83291   0.33812   0.00000  Uiso   1.00
C636   C     0.86440   0.83392   0.16188   0.00000  Uiso   1.00
Zn637  Zn    0.78229   0.83334   0.25000   0.00000  Uiso   1.00
Zn638  Zn    0.88438   0.83333   0.25000   0.00000  Uiso   1.00
C639   C     0.78164   0.83442   0.38919   0.00000  Uiso   1.00
C640   C     0.88483   0.83404   0.11079   0.00000  Uiso   1.00
C641   C     0.72474   0.86204   0.46297   0.00000  Uiso   1.00
C642   C     0.94441   0.81217   0.03554   0.00000  Uiso   1.00
C643   C     0.73507   0.85138   0.41647   0.00000  Uiso   1.00
C644   C     0.93273   0.82030   0.08279   0.00000  Uiso   1.00
C645   C     0.81358   0.82378   0.41025   0.00000  Uiso   1.00
C646   C     0.85241   0.84424   0.09004   0.00000  Uiso   1.00
C647   C     0.80486   0.83606   0.45598   0.00000  Uiso   1.00
C648   C     0.86374   0.83682   0.04274   0.00000  Uiso   1.00
C649   C     0.75959   0.85573   0.48228   0.00000  Uiso   1.00
C650   C     0.90996   0.81905   0.01588   0.00000  Uiso   1.00
C651   C     0.84047   0.83065   0.47561   0.00000  Uiso   1.00
C652   C     0.82922   0.84415   0.02229   0.00000  Uiso   1.00
C653   C     0.78393   0.86460   0.04692   0.00000  Uiso   1.00
C654   C     0.88724   0.81294   0.44998   0.00000  Uiso   1.00
C655   C     0.74978   0.86981   0.02732   0.00000  Uiso   1.00
C656   C     0.92116   0.80754   0.46984   0.00000  Uiso   1.00
C657   C     0.87203   0.97801   0.21529   0.00000  Uiso   1.00
C658   C     0.79480   0.68868   0.28437   0.00000  Uiso   1.00
C659   C     0.87156   0.68793   0.21432   0.00000  Uiso   1.00
C660   C     0.79531   0.97878   0.28534   0.00000  Uiso   1.00
C661   C     0.83301   0.70932   0.24910   0.00000  Uiso   1.00
C662   C     0.83381   0.95737   0.25058   0.00000  Uiso   1.00
C663   C     0.98642   0.80507   0.22354   0.00000  Uiso   1.00
C664   C     0.68026   0.86162   0.27642   0.00000  Uiso   1.00
C665   C     0.70096   0.80490   0.22347   0.00000  Uiso   1.00
C666   C     0.96569   0.86175   0.27655   0.00000  Uiso   1.00
N667   N     0.71426   0.83334   0.25001   0.00000  Uiso   1.00
N668   N     0.95241   0.83332   0.24999   0.00000  Uiso   1.00
H669   H     0.71572   0.88579   0.04733   0.00000  Uiso   1.00
H670   H     0.95606   0.79312   0.44934   0.00000  Uiso   1.00
H671   H     0.81693   0.85562   0.11254   0.00000  Uiso   1.00
H672   H     0.84638   0.80742   0.38891   0.00000  Uiso   1.00
N673   N     0.96936   0.81362   0.10140   0.00000  Uiso   1.00
O674   O     0.98251   0.84449   0.12173   0.00000  Uiso   1.00
O675   O     0.99702   0.78054   0.08886   0.00000  Uiso   1.00
N676   N     0.69851   0.85880   0.39787   0.00000  Uiso   1.00
O677   O     0.68496   0.82849   0.37716   0.00000  Uiso   1.00
O678   O     0.67140   0.89220   0.41051   0.00000  Uiso   1.00
H679   H     0.68967   0.87608   0.48388   0.00000  Uiso   1.00
H680   H     0.98037   0.79995   0.01420   0.00000  Uiso   1.00
H681   H     0.77379   0.87815   0.08118   0.00000  Uiso   1.00
H682   H     0.89955   0.80295   0.41417   0.00000  Uiso   1.00
N683   N     0.90896   0.95493   0.17867   0.00000  Uiso   1.00
O684   O     0.89776   0.93509   0.14741   0.00000  Uiso   1.00
O685   O     0.95196   0.94961   0.17982   0.00000  Uiso   1.00
N686   N     0.75786   0.71172   0.32106   0.00000  Uiso   1.00
O687   O     0.76926   0.73215   0.35185   0.00000  Uiso   1.00
O688   O     0.71449   0.71623   0.32051   0.00000  Uiso   1.00
N689   N     0.90813   0.70995   0.17669   0.00000  Uiso   1.00
O690   O     0.95452   0.70356   0.16643   0.00000  Uiso   1.00
O691   O     0.89503   0.73563   0.15172   0.00000  Uiso   1.00
N692   N     0.75907   0.95680   0.32319   0.00000  Uiso   1.00
O693   O     0.71260   0.96242   0.33321   0.00000  Uiso   1.00
O694   O     0.77260   0.93207   0.34869   0.00000  Uiso   1.00
H695   H     0.97657   0.78255   0.20237   0.00000  Uiso   1.00
H696   H     0.69012   0.88417   0.29756   0.00000  Uiso   1.00
N697   N     0.73517   0.77450   0.19543   0.00000  Uiso   1.00
O698   O     0.75834   0.78125   0.15118   0.00000  Uiso   1.00
O699   O     0.73216   0.73642   0.21044   0.00000  Uiso   1.00
N700   N     0.93143   0.89206   0.30471   0.00000  Uiso   1.00
O701   O     0.90822   0.88512   0.34892   0.00000  Uiso   1.00
O702   O     0.93439   0.93020   0.28988   0.00000  Uiso   1.00
O703   O     0.12846   0.22775   0.75000   0.00000  Uiso   1.00
O704   O     0.20488   0.10558   0.74999   0.00000  Uiso   1.00
O705   O     0.20490   0.22774   0.75000   0.00000  Uiso   1.00
O706   O     0.12843   0.10559   0.75000   0.00000  Uiso   1.00
C707   C     0.16677   0.24653   0.75026   0.00000  Uiso   1.00
C708   C     0.16664   0.08681   0.74956   0.00000  Uiso   1.00
O709   O     0.10661   0.16667   0.81612   0.00000  Uiso   1.00
O710   O     0.22672   0.16666   0.68387   0.00000  Uiso   1.00
O711   O     0.18305   0.16666   0.81612   0.00000  Uiso   1.00
O712   O     0.15028   0.16667   0.68388   0.00000  Uiso   1.00
C713   C     0.13554   0.16625   0.83812   0.00000  Uiso   1.00
C714   C     0.19773   0.16726   0.66188   0.00000  Uiso   1.00
Zn715  Zn    0.11562   0.16667   0.75000   0.00000  Uiso   1.00
Zn716  Zn    0.21771   0.16666   0.75000   0.00000  Uiso   1.00
C717   C     0.11498   0.16776   0.88919   0.00000  Uiso   1.00
C718   C     0.21817   0.16738   0.61079   0.00000  Uiso   1.00
C719   C     0.05807   0.19537   0.96297   0.00000  Uiso   1.00
C720   C     0.27774   0.14550   0.53554   0.00000  Uiso   1.00
C721   C     0.06840   0.18471   0.91647   0.00000  Uiso   1.00
C722   C     0.26606   0.15364   0.58279   0.00000  Uiso   1.00
C723   C     0.14692   0.15711   0.91025   0.00000  Uiso   1.00
C724   C     0.18575   0.17758   0.59004   0.00000  Uiso   1.00
C725   C     0.13819   0.16940   0.95598   0.00000  Uiso   1.00
C726   C     0.19708   0.17015   0.54274   0.00000  Uiso   1.00
C727   C     0.09292   0.18907   0.98228   0.00000  Uiso   1.00
C728   C     0.24329   0.15239   0.51588   0.00000  Uiso   1.00
C729   C     0.17380   0.16398   0.97561   0.00000  Uiso   1.00
C730   C     0.16255   0.17748   0.52229   0.00000  Uiso   1.00
C731   C     0.11726   0.19793   0.54692   0.00000  Uiso   1.00
C732   C     0.22057   0.14627   0.94998   0.00000  Uiso   1.00
C733   C     0.08311   0.20315   0.52732   0.00000  Uiso   1.00
C734   C     0.25449   0.14087   0.96984   0.00000  Uiso   1.00
C735   C     0.20536   0.31134   0.71529   0.00000  Uiso   1.00
C736   C     0.12813   0.02201   0.78437   0.00000  Uiso   1.00
C737   C     0.20490   0.02127   0.71432   0.00000  Uiso   1.00
C738   C     0.12864   0.31211   0.78534   0.00000  Uiso   1.00
C739   C     0.16634   0.04265   0.74910   0.00000  Uiso   1.00
C740   C     0.16714   0.29071   0.75058   0.00000  Uiso   1.00
C741   C     0.31975   0.13841   0.72354   0.00000  Uiso   1.00
C742   C     0.01359   0.19495   0.77642   0.00000  Uiso   1.00
C743   C     0.03430   0.13823   0.72347   0.00000  Uiso   1.00
C744   C     0.29903   0.19509   0.77655   0.00000  Uiso   1.00
N745   N     0.04759   0.16668   0.75001   0.00000  Uiso   1.00
N746   N     0.28574   0.16666   0.74999   0.00000  Uiso   1.00
H747   H     0.04905   0.21912   0.54733   0.00000  Uiso   1.00
H748   H     0.28939   0.12646   0.94934   0.00000  Uiso   1.00
H749   H     0.15027   0.18896   0.61254   0.00000  Uiso   1.00
H750   H     0.17972   0.14076   0.88891   0.00000  Uiso   1.00
N751   N     0.30270   0.14696   0.60140   0.00000  Uiso   1.00
O752   O     0.31584   0.17783   0.62173   0.00000  Uiso   1.00
O753   O     0.33036   0.11387   0.58886   0.00000  Uiso   1.00
N754   N     0.03184   0.19213   0.89787   0.00000  Uiso   1.00
O755   O     0.01830   0.16182   0.87716   0.00000  Uiso   1.00
O756   O     0.00473   0.22554   0.91051   0.00000  Uiso   1.00
H757   H     0.02300   0.20942   0.98388   0.00000  Uiso   1.00
H758   H     0.31370   0.13328   0.51420   0.00000  Uiso   1.00
H759   H     0.10712   0.21148   0.58118   0.00000  Uiso   1.00
H760   H     0.23289   0.13628   0.91417   0.00000  Uiso   1.00
N761   N     0.24230   0.28826   0.67867   0.00000  Uiso   1.00
O762   O     0.23109   0.26842   0.64741   0.00000  Uiso   1.00
O763   O     0.28529   0.28295   0.67982   0.00000  Uiso   1.00
N764   N     0.09119   0.04505   0.82106   0.00000  Uiso   1.00
O765   O     0.10259   0.06548   0.85185   0.00000  Uiso   1.00
O766   O     0.04782   0.04956   0.82051   0.00000  Uiso   1.00
N767   N     0.24146   0.04328   0.67669   0.00000  Uiso   1.00
O768   O     0.28785   0.03690   0.66643   0.00000  Uiso   1.00
O769   O     0.22836   0.06896   0.65172   0.00000  Uiso   1.00
N770   N     0.09240   0.29014   0.82319   0.00000  Uiso   1.00
O771   O     0.04593   0.29575   0.83321   0.00000  Uiso   1.00
O772   O     0.10593   0.26541   0.84869   0.00000  Uiso   1.00
H773   H     0.30990   0.11589   0.70237   0.00000  Uiso   1.00
H774   H     0.02345   0.21750   0.79756   0.00000  Uiso   1.00
N775   N     0.06851   0.10784   0.69543   0.00000  Uiso   1.00
O776   O     0.09167   0.11459   0.65118   0.00000  Uiso   1.00
O777   O     0.06549   0.06975   0.71044   0.00000  Uiso   1.00
N778   N     0.26476   0.22539   0.80471   0.00000  Uiso   1.00
O779   O     0.24155   0.21846   0.84892   0.00000  Uiso   1.00
O780   O     0.26772   0.26353   0.78988   0.00000  Uiso   1.00
O781   O     0.46179   0.22775   0.75000   0.00000  Uiso   1.00
O782   O     0.53821   0.10558   0.74999   0.00000  Uiso   1.00
O783   O     0.53823   0.22774   0.75000   0.00000  Uiso   1.00
O784   O     0.46177   0.10559   0.75000   0.00000  Uiso   1.00
C785   C     0.50010   0.24653   0.75026   0.00000  Uiso   1.00
C786   C     0.49998   0.08681   0.74956   0.00000  Uiso   1.00
O787   O     0.43994   0.16667   0.81612   0.00000  Uiso   1.00
O788   O     0.56006   0.16666   0.68387   0.00000  Uiso   1.00
O789   O     0.51639   0.16666   0.81612   0.00000  Uiso   1.00
O790   O     0.48361   0.16667   0.68388   0.00000  Uiso   1.00
C791   C     0.46888   0.16625   0.83812   0.00000  Uiso   1.00
C792   C     0.53107   0.16726   0.66188   0.00000  Uiso   1.00
Zn793  Zn    0.44896   0.16667   0.75000   0.00000  Uiso   1.00
Zn794  Zn    0.55104   0.16666   0.75000   0.00000  Uiso   1.00
C795   C     0.44831   0.16776   0.88919   0.00000  Uiso   1.00
C796   C     0.55150   0.16738   0.61079   0.00000  Uiso   1.00
C797   C     0.39140   0.19537   0.96297   0.00000  Uiso   1.00
C798   C     0.61108   0.14550   0.53554   0.00000  Uiso   1.00
C799   C     0.40174   0.18471   0.91647   0.00000  Uiso   1.00
C800   C     0.59940   0.15364   0.58279   0.00000  Uiso   1.00
C801   C     0.48025   0.15711   0.91025   0.00000  Uiso   1.00
C802   C     0.51908   0.17758   0.59004   0.00000  Uiso   1.00
C803   C     0.47152   0.16940   0.95598   0.00000  Uiso   1.00
C804   C     0.53041   0.17015   0.54274   0.00000  Uiso   1.00
C805   C     0.42626   0.18907   0.98228   0.00000  Uiso   1.00
C806   C     0.57662   0.15239   0.51588   0.00000  Uiso   1.00
C807   C     0.50713   0.16398   0.97561   0.00000  Uiso   1.00
C808   C     0.49589   0.17748   0.52229   0.00000  Uiso   1.00
C809   C     0.45060   0.19793   0.54692   0.00000  Uiso   1.00
C810   C     0.55390   0.14627   0.94998   0.00000  Uiso   1.00
C811   C     0.41644   0.20315   0.52732   0.00000  Uiso   1.00
C812   C     0.58783   0.14087   0.96984   0.00000  Uiso   1.00
C813   C     0.53869   0.31134   0.71529   0.00000  Uiso   1.00
C814   C     0.46146   0.02201   0.78437   0.00000  Uiso   1.00
C815   C     0.53823   0.02127   0.71432   0.00000  Uiso   1.00
C816   C     0.46198   0.31211   0.78534   0.00000  Uiso   1.00
C817   C     0.49967   0.04265   0.74910   0.00000  Uiso   1.00
C818   C     0.50048   0.29071   0.75058   0.00000  Uiso   1.00
C819   C     0.65309   0.13841   0.72354   0.00000  Uiso   1.00
C820   C     0.34693   0.19495   0.77642   0.00000  Uiso   1.00
C821   C     0.36763   0.13823   0.72347   0.00000  Uiso   1.00
C822   C     0.63236   0.19509   0.77655   0.00000  Uiso   1.00
N823   N     0.38093   0.16668   0.75001   0.00000  Uiso   1.00
N824   N     0.61907   0.16666   0.74999   0.00000  Uiso   1.00
H825   H     0.38239   0.21912   0.54733   0.00000  Uiso   1.00
H826   H     0.62272   0.12646   0.94934   0.00000  Uiso   1.00
H827   H     0.48360   0.18896   0.61254   0.00000  Uiso   1.00
H828   H     0.51305   0.14076   0.88891   0.00000  Uiso   1.00
N829   N     0.63603   0.14696   0.60140   0.00000  Uiso   1.00
O830   O     0.64917   0.17783   0.62173   0.00000  Uiso   1.00
O831   O     0.66369   0.11387   0.58886   0.00000  Uiso   1.00
N832   N     0.36517   0.19213   0.89787   0.00000  Uiso   1.00
O833   O     0.35163   0.16182   0.87716   0.00000  Uiso   1.00
O834   O     0.33806   0.22554   0.91051   0.00000  Uiso   1.00
H835   H     0.35633   0.20942   0.98388   0.00000  Uiso   1.00
H836   H     0.64703   0.13328   0.51420   0.00000  Uiso   1.00
H837   H     0.44046   0.21148   0.58118   0.00000  Uiso   1.00
H838   H     0.56622   0.13628   0.91417   0.00000  Uiso   1.00
N839   N     0.57563   0.28826   0.67867   0.00000  Uiso   1.00
O840   O     0.56443   0.26842   0.64741   0.00000  Uiso   1.00
O841   O     0.61863   0.28295   0.67982   0.00000  Uiso   1.00
N842   N     0.42453   0.04505   0.82106   0.00000  Uiso   1.00
O843   O     0.43592   0.06548   0.85185   0.00000  Uiso   1.00
O844   O     0.38116   0.04956   0.82051   0.00000  Uiso   1.00
N845   N     0.57480   0.04328   0.67669   0.00000  Uiso   1.00
O846   O     0.62118   0.03690   0.66643   0.00000  Uiso   1.00
O847   O     0.56169   0.06896   0.65172   0.00000  Uiso   1.00
N848   N     0.42574   0.29014   0.82319   0.00000  Uiso   1.00
O849   O     0.37927   0.29575   0.83321   0.00000  Uiso   1.00
O850   O     0.43926   0.26541   0.84869   0.00000  Uiso   1.00
H851   H     0.64324   0.11589   0.70237   0.00000  Uiso   1.00
H852   H     0.35678   0.21750   0.79756   0.00000  Uiso   1.00
N853   N     0.40184   0.10784   0.69543   0.00000  Uiso   1.00
O854   O     0.42501   0.11459   0.65118   0.00000  Uiso   1.00
O855   O     0.39883   0.06975   0.71044   0.00000  Uiso   1.00
N856   N     0.59810   0.22539   0.80471   0.00000  Uiso   1.00
O857   O     0.57489   0.21846   0.84892   0.00000  Uiso   1.00
O858   O     0.60105   0.26353   0.78988   0.00000  Uiso   1.00
O859   O     0.79512   0.22775   0.75000   0.00000  Uiso   1.00
O860   O     0.87154   0.10558   0.74999   0.00000  Uiso   1.00
O861   O     0.87157   0.22774   0.75000   0.00000  Uiso   1.00
O862   O     0.79510   0.10559   0.75000   0.00000  Uiso   1.00
C863   C     0.83344   0.24653   0.75026   0.00000  Uiso   1.00
C864   C     0.83331   0.08681   0.74956   0.00000  Uiso   1.00
O865   O     0.77328   0.16667   0.81612   0.00000  Uiso   1.00
O866   O     0.89339   0.16666   0.68387   0.00000  Uiso   1.00
O867   O     0.84972   0.16666   0.81612   0.00000  Uiso   1.00
O868   O     0.81695   0.16667   0.68388   0.00000  Uiso   1.00
C869   C     0.80221   0.16625   0.83812   0.00000  Uiso   1.00
C870   C     0.86440   0.16726   0.66188   0.00000  Uiso   1.00
Zn871  Zn    0.78229   0.16667   0.75000   0.00000  Uiso   1.00
Zn872  Zn    0.88438   0.16666   0.75000   0.00000  Uiso   1.00
C873   C     0.78164   0.16776   0.88919   0.00000  Uiso   1.00
C874   C     0.88483   0.16738   0.61079   0.00000  Uiso   1.00
C875   C     0.72474   0.19537   0.96297   0.00000  Uiso   1.00
C876   C     0.94441   0.14550   0.53554   0.00000  Uiso   1.00
C877   C     0.73507   0.18471   0.91647   0.00000  Uiso   1.00
C878   C     0.93273   0.15364   0.58279   0.00000  Uiso   1.00
C879   C     0.81358   0.15711   0.91025   0.00000  Uiso   1.00
C880   C     0.85241   0.17758   0.59004   0.00000  Uiso   1.00
C881   C     0.80486   0.16940   0.95598   0.00000  Uiso   1.00
C882   C     0.86374   0.17015   0.54274   0.00000  Uiso   1.00
C883   C     0.75959   0.18907   0.98228   0.00000  Uiso   1.00
C884   C     0.90996   0.15239   0.51588   0.00000  Uiso   1.00
C885   C     0.84047   0.16398   0.97561   0.00000  Uiso   1.00
C886   C     0.82922   0.17748   0.52229   0.00000  Uiso   1.00
C887   C     0.78393   0.19793   0.54692   0.00000  Uiso   1.00
C888   C     0.88724   0.14627   0.94998   0.00000  Uiso   1.00
C889   C     0.74978   0.20315   0.52732   0.00000  Uiso   1.00
C890   C     0.92116   0.14087   0.96984   0.00000  Uiso   1.00
C891   C     0.87203   0.31134   0.71529   0.00000  Uiso   1.00
C892   C     0.79480   0.02201   0.78437   0.00000  Uiso   1.00
C893   C     0.87156   0.02127   0.71432   0.00000  Uiso   1.00
C894   C     0.79531   0.31211   0.78534   0.00000  Uiso   1.00
C895   C     0.83301   0.04265   0.74910   0.00000  Uiso   1.00
C896   C     0.83381   0.29071   0.75058   0.00000  Uiso   1.00
C897   C     0.98642   0.13841   0.72354   0.00000  Uiso   1.00
C898   C     0.68026   0.19495   0.77642   0.00000  Uiso   1.00
C899   C     0.70096   0.13823   0.72347   0.00000  Uiso   1.00
C900   C     0.96569   0.19509   0.77655   0.00000  Uiso   1.00
N901   N     0.71426   0.16668   0.75001   0.00000  Uiso   1.00
N902   N     0.95241   0.16666   0.74999   0.00000  Uiso   1.00
H903   H     0.71572   0.21912   0.54733   0.00000  Uiso   1.00
H904   H     0.95606   0.12646   0.94934   0.00000  Uiso   1.00
H905   H     0.81693   0.18896   0.61254   0.00000  Uiso   1.00
H906   H     0.84638   0.14076   0.88891   0.00000  Uiso   1.00
N907   N     0.96936   0.14696   0.60140   0.00000  Uiso   1.00
O908   O     0.98251   0.17783   0.62173   0.00000  Uiso   1.00
O909   O     0.99702   0.11387   0.58886   0.00000  Uiso   1.00
N910   N     0.69851   0.19213   0.89787   0.00000  Uiso   1.00
O911   O     0.68496   0.16182   0.87716   0.00000  Uiso   1.00
O912   O     0.67140   0.22554   0.91051   0.00000  Uiso   1.00
H913   H     0.68967   0.20942   0.98388   0.00000  Uiso   1.00
H914   H     0.98037   0.13328   0.51420   0.00000  Uiso   1.00
H915   H     0.77379   0.21148   0.58118   0.00000  Uiso   1.00
H916   H     0.89955   0.13628   0.91417   0.00000  Uiso   1.00
N917   N     0.90896   0.28826   0.67867   0.00000  Uiso   1.00
O918   O     0.89776   0.26842   0.64741   0.00000  Uiso   1.00
O919   O     0.95196   0.28295   0.67982   0.00000  Uiso   1.00
N920   N     0.75786   0.04505   0.82106   0.00000  Uiso   1.00
O921   O     0.76926   0.06548   0.85185   0.00000  Uiso   1.00
O922   O     0.71449   0.04956   0.82051   0.00000  Uiso   1.00
N923   N     0.90813   0.04328   0.67669   0.00000  Uiso   1.00
O924   O     0.95452   0.03690   0.66643   0.00000  Uiso   1.00
O925   O     0.89503   0.06896   0.65172   0.00000  Uiso   1.00
N926   N     0.75907   0.29014   0.82319   0.00000  Uiso   1.00
O927   O     0.71260   0.29575   0.83321   0.00000  Uiso   1.00
O928   O     0.77260   0.26541   0.84869   0.00000  Uiso   1.00
H929   H     0.97657   0.11589   0.70237   0.00000  Uiso   1.00
H930   H     0.69012   0.21750   0.79756   0.00000  Uiso   1.00
N931   N     0.73517   0.10784   0.69543   0.00000  Uiso   1.00
O932   O     0.75834   0.11459   0.65118   0.00000  Uiso   1.00
O933   O     0.73216   0.06975   0.71044   0.00000  Uiso   1.00
N934   N     0.93143   0.22539   0.80471   0.00000  Uiso   1.00
O935   O     0.90822   0.21846   0.84892   0.00000  Uiso   1.00
O936   O     0.93439   0.26353   0.78988   0.00000  Uiso   1.00
O937   O     0.12846   0.56108   0.75000   0.00000  Uiso   1.00
O938   O     0.20488   0.43892   0.74999   0.00000  Uiso   1.00
O939   O     0.20490   0.56107   0.75000   0.00000  Uiso   1.00
O940   O     0.12843   0.43893   0.75000   0.00000  Uiso   1.00
C941   C     0.16677   0.57986   0.75026   0.00000  Uiso   1.00
C942   C     0.16664   0.42015   0.74956   0.00000  Uiso   1.00
O943   O     0.10661   0.50001   0.81612   0.00000  Uiso   1.00
O944   O     0.22672   0.49999   0.68387   0.00000  Uiso   1.00
O945   O     0.18305   0.50000   0.81612   0.00000  Uiso   1.00
O946   O     0.15028   0.50000   0.68388   0.00000  Uiso   1.00
C947   C     0.13554   0.49958   0.83812   0.00000  Uiso   1.00
C948   C     0.19773   0.50059   0.66188   0.00000  Uiso   1.00
Zn949  Zn    0.11562   0.50001   0.75000   0.00000  Uiso   1.00
Zn950  Zn    0.21771   0.49999   0.75000   0.00000  Uiso   1.00
C951   C     0.11498   0.50109   0.88919   0.00000  Uiso   1.00
C952   C     0.21817   0.50071   0.61079   0.00000  Uiso   1.00
C953   C     0.05807   0.52871   0.96297   0.00000  Uiso   1.00
C954   C     0.27774   0.47884   0.53554   0.00000  Uiso   1.00
C955   C     0.06840   0.51804   0.91647   0.00000  Uiso   1.00
C956   C     0.26606   0.48697   0.58279   0.00000  Uiso   1.00
C957   C     0.14692   0.49045   0.91025   0.00000  Uiso   1.00
C958   C     0.18575   0.51091   0.59004   0.00000  Uiso   1.00
C959   C     0.13819   0.50273   0.95598   0.00000  Uiso   1.00
C960   C     0.19708   0.50348   0.54274   0.00000  Uiso   1.00
C961   C     0.09292   0.52240   0.98228   0.00000  Uiso   1.00
C962   C     0.24329   0.48572   0.51588   0.00000  Uiso   1.00
C963   C     0.17380   0.49732   0.97561   0.00000  Uiso   1.00
C964   C     0.16255   0.51082   0.52229   0.00000  Uiso   1.00
C965   C     0.11726   0.53126   0.54692   0.00000  Uiso   1.00
C966   C     0.22057   0.47960   0.94998   0.00000  Uiso   1.00
C967   C     0.08311   0.53648   0.52732   0.00000  Uiso   1.00
C968   C     0.25449   0.47420   0.96984   0.00000  Uiso   1.00
C969   C     0.20536   0.64467   0.71529   0.00000  Uiso   1.00
C970   C     0.12813   0.35534   0.78437   0.00000  Uiso   1.00
C971   C     0.20490   0.35460   0.71432   0.00000  Uiso   1.00
C972   C     0.12864   0.64544   0.78534   0.00000  Uiso   1.00
C973   C     0.16634   0.37599   0.74910   0.00000  Uiso   1.00
C974   C     0.16714   0.62404   0.75058   0.00000  Uiso   1.00
C975   C     0.31975   0.47174   0.72354   0.00000  Uiso   1.00
C976   C     0.01359   0.52829   0.77642   0.00000  Uiso   1.00
C977   C     0.03430   0.47157   0.72347   0.00000  Uiso   1.00
C978   C     0.29903   0.52842   0.77655   0.00000  Uiso   1.00
N979   N     0.04759   0.50001   0.75001   0.00000  Uiso   1.00
N980   N     0.28574   0.49999   0.74999   0.00000  Uiso   1.00
H981   H     0.04905   0.55246   0.54733   0.00000  Uiso   1.00
H982   H     0.28939   0.45979   0.94934   0.00000  Uiso   1.00
H983   H     0.15027   0.52229   0.61254   0.00000  Uiso   1.00
H984   H     0.17972   0.47409   0.88891   0.00000  Uiso   1.00
N985   N     0.30270   0.48029   0.60140   0.00000  Uiso   1.00
O986   O     0.31584   0.51116   0.62173   0.00000  Uiso   1.00
O987   O     0.33036   0.44721   0.58886   0.00000  Uiso   1.00
N988   N     0.03184   0.52546   0.89787   0.00000  Uiso   1.00
O989   O     0.01830   0.49515   0.87716   0.00000  Uiso   1.00
O990   O     0.00473   0.55887   0.91051   0.00000  Uiso   1.00
H991   H     0.02300   0.54275   0.98388   0.00000  Uiso   1.00
H992   H     0.31370   0.46661   0.51420   0.00000  Uiso   1.00
H993   H     0.10712   0.54481   0.58118   0.00000  Uiso   1.00
H994   H     0.23289   0.46962   0.91417   0.00000  Uiso   1.00
N995   N     0.24230   0.62159   0.67867   0.00000  Uiso   1.00
O996   O     0.23109   0.60175   0.64741   0.00000  Uiso   1.00
O997   O     0.28529   0.61628   0.67982   0.00000  Uiso   1.00
N998   N     0.09119   0.37838   0.82106   0.00000  Uiso   1.00
O999   O     0.10259   0.39881   0.85185   0.00000  Uiso   1.00
O1000  O     0.04782   0.38289   0.82051   0.00000  Uiso   1.00
N1001  N     0.24146   0.37662   0.67669   0.00000  Uiso   1.00
O1002  O     0.28785   0.37023   0.66643   0.00000  Uiso   1.00
O1003  O     0.22836   0.40229   0.65172   0.00000  Uiso   1.00
N1004  N     0.09240   0.62347   0.82319   0.00000  Uiso   1.00
O1005  O     0.04593   0.62908   0.83321   0.00000  Uiso   1.00
O1006  O     0.10593   0.59874   0.84869   0.00000  Uiso   1.00
H1007  H     0.30990   0.44922   0.70237   0.00000  Uiso   1.00
H1008  H     0.02345   0.55083   0.79756   0.00000  Uiso   1.00
N1009  N     0.06851   0.44117   0.69543   0.00000  Uiso   1.00
O1010  O     0.09167   0.44792   0.65118   0.00000  Uiso   1.00
O1011  O     0.06549   0.40309   0.71044   0.00000  Uiso   1.00
N1012  N     0.26476   0.55872   0.80471   0.00000  Uiso   1.00
O1013  O     0.24155   0.55179   0.84892   0.00000  Uiso   1.00
O1014  O     0.26772   0.59687   0.78988   0.00000  Uiso   1.00
O1015  O     0.46179   0.56108   0.75000   0.00000  Uiso   1.00
O1016  O     0.53821   0.43892   0.74999   0.00000  Uiso   1.00
O1017  O     0.53823   0.56107   0.75000   0.00000  Uiso   1.00
O1018  O     0.46177   0.43893   0.75000   0.00000  Uiso   1.00
C1019  C     0.50010   0.57986   0.75026   0.00000  Uiso   1.00
C1020  C     0.49998   0.42015   0.74956   0.00000  Uiso   1.00
O1021  O     0.43994   0.50001   0.81612   0.00000  Uiso   1.00
O1022  O     0.56006   0.49999   0.68387   0.00000  Uiso   1.00
O1023  O     0.51639   0.50000   0.81612   0.00000  Uiso   1.00
O1024  O     0.48361   0.50000   0.68388   0.00000  Uiso   1.00
C1025  C     0.46888   0.49958   0.83812   0.00000  Uiso   1.00
C1026  C     0.53107   0.50059   0.66188   0.00000  Uiso   1.00
Zn1027 Zn    0.44896   0.50001   0.75000   0.00000  Uiso   1.00
Zn1028 Zn    0.55104   0.49999   0.75000   0.00000  Uiso   1.00
C1029  C     0.44831   0.50109   0.88919   0.00000  Uiso   1.00
C1030  C     0.55150   0.50071   0.61079   0.00000  Uiso   1.00
C1031  C     0.39140   0.52871   0.96297   0.00000  Uiso   1.00
C1032  C     0.61108   0.47884   0.53554   0.00000  Uiso   1.00
C1033  C     0.40174   0.51804   0.91647   0.00000  Uiso   1.00
C1034  C     0.59940   0.48697   0.58279   0.00000  Uiso   1.00
C1035  C     0.48025   0.49045   0.91025   0.00000  Uiso   1.00
C1036  C     0.51908   0.51091   0.59004   0.00000  Uiso   1.00
C1037  C     0.47152   0.50273   0.95598   0.00000  Uiso   1.00
C1038  C     0.53041   0.50348   0.54274   0.00000  Uiso   1.00
C1039  C     0.42626   0.52240   0.98228   0.00000  Uiso   1.00
C1040  C     0.57662   0.48572   0.51588   0.00000  Uiso   1.00
C1041  C     0.50713   0.49732   0.97561   0.00000  Uiso   1.00
C1042  C     0.49589   0.51082   0.52229   0.00000  Uiso   1.00
C1043  C     0.45060   0.53126   0.54692   0.00000  Uiso   1.00
C1044  C     0.55390   0.47960   0.94998   0.00000  Uiso   1.00
C1045  C     0.41644   0.53648   0.52732   0.00000  Uiso   1.00
C1046  C     0.58783   0.47420   0.96984   0.00000  Uiso   1.00
C1047  C     0.53869   0.64467   0.71529   0.00000  Uiso   1.00
C1048  C     0.46146   0.35534   0.78437   0.00000  Uiso   1.00
C1049  C     0.53823   0.35460   0.71432   0.00000  Uiso   1.00
C1050  C     0.46198   0.64544   0.78534   0.00000  Uiso   1.00
C1051  C     0.49967   0.37599   0.74910   0.00000  Uiso   1.00
C1052  C     0.50048   0.62404   0.75058   0.00000  Uiso   1.00
C1053  C     0.65309   0.47174   0.72354   0.00000  Uiso   1.00
C1054  C     0.34693   0.52829   0.77642   0.00000  Uiso   1.00
C1055  C     0.36763   0.47157   0.72347   0.00000  Uiso   1.00
C1056  C     0.63236   0.52842   0.77655   0.00000  Uiso   1.00
N1057  N     0.38093   0.50001   0.75001   0.00000  Uiso   1.00
N1058  N     0.61907   0.49999   0.74999   0.00000  Uiso   1.00
H1059  H     0.38239   0.55246   0.54733   0.00000  Uiso   1.00
H1060  H     0.62272   0.45979   0.94934   0.00000  Uiso   1.00
H1061  H     0.48360   0.52229   0.61254   0.00000  Uiso   1.00
H1062  H     0.51305   0.47409   0.88891   0.00000  Uiso   1.00
N1063  N     0.63603   0.48029   0.60140   0.00000  Uiso   1.00
O1064  O     0.64917   0.51116   0.62173   0.00000  Uiso   1.00
O1065  O     0.66369   0.44721   0.58886   0.00000  Uiso   1.00
N1066  N     0.36517   0.52546   0.89787   0.00000  Uiso   1.00
O1067  O     0.35163   0.49515   0.87716   0.00000  Uiso   1.00
O1068  O     0.33806   0.55887   0.91051   0.00000  Uiso   1.00
H1069  H     0.35633   0.54275   0.98388   0.00000  Uiso   1.00
H1070  H     0.64703   0.46661   0.51420   0.00000  Uiso   1.00
H1071  H     0.44046   0.54481   0.58118   0.00000  Uiso   1.00
H1072  H     0.56622   0.46962   0.91417   0.00000  Uiso   1.00
N1073  N     0.57563   0.62159   0.67867   0.00000  Uiso   1.00
O1074  O     0.56443   0.60175   0.64741   0.00000  Uiso   1.00
O1075  O     0.61863   0.61628   0.67982   0.00000  Uiso   1.00
N1076  N     0.42453   0.37838   0.82106   0.00000  Uiso   1.00
O1077  O     0.43592   0.39881   0.85185   0.00000  Uiso   1.00
O1078  O     0.38116   0.38289   0.82051   0.00000  Uiso   1.00
N1079  N     0.57480   0.37662   0.67669   0.00000  Uiso   1.00
O1080  O     0.62118   0.37023   0.66643   0.00000  Uiso   1.00
O1081  O     0.56169   0.40229   0.65172   0.00000  Uiso   1.00
N1082  N     0.42574   0.62347   0.82319   0.00000  Uiso   1.00
O1083  O     0.37927   0.62908   0.83321   0.00000  Uiso   1.00
O1084  O     0.43926   0.59874   0.84869   0.00000  Uiso   1.00
H1085  H     0.64324   0.44922   0.70237   0.00000  Uiso   1.00
H1086  H     0.35678   0.55083   0.79756   0.00000  Uiso   1.00
N1087  N     0.40184   0.44117   0.69543   0.00000  Uiso   1.00
O1088  O     0.42501   0.44792   0.65118   0.00000  Uiso   1.00
O1089  O     0.39883   0.40309   0.71044   0.00000  Uiso   1.00
N1090  N     0.59810   0.55872   0.80471   0.00000  Uiso   1.00
O1091  O     0.57489   0.55179   0.84892   0.00000  Uiso   1.00
O1092  O     0.60105   0.59687   0.78988   0.00000  Uiso   1.00
O1093  O     0.79512   0.56108   0.75000   0.00000  Uiso   1.00
O1094  O     0.87154   0.43892   0.74999   0.00000  Uiso   1.00
O1095  O     0.87157   0.56107   0.75000   0.00000  Uiso   1.00
O1096  O     0.79510   0.43893   0.75000   0.00000  Uiso   1.00
C1097  C     0.83344   0.57986   0.75026   0.00000  Uiso   1.00
C1098  C     0.83331   0.42015   0.74956   0.00000  Uiso   1.00
O1099  O     0.77328   0.50001   0.81612   0.00000  Uiso   1.00
O1100  O     0.89339   0.49999   0.68387   0.00000  Uiso   1.00
O1101  O     0.84972   0.50000   0.81612   0.00000  Uiso   1.00
O1102  O     0.81695   0.50000   0.68388   0.00000  Uiso   1.00
C1103  C     0.80221   0.49958   0.83812   0.00000  Uiso   1.00
C1104  C     0.86440   0.50059   0.66188   0.00000  Uiso   1.00
Zn1105 Zn    0.78229   0.50001   0.75000   0.00000  Uiso   1.00
Zn1106 Zn    0.88438   0.49999   0.75000   0.00000  Uiso   1.00
C1107  C     0.78164   0.50109   0.88919   0.00000  Uiso   1.00
C1108  C     0.88483   0.50071   0.61079   0.00000  Uiso   1.00
C1109  C     0.72474   0.52871   0.96297   0.00000  Uiso   1.00
C1110  C     0.94441   0.47884   0.53554   0.00000  Uiso   1.00
C1111  C     0.73507   0.51804   0.91647   0.00000  Uiso   1.00
C1112  C     0.93273   0.48697   0.58279   0.00000  Uiso   1.00
C1113  C     0.81358   0.49045   0.91025   0.00000  Uiso   1.00
C1114  C     0.85241   0.51091   0.59004   0.00000  Uiso   1.00
C1115  C     0.80486   0.50273   0.95598   0.00000  Uiso   1.00
C1116  C     0.86374   0.50348   0.54274   0.00000  Uiso   1.00
C1117  C     0.75959   0.52240   0.98228   0.00000  Uiso   1.00
C1118  C     0.90996   0.48572   0.51588   0.00000  Uiso   1.00
C1119  C     0.84047   0.49732   0.97561   0.00000  Uiso   1.00
C1120  C     0.82922   0.51082   0.52229   0.00000  Uiso   1.00
C1121  C     0.78393   0.53126   0.54692   0.00000  Uiso   1.00
C1122  C     0.88724   0.47960   0.94998   0.00000  Uiso   1.00
C1123  C     0.74978   0.53648   0.52732   0.00000  Uiso   1.00
C1124  C     0.92116   0.47420   0.96984   0.00000  Uiso   1.00
C1125  C     0.87203   0.64467   0.71529   0.00000  Uiso   1.00
C1126  C     0.79480   0.35534   0.78437   0.00000  Uiso   1.00
C1127  C     0.87156   0.35460   0.71432   0.00000  Uiso   1.00
C1128  C     0.79531   0.64544   0.78534   0.00000  Uiso   1.00
C1129  C     0.83301   0.37599   0.74910   0.00000  Uiso   1.00
C1130  C     0.83381   0.62404   0.75058   0.00000  Uiso   1.00
C1131  C     0.98642   0.47174   0.72354   0.00000  Uiso   1.00
C1132  C     0.68026   0.52829   0.77642   0.00000  Uiso   1.00
C1133  C     0.70096   0.47157   0.72347   0.00000  Uiso   1.00
C1134  C     0.96569   0.52842   0.77655   0.00000  Uiso   1.00
N1135  N     0.71426   0.50001   0.75001   0.00000  Uiso   1.00
N1136  N     0.95241   0.49999   0.74999   0.00000  Uiso   1.00
H1137  H     0.71572   0.55246   0.54733   0.00000  Uiso   1.00
H1138  H     0.95606   0.45979   0.94934   0.00000  Uiso   1.00
H1139  H     0.81693   0.52229   0.61254   0.00000  Uiso   1.00
H1140  H     0.84638   0.47409   0.88891   0.00000  Uiso   1.00
N1141  N     0.96936   0.48029   0.60140   0.00000  Uiso   1.00
O1142  O     0.98251   0.51116   0.62173   0.00000  Uiso   1.00
O1143  O     0.99702   0.44721   0.58886   0.00000  Uiso   1.00
N1144  N     0.69851   0.52546   0.89787   0.00000  Uiso   1.00
O1145  O     0.68496   0.49515   0.87716   0.00000  Uiso   1.00
O1146  O     0.67140   0.55887   0.91051   0.00000  Uiso   1.00
H1147  H     0.68967   0.54275   0.98388   0.00000  Uiso   1.00
H1148  H     0.98037   0.46661   0.51420   0.00000  Uiso   1.00
H1149  H     0.77379   0.54481   0.58118   0.00000  Uiso   1.00
H1150  H     0.89955   0.46962   0.91417   0.00000  Uiso   1.00
N1151  N     0.90896   0.62159   0.67867   0.00000  Uiso   1.00
O1152  O     0.89776   0.60175   0.64741   0.00000  Uiso   1.00
O1153  O     0.95196   0.61628   0.67982   0.00000  Uiso   1.00
N1154  N     0.75786   0.37838   0.82106   0.00000  Uiso   1.00
O1155  O     0.76926   0.39881   0.85185   0.00000  Uiso   1.00
O1156  O     0.71449   0.38289   0.82051   0.00000  Uiso   1.00
N1157  N     0.90813   0.37662   0.67669   0.00000  Uiso   1.00
O1158  O     0.95452   0.37023   0.66643   0.00000  Uiso   1.00
O1159  O     0.89503   0.40229   0.65172   0.00000  Uiso   1.00
N1160  N     0.75907   0.62347   0.82319   0.00000  Uiso   1.00
O1161  O     0.71260   0.62908   0.83321   0.00000  Uiso   1.00
O1162  O     0.77260   0.59874   0.84869   0.00000  Uiso   1.00
H1163  H     0.97657   0.44922   0.70237   0.00000  Uiso   1.00
H1164  H     0.69012   0.55083   0.79756   0.00000  Uiso   1.00
N1165  N     0.73517   0.44117   0.69543   0.00000  Uiso   1.00
O1166  O     0.75834   0.44792   0.65118   0.00000  Uiso   1.00
O1167  O     0.73216   0.40309   0.71044   0.00000  Uiso   1.00
N1168  N     0.93143   0.55872   0.80471   0.00000  Uiso   1.00
O1169  O     0.90822   0.55179   0.84892   0.00000  Uiso   1.00
O1170  O     0.93439   0.59687   0.78988   0.00000  Uiso   1.00
O1171  O     0.12846   0.89442   0.75000   0.00000  Uiso   1.00
O1172  O     0.20488   0.77225   0.74999   0.00000  Uiso   1.00
O1173  O     0.20490   0.89441   0.75000   0.00000  Uiso   1.00
O1174  O     0.12843   0.77226   0.75000   0.00000  Uiso   1.00
C1175  C     0.16677   0.91320   0.75026   0.00000  Uiso   1.00
C1176  C     0.16664   0.75348   0.74956   0.00000  Uiso   1.00
O1177  O     0.10661   0.83334   0.81612   0.00000  Uiso   1.00
O1178  O     0.22672   0.83333   0.68387   0.00000  Uiso   1.00
O1179  O     0.18305   0.83333   0.81612   0.00000  Uiso   1.00
O1180  O     0.15028   0.83334   0.68388   0.00000  Uiso   1.00
C1181  C     0.13554   0.83291   0.83812   0.00000  Uiso   1.00
C1182  C     0.19773   0.83392   0.66188   0.00000  Uiso   1.00
Zn1183 Zn    0.11562   0.83334   0.75000   0.00000  Uiso   1.00
Zn1184 Zn    0.21771   0.83333   0.75000   0.00000  Uiso   1.00
C1185  C     0.11498   0.83442   0.88919   0.00000  Uiso   1.00
C1186  C     0.21817   0.83404   0.61079   0.00000  Uiso   1.00
C1187  C     0.05807   0.86204   0.96297   0.00000  Uiso   1.00
C1188  C     0.27774   0.81217   0.53554   0.00000  Uiso   1.00
C1189  C     0.06840   0.85138   0.91647   0.00000  Uiso   1.00
C1190  C     0.26606   0.82030   0.58279   0.00000  Uiso   1.00
C1191  C     0.14692   0.82378   0.91025   0.00000  Uiso   1.00
C1192  C     0.18575   0.84424   0.59004   0.00000  Uiso   1.00
C1193  C     0.13819   0.83606   0.95598   0.00000  Uiso   1.00
C1194  C     0.19708   0.83682   0.54274   0.00000  Uiso   1.00
C1195  C     0.09292   0.85573   0.98228   0.00000  Uiso   1.00
C1196  C     0.24329   0.81905   0.51588   0.00000  Uiso   1.00
C1197  C     0.17380   0.83065   0.97561   0.00000  Uiso   1.00
C1198  C     0.16255   0.84415   0.52229   0.00000  Uiso   1.00
C1199  C     0.11726   0.86460   0.54692   0.00000  Uiso   1.00
C1200  C     0.22057   0.81294   0.94998   0.00000  Uiso   1.00
C1201  C     0.08311   0.86981   0.52732   0.00000  Uiso   1.00
C1202  C     0.25449   0.80754   0.96984   0.00000  Uiso   1.00
C1203  C     0.20536   0.97801   0.71529   0.00000  Uiso   1.00
C1204  C     0.12813   0.68868   0.78437   0.00000  Uiso   1.00
C1205  C     0.20490   0.68793   0.71432   0.00000  Uiso   1.00
C1206  C     0.12864   0.97878   0.78534   0.00000  Uiso   1.00
C1207  C     0.16634   0.70932   0.74910   0.00000  Uiso   1.00
C1208  C     0.16714   0.95737   0.75058   0.00000  Uiso   1.00
C1209  C     0.31975   0.80507   0.72354   0.00000  Uiso   1.00
C1210  C     0.01359   0.86162   0.77642   0.00000  Uiso   1.00
C1211  C     0.03430   0.80490   0.72347   0.00000  Uiso   1.00
C1212  C     0.29903   0.86175   0.77655   0.00000  Uiso   1.00
N1213  N     0.04759   0.83334   0.75001   0.00000  Uiso   1.00
N1214  N     0.28574   0.83332   0.74999   0.00000  Uiso   1.00
H1215  H     0.04905   0.88579   0.54733   0.00000  Uiso   1.00
H1216  H     0.28939   0.79312   0.94934   0.00000  Uiso   1.00
H1217  H     0.15027   0.85562   0.61254   0.00000  Uiso   1.00
H1218  H     0.17972   0.80742   0.88891   0.00000  Uiso   1.00
N1219  N     0.30270   0.81362   0.60140   0.00000  Uiso   1.00
O1220  O     0.31584   0.84449   0.62173   0.00000  Uiso   1.00
O1221  O     0.33036   0.78054   0.58886   0.00000  Uiso   1.00
N1222  N     0.03184   0.85880   0.89787   0.00000  Uiso   1.00
O1223  O     0.01830   0.82849   0.87716   0.00000  Uiso   1.00
O1224  O     0.00473   0.89220   0.91051   0.00000  Uiso   1.00
H1225  H     0.02300   0.87608   0.98388   0.00000  Uiso   1.00
H1226  H     0.31370   0.79995   0.51420   0.00000  Uiso   1.00
H1227  H     0.10712   0.87815   0.58118   0.00000  Uiso   1.00
H1228  H     0.23289   0.80295   0.91417   0.00000  Uiso   1.00
N1229  N     0.24230   0.95493   0.67867   0.00000  Uiso   1.00
O1230  O     0.23109   0.93509   0.64741   0.00000  Uiso   1.00
O1231  O     0.28529   0.94961   0.67982   0.00000  Uiso   1.00
N1232  N     0.09119   0.71172   0.82106   0.00000  Uiso   1.00
O1233  O     0.10259   0.73215   0.85185   0.00000  Uiso   1.00
O1234  O     0.04782   0.71623   0.82051   0.00000  Uiso   1.00
N1235  N     0.24146   0.70995   0.67669   0.00000  Uiso   1.00
O1236  O     0.28785   0.70356   0.66643   0.00000  Uiso   1.00
O1237  O     0.22836   0.73563   0.65172   0.00000  Uiso   1.00
N1238  N     0.09240   0.95680   0.82319   0.00000  Uiso   1.00
O1239  O     0.04593   0.96242   0.83321   0.00000  Uiso   1.00
O1240  O     0.10593   0.93207   0.84869   0.00000  Uiso   1.00
H1241  H     0.30990   0.78255   0.70237   0.00000  Uiso   1.00
H1242  H     0.02345   0.88417   0.79756   0.00000  Uiso   1.00
N1243  N     0.06851   0.77450   0.69543   0.00000  Uiso   1.00
O1244  O     0.09167   0.78125   0.65118   0.00000  Uiso   1.00
O1245  O     0.06549   0.73642   0.71044   0.00000  Uiso   1.00
N1246  N     0.26476   0.89206   0.80471   0.00000  Uiso   1.00
O1247  O     0.24155   0.88512   0.84892   0.00000  Uiso   1.00
O1248  O     0.26772   0.93020   0.78988   0.00000  Uiso   1.00
O1249  O     0.46179   0.89442   0.75000   0.00000  Uiso   1.00
O1250  O     0.53821   0.77225   0.74999   0.00000  Uiso   1.00
O1251  O     0.53823   0.89441   0.75000   0.00000  Uiso   1.00
O1252  O     0.46177   0.77226   0.75000   0.00000  Uiso   1.00
C1253  C     0.50010   0.91320   0.75026   0.00000  Uiso   1.00
C1254  C     0.49998   0.75348   0.74956   0.00000  Uiso   1.00
O1255  O     0.43994   0.83334   0.81612   0.00000  Uiso   1.00
O1256  O     0.56006   0.83333   0.68387   0.00000  Uiso   1.00
O1257  O     0.51639   0.83333   0.81612   0.00000  Uiso   1.00
O1258  O     0.48361   0.83334   0.68388   0.00000  Uiso   1.00
C1259  C     0.46888   0.83291   0.83812   0.00000  Uiso   1.00
C1260  C     0.53107   0.83392   0.66188   0.00000  Uiso   1.00
Zn1261 Zn    0.44896   0.83334   0.75000   0.00000  Uiso   1.00
Zn1262 Zn    0.55104   0.83333   0.75000   0.00000  Uiso   1.00
C1263  C     0.44831   0.83442   0.88919   0.00000  Uiso   1.00
C1264  C     0.55150   0.83404   0.61079   0.00000  Uiso   1.00
C1265  C     0.39140   0.86204   0.96297   0.00000  Uiso   1.00
C1266  C     0.61108   0.81217   0.53554   0.00000  Uiso   1.00
C1267  C     0.40174   0.85138   0.91647   0.00000  Uiso   1.00
C1268  C     0.59940   0.82030   0.58279   0.00000  Uiso   1.00
C1269  C     0.48025   0.82378   0.91025   0.00000  Uiso   1.00
C1270  C     0.51908   0.84424   0.59004   0.00000  Uiso   1.00
C1271  C     0.47152   0.83606   0.95598   0.00000  Uiso   1.00
C1272  C     0.53041   0.83682   0.54274   0.00000  Uiso   1.00
C1273  C     0.42626   0.85573   0.98228   0.00000  Uiso   1.00
C1274  C     0.57662   0.81905   0.51588   0.00000  Uiso   1.00
C1275  C     0.50713   0.83065   0.97561   0.00000  Uiso   1.00
C1276  C     0.49589   0.84415   0.52229   0.00000  Uiso   1.00
C1277  C     0.45060   0.86460   0.54692   0.00000  Uiso   1.00
C1278  C     0.55390   0.81294   0.94998   0.00000  Uiso   1.00
C1279  C     0.41644   0.86981   0.52732   0.00000  Uiso   1.00
C1280  C     0.58783   0.80754   0.96984   0.00000  Uiso   1.00
C1281  C     0.53869   0.97801   0.71529   0.00000  Uiso   1.00
C1282  C     0.46146   0.68868   0.78437   0.00000  Uiso   1.00
C1283  C     0.53823   0.68793   0.71432   0.00000  Uiso   1.00
C1284  C     0.46198   0.97878   0.78534   0.00000  Uiso   1.00
C1285  C     0.49967   0.70932   0.74910   0.00000  Uiso   1.00
C1286  C     0.50048   0.95737   0.75058   0.00000  Uiso   1.00
C1287  C     0.65309   0.80507   0.72354   0.00000  Uiso   1.00
C1288  C     0.34693   0.86162   0.77642   0.00000  Uiso   1.00
C1289  C     0.36763   0.80490   0.72347   0.00000  Uiso   1.00
C1290  C     0.63236   0.86175   0.77655   0.00000  Uiso   1.00
N1291  N     0.38093   0.83334   0.75001   0.00000  Uiso   1.00
N1292  N     0.61907   0.83332   0.74999   0.00000  Uiso   1.00
H1293  H     0.38239   0.88579   0.54733   0.00000  Uiso   1.00
H1294  H     0.62272   0.79312   0.94934   0.00000  Uiso   1.00
H1295  H     0.48360   0.85562   0.61254   0.00000  Uiso   1.00
H1296  H     0.51305   0.80742   0.88891   0.00000  Uiso   1.00
N1297  N     0.63603   0.81362   0.60140   0.00000  Uiso   1.00
O1298  O     0.64917   0.84449   0.62173   0.00000  Uiso   1.00
O1299  O     0.66369   0.78054   0.58886   0.00000  Uiso   1.00
N1300  N     0.36517   0.85880   0.89787   0.00000  Uiso   1.00
O1301  O     0.35163   0.82849   0.87716   0.00000  Uiso   1.00
O1302  O     0.33806   0.89220   0.91051   0.00000  Uiso   1.00
H1303  H     0.35633   0.87608   0.98388   0.00000  Uiso   1.00
H1304  H     0.64703   0.79995   0.51420   0.00000  Uiso   1.00
H1305  H     0.44046   0.87815   0.58118   0.00000  Uiso   1.00
H1306  H     0.56622   0.80295   0.91417   0.00000  Uiso   1.00
N1307  N     0.57563   0.95493   0.67867   0.00000  Uiso   1.00
O1308  O     0.56443   0.93509   0.64741   0.00000  Uiso   1.00
O1309  O     0.61863   0.94961   0.67982   0.00000  Uiso   1.00
N1310  N     0.42453   0.71172   0.82106   0.00000  Uiso   1.00
O1311  O     0.43592   0.73215   0.85185   0.00000  Uiso   1.00
O1312  O     0.38116   0.71623   0.82051   0.00000  Uiso   1.00
N1313  N     0.57480   0.70995   0.67669   0.00000  Uiso   1.00
O1314  O     0.62118   0.70356   0.66643   0.00000  Uiso   1.00
O1315  O     0.56169   0.73563   0.65172   0.00000  Uiso   1.00
N1316  N     0.42574   0.95680   0.82319   0.00000  Uiso   1.00
O1317  O     0.37927   0.96242   0.83321   0.00000  Uiso   1.00
O1318  O     0.43926   0.93207   0.84869   0.00000  Uiso   1.00
H1319  H     0.64324   0.78255   0.70237   0.00000  Uiso   1.00
H1320  H     0.35678   0.88417   0.79756   0.00000  Uiso   1.00
N1321  N     0.40184   0.77450   0.69543   0.00000  Uiso   1.00
O1322  O     0.42501   0.78125   0.65118   0.00000  Uiso   1.00
O1323  O     0.39883   0.73642   0.71044   0.00000  Uiso   1.00
N1324  N     0.59810   0.89206   0.80471   0.00000  Uiso   1.00
O1325  O     0.57489   0.88512   0.84892   0.00000  Uiso   1.00
O1326  O     0.60105   0.93020   0.78988   0.00000  Uiso   1.00
O1327  O     0.79512   0.89442   0.75000   0.00000  Uiso   1.00
O1328  O     0.87154   0.77225   0.74999   0.00000  Uiso   1.00
O1329  O     0.87157   0.89441   0.75000   0.00000  Uiso   1.00
O1330  O     0.79510   0.77226   0.75000   0.00000  Uiso   1.00
C1331  C     0.83344   0.91320   0.75026   0.00000  Uiso   1.00
C1332  C     0.83331   0.75348   0.74956   0.00000  Uiso   1.00
O1333  O     0.77328   0.83334   0.81612   0.00000  Uiso   1.00
O1334  O     0.89339   0.83333   0.68387   0.00000  Uiso   1.00
O1335  O     0.84972   0.83333   0.81612   0.00000  Uiso   1.00
O1336  O     0.81695   0.83334   0.68388   0.00000  Uiso   1.00
C1337  C     0.80221   0.83291   0.83812   0.00000  Uiso   1.00
C1338  C     0.86440   0.83392   0.66188   0.00000  Uiso   1.00
Zn1339 Zn    0.78229   0.83334   0.75000   0.00000  Uiso   1.00
Zn1340 Zn    0.88438   0.83333   0.75000   0.00000  Uiso   1.00
C1341  C     0.78164   0.83442   0.88919   0.00000  Uiso   1.00
C1342  C     0.88483   0.83404   0.61079   0.00000  Uiso   1.00
C1343  C     0.72474   0.86204   0.96297   0.00000  Uiso   1.00
C1344  C     0.94441   0.81217   0.53554   0.00000  Uiso   1.00
C1345  C     0.73507   0.85138   0.91647   0.00000  Uiso   1.00
C1346  C     0.93273   0.82030   0.58279   0.00000  Uiso   1.00
C1347  C     0.81358   0.82378   0.91025   0.00000  Uiso   1.00
C1348  C     0.85241   0.84424   0.59004   0.00000  Uiso   1.00
C1349  C     0.80486   0.83606   0.95598   0.00000  Uiso   1.00
C1350  C     0.86374   0.83682   0.54274   0.00000  Uiso   1.00
C1351  C     0.75959   0.85573   0.98228   0.00000  Uiso   1.00
C1352  C     0.90996   0.81905   0.51588   0.00000  Uiso   1.00
C1353  C     0.84047   0.83065   0.97561   0.00000  Uiso   1.00
C1354  C     0.82922   0.84415   0.52229   0.00000  Uiso   1.00
C1355  C     0.78393   0.86460   0.54692   0.00000  Uiso   1.00
C1356  C     0.88724   0.81294   0.94998   0.00000  Uiso   1.00
C1357  C     0.74978   0.86981   0.52732   0.00000  Uiso   1.00
C1358  C     0.92116   0.80754   0.96984   0.00000  Uiso   1.00
C1359  C     0.87203   0.97801   0.71529   0.00000  Uiso   1.00
C1360  C     0.79480   0.68868   0.78437   0.00000  Uiso   1.00
C1361  C     0.87156   0.68793   0.71432   0.00000  Uiso   1.00
C1362  C     0.79531   0.97878   0.78534   0.00000  Uiso   1.00
C1363  C     0.83301   0.70932   0.74910   0.00000  Uiso   1.00
C1364  C     0.83381   0.95737   0.75058   0.00000  Uiso   1.00
C1365  C     0.98642   0.80507   0.72354   0.00000  Uiso   1.00
C1366  C     0.68026   0.86162   0.77642   0.00000  Uiso   1.00
C1367  C     0.70096   0.80490   0.72347   0.00000  Uiso   1.00
C1368  C     0.96569   0.86175   0.77655   0.00000  Uiso   1.00
N1369  N     0.71426   0.83334   0.75001   0.00000  Uiso   1.00
N1370  N     0.95241   0.83332   0.74999   0.00000  Uiso   1.00
H1371  H     0.71572   0.88579   0.54733   0.00000  Uiso   1.00
H1372  H     0.95606   0.79312   0.94934   0.00000  Uiso   1.00
H1373  H     0.81693   0.85562   0.61254   0.00000  Uiso   1.00
H1374  H     0.84638   0.80742   0.88891   0.00000  Uiso   1.00
N1375  N     0.96936   0.81362   0.60140   0.00000  Uiso   1.00
O1376  O     0.98251   0.84449   0.62173   0.00000  Uiso   1.00
O1377  O     0.99702   0.78054   0.58886   0.00000  Uiso   1.00
N1378  N     0.69851   0.85880   0.89787   0.00000  Uiso   1.00
O1379  O     0.68496   0.82849   0.87716   0.00000  Uiso   1.00
O1380  O     0.67140   0.89220   0.91051   0.00000  Uiso   1.00
H1381  H     0.68967   0.87608   0.98388   0.00000  Uiso   1.00
H1382  H     0.98037   0.79995   0.51420   0.00000  Uiso   1.00
H1383  H     0.77379   0.87815   0.58118   0.00000  Uiso   1.00
H1384  H     0.89955   0.80295   0.91417   0.00000  Uiso   1.00
N1385  N     0.90896   0.95493   0.67867   0.00000  Uiso   1.00
O1386  O     0.89776   0.93509   0.64741   0.00000  Uiso   1.00
O1387  O     0.95196   0.94961   0.67982   0.00000  Uiso   1.00
N1388  N     0.75786   0.71172   0.82106   0.00000  Uiso   1.00
O1389  O     0.76926   0.73215   0.85185   0.00000  Uiso   1.00
O1390  O     0.71449   0.71623   0.82051   0.00000  Uiso   1.00
N1391  N     0.90813   0.70995   0.67669   0.00000  Uiso   1.00
O1392  O     0.95452   0.70356   0.66643   0.00000  Uiso   1.00
O1393  O     0.89503   0.73563   0.65172   0.00000  Uiso   1.00
N1394  N     0.75907   0.95680   0.82319   0.00000  Uiso   1.00
O1395  O     0.71260   0.96242   0.83321   0.00000  Uiso   1.00
O1396  O     0.77260   0.93207   0.84869   0.00000  Uiso   1.00
H1397  H     0.97657   0.78255   0.70237   0.00000  Uiso   1.00
H1398  H     0.69012   0.88417   0.79756   0.00000  Uiso   1.00
N1399  N     0.73517   0.77450   0.69543   0.00000  Uiso   1.00
O1400  O     0.75834   0.78125   0.65118   0.00000  Uiso   1.00
O1401  O     0.73216   0.73642   0.71044   0.00000  Uiso   1.00
N1402  N     0.93143   0.89206   0.80471   0.00000  Uiso   1.00
O1403  O     0.90822   0.88512   0.84892   0.00000  Uiso   1.00
O1404  O     0.93439   0.93020   0.78988   0.00000  Uiso   1.00
loop_
_geom_bond_atom_site_label_1
_geom_bond_atom_site_label_2
_geom_bond_distance
_geom_bond_site_symmetry_2
_ccdc_geom_bond_type
O1     C5      1.282   .     A
O1     Zn13    1.985   .     S
O2     C6      1.282   .     A
O2     Zn14    1.985   .     S
O3     Zn14    1.991   .     S
O3     C5      1.281   .     A
O4     Zn13    1.991   .     S
O4     C6      1.281   .     A
C5     C38     1.411   .     S
C6     C37     1.411   .     S
O7     C11     1.290   .     A
O7     Zn13    1.974   .     S
O8     Zn14    1.974   .     S
O8     C12     1.292   .     A
O9     Zn14    1.912   .     S
O9     C11     1.303   .     A
O10    C12     1.302   .     A
O10    Zn13    1.912   .     S
C11    C15     1.467   .     S
C12    C16     1.467   .     S
Zn13   N43     2.015   .     S
Zn14   N44     2.015   .     S
C15    C19     1.415   .     A
C15    C21     1.393   .     A
C16    C20     1.414   .     A
C16    C22     1.395   .     A
C17    H55     1.084   .     S
C17    C25     1.401   .     A
C17    C19     1.397   .     A
C18    C26     1.401   .     A
C18    C20     1.397   .     A
C18    H56     1.084   .     S
C19    N52     1.437   .     S
C20    N49     1.435   .     S
C21    H48     1.074   .     S
C21    C23     1.397   .     A
C22    H47     1.073   .     S
C22    C24     1.396   .     A
C23    C27     1.424   .     A
C23    C25     1.416   .     A
C24    C26     1.415   .     A
C24    C28     1.423   .     A
C25    C733    1.387   .     S
C26    C734    1.386   1_554 S
C27    C30     1.419   .     A
C27    C730    1.422   .     S
C28    C29     1.418   .     A
C28    C729    1.422   1_554 S
C29    H57     1.076   .     S
C29    C31     1.383   .     A
C30    C32     1.384   .     A
C30    H58     1.075   .     S
C31    H45     1.084   .     S
C31    C727    1.387   1_554 S
C32    H46     1.083   .     S
C32    C728    1.386   .     S
C33    N59     1.434   .     S
C33    C38     1.402   .     A
C33    C269    1.383   .     S
C34    C37     1.402   .     A
C34    N62     1.435   .     S
C34    C504    1.382   1_545 S
C35    C37     1.404   .     A
C35    N65     1.438   .     S
C35    C501    1.383   1_545 S
C36    N68     1.437   .     S
C36    C38     1.403   .     A
C36    C268    1.382   .     S
C39    N44     1.361   .     A
C39    H71     1.082   .     S
C39    C119    1.418   .     S
C40    N43     1.361   .     A
C40    H72     1.082   .     S
C40    C198    1.418   1_455 S
C41    N43     1.375   .     A
C41    N73     1.426   .     S
C41    C195    1.418   1_455 S
C42    N44     1.375   .     A
C42    N76     1.426   .     S
C42    C118    1.418   .     S
N49    O51     1.301   .     A
N49    O50     1.301   .     A
N52    O54     1.301   .     A
N52    O53     1.301   .     A
N59    O60     1.301   .     A
N59    O61     1.301   .     A
N62    O63     1.301   .     A
N62    O64     1.301   .     A
N65    O67     1.301   .     A
N65    O66     1.301   .     A
N68    O69     1.301   .     A
N68    O70     1.301   .     A
N73    O74     1.300   .     A
N73    O75     1.300   .     A
N76    O77     1.300   .     A
N76    O78     1.301   .     A
O79    C83     1.282   .     A
O79    Zn91    1.985   .     S
O80    C84     1.282   .     A
O80    Zn92    1.985   .     S
O81    Zn92    1.991   .     S
O81    C83     1.281   .     A
O82    Zn91    1.991   .     S
O82    C84     1.281   .     A
C83    C116    1.411   .     S
C84    C115    1.411   .     S
O85    C89     1.290   .     A
O85    Zn91    1.974   .     S
O86    Zn92    1.974   .     S
O86    C90     1.292   .     A
O87    Zn92    1.912   .     S
O87    C89     1.303   .     A
O88    C90     1.302   .     A
O88    Zn91    1.912   .     S
C89    C93     1.467   .     S
C90    C94     1.467   .     S
Zn91   N121    2.015   .     S
Zn92   N122    2.015   .     S
C93    C97     1.415   .     A
C93    C99     1.393   .     A
C94    C98     1.414   .     A
C94    C100    1.395   .     A
C95    H133    1.084   .     S
C95    C103    1.401   .     A
C95    C97     1.397   .     A
C96    C104    1.401   .     A
C96    C98     1.397   .     A
C96    H134    1.084   .     S
C97    N130    1.437   .     S
C98    N127    1.435   .     S
C99    H126    1.074   .     S
C99    C101    1.397   .     A
C100   H125    1.073   .     S
C100   C102    1.396   .     A
C101   C105    1.424   .     A
C101   C103    1.416   .     A
C102   C104    1.415   .     A
C102   C106    1.423   .     A
C103   C811    1.387   .     S
C104   C812    1.386   1_554 S
C105   C108    1.419   .     A
C105   C808    1.422   .     S
C106   C107    1.418   .     A
C106   C807    1.422   1_554 S
C107   H135    1.076   .     S
C107   C109    1.383   .     A
C108   C110    1.384   .     A
C108   H136    1.075   .     S
C109   H123    1.084   .     S
C109   C805    1.387   1_554 S
C110   H124    1.083   .     S
C110   C806    1.386   .     S
C111   N137    1.434   .     S
C111   C116    1.402   .     A
C111   C347    1.383   .     S
C112   C115    1.402   .     A
C112   N140    1.435   .     S
C112   C582    1.382   1_545 S
C113   C115    1.404   .     A
C113   N143    1.438   .     S
C113   C579    1.383   1_545 S
C114   N146    1.437   .     S
C114   C116    1.403   .     A
C114   C346    1.382   .     S
C117   N122    1.361   .     A
C117   H149    1.082   .     S
C117   C197    1.418   .     S
C118   N121    1.361   .     A
C118   H150    1.082   .     S
C119   N121    1.375   .     A
C119   N151    1.426   .     S
C120   N122    1.375   .     A
C120   N154    1.426   .     S
C120   C196    1.418   .     S
N127   O129    1.301   .     A
N127   O128    1.301   .     A
N130   O132    1.301   .     A
N130   O131    1.301   .     A
N137   O138    1.301   .     A
N137   O139    1.301   .     A
N140   O141    1.301   .     A
N140   O142    1.301   .     A
N143   O145    1.301   .     A
N143   O144    1.301   .     A
N146   O147    1.301   .     A
N146   O148    1.301   .     A
N151   O152    1.300   .     A
N151   O153    1.300   .     A
N154   O155    1.300   .     A
N154   O156    1.301   .     A
O157   C161    1.282   .     A
O157   Zn169   1.985   .     S
O158   C162    1.282   .     A
O158   Zn170   1.985   .     S
O159   Zn170   1.991   .     S
O159   C161    1.281   .     A
O160   Zn169   1.991   .     S
O160   C162    1.281   .     A
C161   C194    1.411   .     S
C162   C193    1.411   .     S
O163   C167    1.290   .     A
O163   Zn169   1.974   .     S
O164   Zn170   1.974   .     S
O164   C168    1.292   .     A
O165   Zn170   1.912   .     S
O165   C167    1.303   .     A
O166   C168    1.302   .     A
O166   Zn169   1.912   .     S
C167   C171    1.467   .     S
C168   C172    1.467   .     S
Zn169  N199    2.015   .     S
Zn170  N200    2.015   .     S
C171   C175    1.415   .     A
C171   C177    1.393   .     A
C172   C176    1.414   .     A
C172   C178    1.395   .     A
C173   H211    1.084   .     S
C173   C181    1.401   .     A
C173   C175    1.397   .     A
C174   C182    1.401   .     A
C174   C176    1.397   .     A
C174   H212    1.084   .     S
C175   N208    1.437   .     S
C176   N205    1.435   .     S
C177   H204    1.074   .     S
C177   C179    1.397   .     A
C178   H203    1.073   .     S
C178   C180    1.396   .     A
C179   C183    1.424   .     A
C179   C181    1.416   .     A
C180   C182    1.415   .     A
C180   C184    1.423   .     A
C181   C889    1.387   .     S
C182   C890    1.386   1_554 S
C183   C186    1.419   .     A
C183   C886    1.422   .     S
C184   C185    1.418   .     A
C184   C885    1.422   1_554 S
C185   H213    1.076   .     S
C185   C187    1.383   .     A
C186   C188    1.384   .     A
C186   H214    1.075   .     S
C187   H201    1.084   .     S
C187   C883    1.387   1_554 S
C188   H202    1.083   .     S
C188   C884    1.386   .     S
C189   N215    1.434   .     S
C189   C194    1.402   .     A
C189   C425    1.383   .     S
C190   C193    1.402   .     A
C190   N218    1.435   .     S
C190   C660    1.382   1_545 S
C191   C193    1.404   .     A
C191   N221    1.438   .     S
C191   C657    1.383   1_545 S
C192   N224    1.437   .     S
C192   C194    1.403   .     A
C192   C424    1.382   .     S
C195   N200    1.361   .     A
C195   H227    1.082   .     S
C195   C41     1.418   1_655 S
C196   N199    1.361   .     A
C196   H228    1.082   .     S
C197   N199    1.375   .     A
C197   N229    1.426   .     S
C198   N200    1.375   .     A
C198   N232    1.426   .     S
C198   C40     1.418   1_655 S
N205   O207    1.301   .     A
N205   O206    1.301   .     A
N208   O210    1.301   .     A
N208   O209    1.301   .     A
N215   O216    1.301   .     A
N215   O217    1.301   .     A
N218   O219    1.301   .     A
N218   O220    1.301   .     A
N221   O223    1.301   .     A
N221   O222    1.301   .     A
N224   O225    1.301   .     A
N224   O226    1.301   .     A
N229   O230    1.300   .     A
N229   O231    1.300   .     A
N232   O233    1.300   .     A
N232   O234    1.301   .     A
O235   C239    1.282   .     A
O235   Zn247   1.985   .     S
O236   C240    1.282   .     A
O236   Zn248   1.985   .     S
O237   Zn248   1.991   .     S
O237   C239    1.281   .     A
O238   Zn247   1.991   .     S
O238   C240    1.281   .     A
C239   C272    1.411   .     S
C240   C271    1.411   .     S
O241   C245    1.290   .     A
O241   Zn247   1.974   .     S
O242   Zn248   1.974   .     S
O242   C246    1.292   .     A
O243   Zn248   1.912   .     S
O243   C245    1.303   .     A
O244   C246    1.302   .     A
O244   Zn247   1.912   .     S
C245   C249    1.467   .     S
C246   C250    1.467   .     S
Zn247  N277    2.015   .     S
Zn248  N278    2.015   .     S
C249   C253    1.415   .     A
C249   C255    1.393   .     A
C250   C254    1.414   .     A
C250   C256    1.395   .     A
C251   H289    1.084   .     S
C251   C259    1.401   .     A
C251   C253    1.397   .     A
C252   C260    1.401   .     A
C252   C254    1.397   .     A
C252   H290    1.084   .     S
C253   N286    1.437   .     S
C254   N283    1.435   .     S
C255   H282    1.074   .     S
C255   C257    1.397   .     A
C256   H281    1.073   .     S
C256   C258    1.396   .     A
C257   C261    1.424   .     A
C257   C259    1.416   .     A
C258   C260    1.415   .     A
C258   C262    1.423   .     A
C259   C967    1.387   .     S
C260   C968    1.386   1_554 S
C261   C264    1.419   .     A
C261   C964    1.422   .     S
C262   C263    1.418   .     A
C262   C963    1.422   1_554 S
C263   H291    1.076   .     S
C263   C265    1.383   .     A
C264   C266    1.384   .     A
C264   H292    1.075   .     S
C265   H279    1.084   .     S
C265   C961    1.387   1_554 S
C266   H280    1.083   .     S
C266   C962    1.386   .     S
C267   N293    1.434   .     S
C267   C272    1.402   .     A
C267   C503    1.383   .     S
C268   C271    1.402   .     A
C268   N296    1.435   .     S
C269   C271    1.404   .     A
C269   N299    1.438   .     S
C270   N302    1.437   .     S
C270   C272    1.403   .     A
C270   C502    1.382   .     S
C273   N278    1.361   .     A
C273   H305    1.082   .     S
C273   C353    1.418   .     S
C274   N277    1.361   .     A
C274   H306    1.082   .     S
C274   C432    1.418   1_455 S
C275   N277    1.375   .     A
C275   N307    1.426   .     S
C275   C429    1.418   1_455 S
C276   N278    1.375   .     A
C276   N310    1.426   .     S
C276   C352    1.418   .     S
N283   O285    1.301   .     A
N283   O284    1.301   .     A
N286   O288    1.301   .     A
N286   O287    1.301   .     A
N293   O294    1.301   .     A
N293   O295    1.301   .     A
N296   O297    1.301   .     A
N296   O298    1.301   .     A
N299   O301    1.301   .     A
N299   O300    1.301   .     A
N302   O303    1.301   .     A
N302   O304    1.301   .     A
N307   O308    1.300   .     A
N307   O309    1.300   .     A
N310   O311    1.300   .     A
N310   O312    1.301   .     A
O313   C317    1.282   .     A
O313   Zn325   1.985   .     S
O314   C318    1.282   .     A
O314   Zn326   1.985   .     S
O315   Zn326   1.991   .     S
O315   C317    1.281   .     A
O316   Zn325   1.991   .     S
O316   C318    1.281   .     A
C317   C350    1.411   .     S
C318   C349    1.411   .     S
O319   C323    1.290   .     A
O319   Zn325   1.974   .     S
O320   Zn326   1.974   .     S
O320   C324    1.292   .     A
O321   Zn326   1.912   .     S
O321   C323    1.303   .     A
O322   C324    1.302   .     A
O322   Zn325   1.912   .     S
C323   C327    1.467   .     S
C324   C328    1.467   .     S
Zn325  N355    2.015   .     S
Zn326  N356    2.015   .     S
C327   C331    1.415   .     A
C327   C333    1.393   .     A
C328   C332    1.414   .     A
C328   C334    1.395   .     A
C329   H367    1.084   .     S
C329   C337    1.401   .     A
C329   C331    1.397   .     A
C330   C338    1.401   .     A
C330   C332    1.397   .     A
C330   H368    1.084   .     S
C331   N364    1.437   .     S
C332   N361    1.435   .     S
C333   H360    1.074   .     S
C333   C335    1.397   .     A
C334   H359    1.073   .     S
C334   C336    1.396   .     A
C335   C339    1.424   .     A
C335   C337    1.416   .     A
C336   C338    1.415   .     A
C336   C340    1.423   .     A
C337   C1045   1.387   .     S
C338   C1046   1.386   1_554 S
C339   C342    1.419   .     A
C339   C1042   1.422   .     S
C340   C341    1.418   .     A
C340   C1041   1.422   1_554 S
C341   H369    1.076   .     S
C341   C343    1.383   .     A
C342   C344    1.384   .     A
C342   H370    1.075   .     S
C343   H357    1.084   .     S
C343   C1039   1.387   1_554 S
C344   H358    1.083   .     S
C344   C1040   1.386   .     S
C345   N371    1.434   .     S
C345   C350    1.402   .     A
C345   C581    1.383   .     S
C346   C349    1.402   .     A
C346   N374    1.435   .     S
C347   C349    1.404   .     A
C347   N377    1.438   .     S
C348   N380    1.437   .     S
C348   C350    1.403   .     A
C348   C580    1.382   .     S
C351   N356    1.361   .     A
C351   H383    1.082   .     S
C351   C431    1.418   .     S
C352   N355    1.361   .     A
C352   H384    1.082   .     S
C353   N355    1.375   .     A
C353   N385    1.426   .     S
C354   N356    1.375   .     A
C354   N388    1.426   .     S
C354   C430    1.418   .     S
N361   O363    1.301   .     A
N361   O362    1.301   .     A
N364   O366    1.301   .     A
N364   O365    1.301   .     A
N371   O372    1.301   .     A
N371   O373    1.301   .     A
N374   O375    1.301   .     A
N374   O376    1.301   .     A
N377   O379    1.301   .     A
N377   O378    1.301   .     A
N380   O381    1.301   .     A
N380   O382    1.301   .     A
N385   O386    1.300   .     A
N385   O387    1.300   .     A
N388   O389    1.300   .     A
N388   O390    1.301   .     A
O391   C395    1.282   .     A
O391   Zn403   1.985   .     S
O392   C396    1.282   .     A
O392   Zn404   1.985   .     S
O393   Zn404   1.991   .     S
O393   C395    1.281   .     A
O394   Zn403   1.991   .     S
O394   C396    1.281   .     A
C395   C428    1.411   .     S
C396   C427    1.411   .     S
O397   C401    1.290   .     A
O397   Zn403   1.974   .     S
O398   Zn404   1.974   .     S
O398   C402    1.292   .     A
O399   Zn404   1.912   .     S
O399   C401    1.303   .     A
O400   C402    1.302   .     A
O400   Zn403   1.912   .     S
C401   C405    1.467   .     S
C402   C406    1.467   .     S
Zn403  N433    2.015   .     S
Zn404  N434    2.015   .     S
C405   C409    1.415   .     A
C405   C411    1.393   .     A
C406   C410    1.414   .     A
C406   C412    1.395   .     A
C407   H445    1.084   .     S
C407   C415    1.401   .     A
C407   C409    1.397   .     A
C408   C416    1.401   .     A
C408   C410    1.397   .     A
C408   H446    1.084   .     S
C409   N442    1.437   .     S
C410   N439    1.435   .     S
C411   H438    1.074   .     S
C411   C413    1.397   .     A
C412   H437    1.073   .     S
C412   C414    1.396   .     A
C413   C417    1.424   .     A
C413   C415    1.416   .     A
C414   C416    1.415   .     A
C414   C418    1.423   .     A
C415   C1123   1.387   .     S
C416   C1124   1.386   1_554 S
C417   C420    1.419   .     A
C417   C1120   1.422   .     S
C418   C419    1.418   .     A
C418   C1119   1.422   1_554 S
C419   H447    1.076   .     S
C419   C421    1.383   .     A
C420   C422    1.384   .     A
C420   H448    1.075   .     S
C421   H435    1.084   .     S
C421   C1117   1.387   1_554 S
C422   H436    1.083   .     S
C422   C1118   1.386   .     S
C423   N449    1.434   .     S
C423   C428    1.402   .     A
C423   C659    1.383   .     S
C424   C427    1.402   .     A
C424   N452    1.435   .     S
C425   C427    1.404   .     A
C425   N455    1.438   .     S
C426   N458    1.437   .     S
C426   C428    1.403   .     A
C426   C658    1.382   .     S
C429   N434    1.361   .     A
C429   H461    1.082   .     S
C429   C275    1.418   1_655 S
C430   N433    1.361   .     A
C430   H462    1.082   .     S
C431   N433    1.375   .     A
C431   N463    1.426   .     S
C432   N434    1.375   .     A
C432   N466    1.426   .     S
C432   C274    1.418   1_655 S
N439   O441    1.301   .     A
N439   O440    1.301   .     A
N442   O444    1.301   .     A
N442   O443    1.301   .     A
N449   O450    1.301   .     A
N449   O451    1.301   .     A
N452   O453    1.301   .     A
N452   O454    1.301   .     A
N455   O457    1.301   .     A
N455   O456    1.301   .     A
N458   O459    1.301   .     A
N458   O460    1.301   .     A
N463   O464    1.300   .     A
N463   O465    1.300   .     A
N466   O467    1.300   .     A
N466   O468    1.301   .     A
O469   C473    1.282   .     A
O469   Zn481   1.985   .     S
O470   C474    1.282   .     A
O470   Zn482   1.985   .     S
O471   Zn482   1.991   .     S
O471   C473    1.281   .     A
O472   Zn481   1.991   .     S
O472   C474    1.281   .     A
C473   C506    1.411   .     S
C474   C505    1.411   .     S
O475   C479    1.290   .     A
O475   Zn481   1.974   .     S
O476   Zn482   1.974   .     S
O476   C480    1.292   .     A
O477   Zn482   1.912   .     S
O477   C479    1.303   .     A
O478   C480    1.302   .     A
O478   Zn481   1.912   .     S
C479   C483    1.467   .     S
C480   C484    1.467   .     S
Zn481  N511    2.015   .     S
Zn482  N512    2.015   .     S
C483   C487    1.415   .     A
C483   C489    1.393   .     A
C484   C488    1.414   .     A
C484   C490    1.395   .     A
C485   H523    1.084   .     S
C485   C493    1.401   .     A
C485   C487    1.397   .     A
C486   C494    1.401   .     A
C486   C488    1.397   .     A
C486   H524    1.084   .     S
C487   N520    1.437   .     S
C488   N517    1.435   .     S
C489   H516    1.074   .     S
C489   C491    1.397   .     A
C490   H515    1.073   .     S
C490   C492    1.396   .     A
C491   C495    1.424   .     A
C491   C493    1.416   .     A
C492   C494    1.415   .     A
C492   C496    1.423   .     A
C493   C1201   1.387   .     S
C494   C1202   1.386   1_554 S
C495   C498    1.419   .     A
C495   C1198   1.422   .     S
C496   C497    1.418   .     A
C496   C1197   1.422   1_554 S
C497   H525    1.076   .     S
C497   C499    1.383   .     A
C498   C500    1.384   .     A
C498   H526    1.075   .     S
C499   H513    1.084   .     S
C499   C1195   1.387   1_554 S
C500   H514    1.083   .     S
C500   C1196   1.386   .     S
C501   N527    1.434   .     S
C501   C506    1.402   .     A
C501   C35     1.383   1_565 S
C502   C505    1.402   .     A
C502   N530    1.435   .     S
C503   C505    1.404   .     A
C503   N533    1.438   .     S
C504   N536    1.437   .     S
C504   C506    1.403   .     A
C504   C34     1.382   1_565 S
C507   N512    1.361   .     A
C507   H539    1.082   .     S
C507   C587    1.418   .     S
C508   N511    1.361   .     A
C508   H540    1.082   .     S
C508   C666    1.418   1_455 S
C509   N511    1.375   .     A
C509   N541    1.426   .     S
C509   C663    1.418   1_455 S
C510   N512    1.375   .     A
C510   N544    1.426   .     S
C510   C586    1.418   .     S
N517   O519    1.301   .     A
N517   O518    1.301   .     A
N520   O522    1.301   .     A
N520   O521    1.301   .     A
N527   O528    1.301   .     A
N527   O529    1.301   .     A
N530   O531    1.301   .     A
N530   O532    1.301   .     A
N533   O535    1.301   .     A
N533   O534    1.301   .     A
N536   O537    1.301   .     A
N536   O538    1.301   .     A
N541   O542    1.300   .     A
N541   O543    1.300   .     A
N544   O545    1.300   .     A
N544   O546    1.301   .     A
O547   C551    1.282   .     A
O547   Zn559   1.985   .     S
O548   C552    1.282   .     A
O548   Zn560   1.985   .     S
O549   Zn560   1.991   .     S
O549   C551    1.281   .     A
O550   Zn559   1.991   .     S
O550   C552    1.281   .     A
C551   C584    1.411   .     S
C552   C583    1.411   .     S
O553   C557    1.290   .     A
O553   Zn559   1.974   .     S
O554   Zn560   1.974   .     S
O554   C558    1.292   .     A
O555   Zn560   1.912   .     S
O555   C557    1.303   .     A
O556   C558    1.302   .     A
O556   Zn559   1.912   .     S
C557   C561    1.467   .     S
C558   C562    1.467   .     S
Zn559  N589    2.015   .     S
Zn560  N590    2.015   .     S
C561   C565    1.415   .     A
C561   C567    1.393   .     A
C562   C566    1.414   .     A
C562   C568    1.395   .     A
C563   H601    1.084   .     S
C563   C571    1.401   .     A
C563   C565    1.397   .     A
C564   C572    1.401   .     A
C564   C566    1.397   .     A
C564   H602    1.084   .     S
C565   N598    1.437   .     S
C566   N595    1.435   .     S
C567   H594    1.074   .     S
C567   C569    1.397   .     A
C568   H593    1.073   .     S
C568   C570    1.396   .     A
C569   C573    1.424   .     A
C569   C571    1.416   .     A
C570   C572    1.415   .     A
C570   C574    1.423   .     A
C571   C1279   1.387   .     S
C572   C1280   1.386   1_554 S
C573   C576    1.419   .     A
C573   C1276   1.422   .     S
C574   C575    1.418   .     A
C574   C1275   1.422   1_554 S
C575   H603    1.076   .     S
C575   C577    1.383   .     A
C576   C578    1.384   .     A
C576   H604    1.075   .     S
C577   H591    1.084   .     S
C577   C1273   1.387   1_554 S
C578   H592    1.083   .     S
C578   C1274   1.386   .     S
C579   N605    1.434   .     S
C579   C584    1.402   .     A
C579   C113    1.383   1_565 S
C580   C583    1.402   .     A
C580   N608    1.435   .     S
C581   C583    1.404   .     A
C581   N611    1.438   .     S
C582   N614    1.437   .     S
C582   C584    1.403   .     A
C582   C112    1.382   1_565 S
C585   N590    1.361   .     A
C585   H617    1.082   .     S
C585   C665    1.418   .     S
C586   N589    1.361   .     A
C586   H618    1.082   .     S
C587   N589    1.375   .     A
C587   N619    1.426   .     S
C588   N590    1.375   .     A
C588   N622    1.426   .     S
C588   C664    1.418   .     S
N595   O597    1.301   .     A
N595   O596    1.301   .     A
N598   O600    1.301   .     A
N598   O599    1.301   .     A
N605   O606    1.301   .     A
N605   O607    1.301   .     A
N608   O609    1.301   .     A
N608   O610    1.301   .     A
N611   O613    1.301   .     A
N611   O612    1.301   .     A
N614   O615    1.301   .     A
N614   O616    1.301   .     A
N619   O620    1.300   .     A
N619   O621    1.300   .     A
N622   O623    1.300   .     A
N622   O624    1.301   .     A
O625   C629    1.282   .     A
O625   Zn637   1.985   .     S
O626   C630    1.282   .     A
O626   Zn638   1.985   .     S
O627   Zn638   1.991   .     S
O627   C629    1.281   .     A
O628   Zn637   1.991   .     S
O628   C630    1.281   .     A
C629   C662    1.411   .     S
C630   C661    1.411   .     S
O631   C635    1.290   .     A
O631   Zn637   1.974   .     S
O632   Zn638   1.974   .     S
O632   C636    1.292   .     A
O633   Zn638   1.912   .     S
O633   C635    1.303   .     A
O634   C636    1.302   .     A
O634   Zn637   1.912   .     S
C635   C639    1.467   .     S
C636   C640    1.467   .     S
Zn637  N667    2.015   .     S
Zn638  N668    2.015   .     S
C639   C643    1.415   .     A
C639   C645    1.393   .     A
C640   C644    1.414   .     A
C640   C646    1.395   .     A
C641   H679    1.084   .     S
C641   C649    1.401   .     A
C641   C643    1.397   .     A
C642   C650    1.401   .     A
C642   C644    1.397   .     A
C642   H680    1.084   .     S
C643   N676    1.437   .     S
C644   N673    1.435   .     S
C645   H672    1.074   .     S
C645   C647    1.397   .     A
C646   H671    1.073   .     S
C646   C648    1.396   .     A
C647   C651    1.424   .     A
C647   C649    1.416   .     A
C648   C650    1.415   .     A
C648   C652    1.423   .     A
C649   C1357   1.387   .     S
C650   C1358   1.386   1_554 S
C651   C654    1.419   .     A
C651   C1354   1.422   .     S
C652   C653    1.418   .     A
C652   C1353   1.422   1_554 S
C653   H681    1.076   .     S
C653   C655    1.383   .     A
C654   C656    1.384   .     A
C654   H682    1.075   .     S
C655   H669    1.084   .     S
C655   C1351   1.387   1_554 S
C656   H670    1.083   .     S
C656   C1352   1.386   .     S
C657   N683    1.434   .     S
C657   C662    1.402   .     A
C657   C191    1.383   1_565 S
C658   C661    1.402   .     A
C658   N686    1.435   .     S
C659   C661    1.404   .     A
C659   N689    1.438   .     S
C660   N692    1.437   .     S
C660   C662    1.403   .     A
C660   C190    1.382   1_565 S
C663   N668    1.361   .     A
C663   H695    1.082   .     S
C663   C509    1.418   1_655 S
C664   N667    1.361   .     A
C664   H696    1.082   .     S
C665   N667    1.375   .     A
C665   N697    1.426   .     S
C666   N668    1.375   .     A
C666   N700    1.426   .     S
C666   C508    1.418   1_655 S
N673   O675    1.301   .     A
N673   O674    1.301   .     A
N676   O678    1.301   .     A
N676   O677    1.301   .     A
N683   O684    1.301   .     A
N683   O685    1.301   .     A
N686   O687    1.301   .     A
N686   O688    1.301   .     A
N689   O691    1.301   .     A
N689   O690    1.301   .     A
N692   O693    1.301   .     A
N692   O694    1.301   .     A
N697   O698    1.300   .     A
N697   O699    1.300   .     A
N700   O701    1.300   .     A
N700   O702    1.301   .     A
O703   C707    1.282   .     A
O703   Zn715   1.985   .     S
O704   C708    1.282   .     A
O704   Zn716   1.985   .     S
O705   Zn716   1.991   .     S
O705   C707    1.281   .     A
O706   Zn715   1.991   .     S
O706   C708    1.281   .     A
C707   C740    1.411   .     S
C708   C739    1.411   .     S
O709   C713    1.290   .     A
O709   Zn715   1.974   .     S
O710   Zn716   1.974   .     S
O710   C714    1.292   .     A
O711   Zn716   1.912   .     S
O711   C713    1.303   .     A
O712   C714    1.302   .     A
O712   Zn715   1.912   .     S
C713   C717    1.467   .     S
C714   C718    1.467   .     S
Zn715  N745    2.015   .     S
Zn716  N746    2.015   .     S
C717   C721    1.415   .     A
C717   C723    1.393   .     A
C718   C722    1.414   .     A
C718   C724    1.395   .     A
C719   H757    1.084   .     S
C719   C727    1.401   .     A
C719   C721    1.397   .     A
C720   C728    1.401   .     A
C720   C722    1.397   .     A
C720   H758    1.084   .     S
C721   N754    1.437   .     S
C722   N751    1.435   .     S
C723   H750    1.074   .     S
C723   C725    1.397   .     A
C724   H749    1.073   .     S
C724   C726    1.396   .     A
C725   C729    1.424   .     A
C725   C727    1.416   .     A
C726   C728    1.415   .     A
C726   C730    1.423   .     A
C727   C31     1.387   1_556 S
C729   C732    1.419   .     A
C729   C28     1.422   1_556 S
C730   C731    1.418   .     A
C731   H759    1.076   .     S
C731   C733    1.383   .     A
C732   C734    1.384   .     A
C732   H760    1.075   .     S
C733   H747    1.084   .     S
C734   H748    1.083   .     S
C734   C26     1.386   1_556 S
C735   N761    1.434   .     S
C735   C740    1.402   .     A
C735   C971    1.383   .     S
C736   C739    1.402   .     A
C736   N764    1.435   .     S
C736   C1206   1.382   1_545 S
C737   C739    1.404   .     A
C737   N767    1.438   .     S
C737   C1203   1.383   1_545 S
C738   N770    1.437   .     S
C738   C740    1.403   .     A
C738   C970    1.382   .     S
C741   N746    1.361   .     A
C741   H773    1.082   .     S
C741   C821    1.418   .     S
C742   N745    1.361   .     A
C742   H774    1.082   .     S
C742   C900    1.418   1_455 S
C743   N745    1.375   .     A
C743   N775    1.426   .     S
C743   C897    1.418   1_455 S
C744   N746    1.375   .     A
C744   N778    1.426   .     S
C744   C820    1.418   .     S
N751   O753    1.301   .     A
N751   O752    1.301   .     A
N754   O756    1.301   .     A
N754   O755    1.301   .     A
N761   O762    1.301   .     A
N761   O763    1.301   .     A
N764   O765    1.301   .     A
N764   O766    1.301   .     A
N767   O769    1.301   .     A
N767   O768    1.301   .     A
N770   O771    1.301   .     A
N770   O772    1.301   .     A
N775   O776    1.300   .     A
N775   O777    1.300   .     A
N778   O779    1.300   .     A
N778   O780    1.301   .     A
O781   C785    1.282   .     A
O781   Zn793   1.985   .     S
O782   C786    1.282   .     A
O782   Zn794   1.985   .     S
O783   Zn794   1.991   .     S
O783   C785    1.281   .     A
O784   Zn793   1.991   .     S
O784   C786    1.281   .     A
C785   C818    1.411   .     S
C786   C817    1.411   .     S
O787   C791    1.290   .     A
O787   Zn793   1.974   .     S
O788   Zn794   1.974   .     S
O788   C792    1.292   .     A
O789   Zn794   1.912   .     S
O789   C791    1.303   .     A
O790   C792    1.302   .     A
O790   Zn793   1.912   .     S
C791   C795    1.467   .     S
C792   C796    1.467   .     S
Zn793  N823    2.015   .     S
Zn794  N824    2.015   .     S
C795   C799    1.415   .     A
C795   C801    1.393   .     A
C796   C800    1.414   .     A
C796   C802    1.395   .     A
C797   H835    1.084   .     S
C797   C805    1.401   .     A
C797   C799    1.397   .     A
C798   C806    1.401   .     A
C798   C800    1.397   .     A
C798   H836    1.084   .     S
C799   N832    1.437   .     S
C800   N829    1.435   .     S
C801   H828    1.074   .     S
C801   C803    1.397   .     A
C802   H827    1.073   .     S
C802   C804    1.396   .     A
C803   C807    1.424   .     A
C803   C805    1.416   .     A
C804   C806    1.415   .     A
C804   C808    1.423   .     A
C805   C109    1.387   1_556 S
C807   C810    1.419   .     A
C807   C106    1.422   1_556 S
C808   C809    1.418   .     A
C809   H837    1.076   .     S
C809   C811    1.383   .     A
C810   C812    1.384   .     A
C810   H838    1.075   .     S
C811   H825    1.084   .     S
C812   H826    1.083   .     S
C812   C104    1.386   1_556 S
C813   N839    1.434   .     S
C813   C818    1.402   .     A
C813   C1049   1.383   .     S
C814   C817    1.402   .     A
C814   N842    1.435   .     S
C814   C1284   1.382   1_545 S
C815   C817    1.404   .     A
C815   N845    1.438   .     S
C815   C1281   1.383   1_545 S
C816   N848    1.437   .     S
C816   C818    1.403   .     A
C816   C1048   1.382   .     S
C819   N824    1.361   .     A
C819   H851    1.082   .     S
C819   C899    1.418   .     S
C820   N823    1.361   .     A
C820   H852    1.082   .     S
C821   N823    1.375   .     A
C821   N853    1.426   .     S
C822   N824    1.375   .     A
C822   N856    1.426   .     S
C822   C898    1.418   .     S
N829   O831    1.301   .     A
N829   O830    1.301   .     A
N832   O834    1.301   .     A
N832   O833    1.301   .     A
N839   O840    1.301   .     A
N839   O841    1.301   .     A
N842   O843    1.301   .     A
N842   O844    1.301   .     A
N845   O847    1.301   .     A
N845   O846    1.301   .     A
N848   O849    1.301   .     A
N848   O850    1.301   .     A
N853   O854    1.300   .     A
N853   O855    1.300   .     A
N856   O857    1.300   .     A
N856   O858    1.301   .     A
O859   C863    1.282   .     A
O859   Zn871   1.985   .     S
O860   C864    1.282   .     A
O860   Zn872   1.985   .     S
O861   Zn872   1.991   .     S
O861   C863    1.281   .     A
O862   Zn871   1.991   .     S
O862   C864    1.281   .     A
C863   C896    1.411   .     S
C864   C895    1.411   .     S
O865   C869    1.290   .     A
O865   Zn871   1.974   .     S
O866   Zn872   1.974   .     S
O866   C870    1.292   .     A
O867   Zn872   1.912   .     S
O867   C869    1.303   .     A
O868   C870    1.302   .     A
O868   Zn871   1.912   .     S
C869   C873    1.467   .     S
C870   C874    1.467   .     S
Zn871  N901    2.015   .     S
Zn872  N902    2.015   .     S
C873   C877    1.415   .     A
C873   C879    1.393   .     A
C874   C878    1.414   .     A
C874   C880    1.395   .     A
C875   H913    1.084   .     S
C875   C883    1.401   .     A
C875   C877    1.397   .     A
C876   C884    1.401   .     A
C876   C878    1.397   .     A
C876   H914    1.084   .     S
C877   N910    1.437   .     S
C878   N907    1.435   .     S
C879   H906    1.074   .     S
C879   C881    1.397   .     A
C880   H905    1.073   .     S
C880   C882    1.396   .     A
C881   C885    1.424   .     A
C881   C883    1.416   .     A
C882   C884    1.415   .     A
C882   C886    1.423   .     A
C883   C187    1.387   1_556 S
C885   C888    1.419   .     A
C885   C184    1.422   1_556 S
C886   C887    1.418   .     A
C887   H915    1.076   .     S
C887   C889    1.383   .     A
C888   C890    1.384   .     A
C888   H916    1.075   .     S
C889   H903    1.084   .     S
C890   H904    1.083   .     S
C890   C182    1.386   1_556 S
C891   N917    1.434   .     S
C891   C896    1.402   .     A
C891   C1127   1.383   .     S
C892   C895    1.402   .     A
C892   N920    1.435   .     S
C892   C1362   1.382   1_545 S
C893   C895    1.404   .     A
C893   N923    1.438   .     S
C893   C1359   1.383   1_545 S
C894   N926    1.437   .     S
C894   C896    1.403   .     A
C894   C1126   1.382   .     S
C897   N902    1.361   .     A
C897   H929    1.082   .     S
C897   C743    1.418   1_655 S
C898   N901    1.361   .     A
C898   H930    1.082   .     S
C899   N901    1.375   .     A
C899   N931    1.426   .     S
C900   N902    1.375   .     A
C900   N934    1.426   .     S
C900   C742    1.418   1_655 S
N907   O909    1.301   .     A
N907   O908    1.301   .     A
N910   O912    1.301   .     A
N910   O911    1.301   .     A
N917   O918    1.301   .     A
N917   O919    1.301   .     A
N920   O921    1.301   .     A
N920   O922    1.301   .     A
N923   O925    1.301   .     A
N923   O924    1.301   .     A
N926   O927    1.301   .     A
N926   O928    1.301   .     A
N931   O932    1.300   .     A
N931   O933    1.300   .     A
N934   O935    1.300   .     A
N934   O936    1.301   .     A
O937   C941    1.282   .     A
O937   Zn949   1.985   .     S
O938   C942    1.282   .     A
O938   Zn950   1.985   .     S
O939   Zn950   1.991   .     S
O939   C941    1.281   .     A
O940   Zn949   1.991   .     S
O940   C942    1.281   .     A
C941   C974    1.411   .     S
C942   C973    1.411   .     S
O943   C947    1.290   .     A
O943   Zn949   1.974   .     S
O944   Zn950   1.974   .     S
O944   C948    1.292   .     A
O945   Zn950   1.912   .     S
O945   C947    1.303   .     A
O946   C948    1.302   .     A
O946   Zn949   1.912   .     S
C947   C951    1.467   .     S
C948   C952    1.467   .     S
Zn949  N979    2.015   .     S
Zn950  N980    2.015   .     S
C951   C955    1.415   .     A
C951   C957    1.393   .     A
C952   C956    1.414   .     A
C952   C958    1.395   .     A
C953   H991    1.084   .     S
C953   C961    1.401   .     A
C953   C955    1.397   .     A
C954   C962    1.401   .     A
C954   C956    1.397   .     A
C954   H992    1.084   .     S
C955   N988    1.437   .     S
C956   N985    1.435   .     S
C957   H984    1.074   .     S
C957   C959    1.397   .     A
C958   H983    1.073   .     S
C958   C960    1.396   .     A
C959   C963    1.424   .     A
C959   C961    1.416   .     A
C960   C962    1.415   .     A
C960   C964    1.423   .     A
C961   C265    1.387   1_556 S
C963   C966    1.419   .     A
C963   C262    1.422   1_556 S
C964   C965    1.418   .     A
C965   H993    1.076   .     S
C965   C967    1.383   .     A
C966   C968    1.384   .     A
C966   H994    1.075   .     S
C967   H981    1.084   .     S
C968   H982    1.083   .     S
C968   C260    1.386   1_556 S
C969   N995    1.434   .     S
C969   C974    1.402   .     A
C969   C1205   1.383   .     S
C970   C973    1.402   .     A
C970   N998    1.435   .     S
C971   C973    1.404   .     A
C971   N1001   1.438   .     S
C972   N1004   1.437   .     S
C972   C974    1.403   .     A
C972   C1204   1.382   .     S
C975   N980    1.361   .     A
C975   H1007   1.082   .     S
C975   C1055   1.418   .     S
C976   N979    1.361   .     A
C976   H1008   1.082   .     S
C976   C1134   1.418   1_455 S
C977   N979    1.375   .     A
C977   N1009   1.426   .     S
C977   C1131   1.418   1_455 S
C978   N980    1.375   .     A
C978   N1012   1.426   .     S
C978   C1054   1.418   .     S
N985   O987    1.301   .     A
N985   O986    1.301   .     A
N988   O990    1.301   .     A
N988   O989    1.301   .     A
N995   O996    1.301   .     A
N995   O997    1.301   .     A
N998   O999    1.301   .     A
N998   O1000   1.301   .     A
N1001  O1003   1.301   .     A
N1001  O1002   1.301   .     A
N1004  O1005   1.301   .     A
N1004  O1006   1.301   .     A
N1009  O1010   1.300   .     A
N1009  O1011   1.300   .     A
N1012  O1013   1.300   .     A
N1012  O1014   1.301   .     A
O1015  C1019   1.282   .     A
O1015  Zn1027  1.985   .     S
O1016  C1020   1.282   .     A
O1016  Zn1028  1.985   .     S
O1017  Zn1028  1.991   .     S
O1017  C1019   1.281   .     A
O1018  Zn1027  1.991   .     S
O1018  C1020   1.281   .     A
C1019  C1052   1.411   .     S
C1020  C1051   1.411   .     S
O1021  C1025   1.290   .     A
O1021  Zn1027  1.974   .     S
O1022  Zn1028  1.974   .     S
O1022  C1026   1.292   .     A
O1023  Zn1028  1.912   .     S
O1023  C1025   1.303   .     A
O1024  C1026   1.302   .     A
O1024  Zn1027  1.912   .     S
C1025  C1029   1.467   .     S
C1026  C1030   1.467   .     S
Zn1027 N1057   2.015   .     S
Zn1028 N1058   2.015   .     S
C1029  C1033   1.415   .     A
C1029  C1035   1.393   .     A
C1030  C1034   1.414   .     A
C1030  C1036   1.395   .     A
C1031  H1069   1.084   .     S
C1031  C1039   1.401   .     A
C1031  C1033   1.397   .     A
C1032  C1040   1.401   .     A
C1032  C1034   1.397   .     A
C1032  H1070   1.084   .     S
C1033  N1066   1.437   .     S
C1034  N1063   1.435   .     S
C1035  H1062   1.074   .     S
C1035  C1037   1.397   .     A
C1036  H1061   1.073   .     S
C1036  C1038   1.396   .     A
C1037  C1041   1.424   .     A
C1037  C1039   1.416   .     A
C1038  C1040   1.415   .     A
C1038  C1042   1.423   .     A
C1039  C343    1.387   1_556 S
C1041  C1044   1.419   .     A
C1041  C340    1.422   1_556 S
C1042  C1043   1.418   .     A
C1043  H1071   1.076   .     S
C1043  C1045   1.383   .     A
C1044  C1046   1.384   .     A
C1044  H1072   1.075   .     S
C1045  H1059   1.084   .     S
C1046  H1060   1.083   .     S
C1046  C338    1.386   1_556 S
C1047  N1073   1.434   .     S
C1047  C1052   1.402   .     A
C1047  C1283   1.383   .     S
C1048  C1051   1.402   .     A
C1048  N1076   1.435   .     S
C1049  C1051   1.404   .     A
C1049  N1079   1.438   .     S
C1050  N1082   1.437   .     S
C1050  C1052   1.403   .     A
C1050  C1282   1.382   .     S
C1053  N1058   1.361   .     A
C1053  H1085   1.082   .     S
C1053  C1133   1.418   .     S
C1054  N1057   1.361   .     A
C1054  H1086   1.082   .     S
C1055  N1057   1.375   .     A
C1055  N1087   1.426   .     S
C1056  N1058   1.375   .     A
C1056  N1090   1.426   .     S
C1056  C1132   1.418   .     S
N1063  O1065   1.301   .     A
N1063  O1064   1.301   .     A
N1066  O1068   1.301   .     A
N1066  O1067   1.301   .     A
N1073  O1074   1.301   .     A
N1073  O1075   1.301   .     A
N1076  O1077   1.301   .     A
N1076  O1078   1.301   .     A
N1079  O1081   1.301   .     A
N1079  O1080   1.301   .     A
N1082  O1083   1.301   .     A
N1082  O1084   1.301   .     A
N1087  O1088   1.300   .     A
N1087  O1089   1.300   .     A
N1090  O1091   1.300   .     A
N1090  O1092   1.301   .     A
O1093  C1097   1.282   .     A
O1093  Zn1105  1.985   .     S
O1094  C1098   1.282   .     A
O1094  Zn1106  1.985   .     S
O1095  Zn1106  1.991   .     S
O1095  C1097   1.281   .     A
O1096  Zn1105  1.991   .     S
O1096  C1098   1.281   .     A
C1097  C1130   1.411   .     S
C1098  C1129   1.411   .     S
O1099  C1103   1.290   .     A
O1099  Zn1105  1.974   .     S
O1100  Zn1106  1.974   .     S
O1100  C1104   1.292   .     A
O1101  Zn1106  1.912   .     S
O1101  C1103   1.303   .     A
O1102  C1104   1.302   .     A
O1102  Zn1105  1.912   .     S
C1103  C1107   1.467   .     S
C1104  C1108   1.467   .     S
Zn1105 N1135   2.015   .     S
Zn1106 N1136   2.015   .     S
C1107  C1111   1.415   .     A
C1107  C1113   1.393   .     A
C1108  C1112   1.414   .     A
C1108  C1114   1.395   .     A
C1109  H1147   1.084   .     S
C1109  C1117   1.401   .     A
C1109  C1111   1.397   .     A
C1110  C1118   1.401   .     A
C1110  C1112   1.397   .     A
C1110  H1148   1.084   .     S
C1111  N1144   1.437   .     S
C1112  N1141   1.435   .     S
C1113  H1140   1.074   .     S
C1113  C1115   1.397   .     A
C1114  H1139   1.073   .     S
C1114  C1116   1.396   .     A
C1115  C1119   1.424   .     A
C1115  C1117   1.416   .     A
C1116  C1118   1.415   .     A
C1116  C1120   1.423   .     A
C1117  C421    1.387   1_556 S
C1119  C1122   1.419   .     A
C1119  C418    1.422   1_556 S
C1120  C1121   1.418   .     A
C1121  H1149   1.076   .     S
C1121  C1123   1.383   .     A
C1122  C1124   1.384   .     A
C1122  H1150   1.075   .     S
C1123  H1137   1.084   .     S
C1124  H1138   1.083   .     S
C1124  C416    1.386   1_556 S
C1125  N1151   1.434   .     S
C1125  C1130   1.402   .     A
C1125  C1361   1.383   .     S
C1126  C1129   1.402   .     A
C1126  N1154   1.435   .     S
C1127  C1129   1.404   .     A
C1127  N1157   1.438   .     S
C1128  N1160   1.437   .     S
C1128  C1130   1.403   .     A
C1128  C1360   1.382   .     S
C1131  N1136   1.361   .     A
C1131  H1163   1.082   .     S
C1131  C977    1.418   1_655 S
C1132  N1135   1.361   .     A
C1132  H1164   1.082   .     S
C1133  N1135   1.375   .     A
C1133  N1165   1.426   .     S
C1134  N1136   1.375   .     A
C1134  N1168   1.426   .     S
C1134  C976    1.418   1_655 S
N1141  O1143   1.301   .     A
N1141  O1142   1.301   .     A
N1144  O1146   1.301   .     A
N1144  O1145   1.301   .     A
N1151  O1152   1.301   .     A
N1151  O1153   1.301   .     A
N1154  O1155   1.301   .     A
N1154  O1156   1.301   .     A
N1157  O1159   1.301   .     A
N1157  O1158   1.301   .     A
N1160  O1161   1.301   .     A
N1160  O1162   1.301   .     A
N1165  O1166   1.300   .     A
N1165  O1167   1.300   .     A
N1168  O1169   1.300   .     A
N1168  O1170   1.301   .     A
O1171  C1175   1.282   .     A
O1171  Zn1183  1.985   .     S
O1172  C1176   1.282   .     A
O1172  Zn1184  1.985   .     S
O1173  Zn1184  1.991   .     S
O1173  C1175   1.281   .     A
O1174  Zn1183  1.991   .     S
O1174  C1176   1.281   .     A
C1175  C1208   1.411   .     S
C1176  C1207   1.411   .     S
O1177  C1181   1.290   .     A
O1177  Zn1183  1.974   .     S
O1178  Zn1184  1.974   .     S
O1178  C1182   1.292   .     A
O1179  Zn1184  1.912   .     S
O1179  C1181   1.303   .     A
O1180  C1182   1.302   .     A
O1180  Zn1183  1.912   .     S
C1181  C1185   1.467   .     S
C1182  C1186   1.467   .     S
Zn1183 N1213   2.015   .     S
Zn1184 N1214   2.015   .     S
C1185  C1189   1.415   .     A
C1185  C1191   1.393   .     A
C1186  C1190   1.414   .     A
C1186  C1192   1.395   .     A
C1187  H1225   1.084   .     S
C1187  C1195   1.401   .     A
C1187  C1189   1.397   .     A
C1188  C1196   1.401   .     A
C1188  C1190   1.397   .     A
C1188  H1226   1.084   .     S
C1189  N1222   1.437   .     S
C1190  N1219   1.435   .     S
C1191  H1218   1.074   .     S
C1191  C1193   1.397   .     A
C1192  H1217   1.073   .     S
C1192  C1194   1.396   .     A
C1193  C1197   1.424   .     A
C1193  C1195   1.416   .     A
C1194  C1196   1.415   .     A
C1194  C1198   1.423   .     A
C1195  C499    1.387   1_556 S
C1197  C1200   1.419   .     A
C1197  C496    1.422   1_556 S
C1198  C1199   1.418   .     A
C1199  H1227   1.076   .     S
C1199  C1201   1.383   .     A
C1200  C1202   1.384   .     A
C1200  H1228   1.075   .     S
C1201  H1215   1.084   .     S
C1202  H1216   1.083   .     S
C1202  C494    1.386   1_556 S
C1203  N1229   1.434   .     S
C1203  C1208   1.402   .     A
C1203  C737    1.383   1_565 S
C1204  C1207   1.402   .     A
C1204  N1232   1.435   .     S
C1205  C1207   1.404   .     A
C1205  N1235   1.438   .     S
C1206  N1238   1.437   .     S
C1206  C1208   1.403   .     A
C1206  C736    1.382   1_565 S
C1209  N1214   1.361   .     A
C1209  H1241   1.082   .     S
C1209  C1289   1.418   .     S
C1210  N1213   1.361   .     A
C1210  H1242   1.082   .     S
C1210  C1368   1.418   1_455 S
C1211  N1213   1.375   .     A
C1211  N1243   1.426   .     S
C1211  C1365   1.418   1_455 S
C1212  N1214   1.375   .     A
C1212  N1246   1.426   .     S
C1212  C1288   1.418   .     S
N1219  O1221   1.301   .     A
N1219  O1220   1.301   .     A
N1222  O1224   1.301   .     A
N1222  O1223   1.301   .     A
N1229  O1230   1.301   .     A
N1229  O1231   1.301   .     A
N1232  O1233   1.301   .     A
N1232  O1234   1.301   .     A
N1235  O1237   1.301   .     A
N1235  O1236   1.301   .     A
N1238  O1239   1.301   .     A
N1238  O1240   1.301   .     A
N1243  O1244   1.300   .     A
N1243  O1245   1.300   .     A
N1246  O1247   1.300   .     A
N1246  O1248   1.301   .     A
O1249  C1253   1.282   .     A
O1249  Zn1261  1.985   .     S
O1250  C1254   1.282   .     A
O1250  Zn1262  1.985   .     S
O1251  Zn1262  1.991   .     S
O1251  C1253   1.281   .     A
O1252  Zn1261  1.991   .     S
O1252  C1254   1.281   .     A
C1253  C1286   1.411   .     S
C1254  C1285   1.411   .     S
O1255  C1259   1.290   .     A
O1255  Zn1261  1.974   .     S
O1256  Zn1262  1.974   .     S
O1256  C1260   1.292   .     A
O1257  Zn1262  1.912   .     S
O1257  C1259   1.303   .     A
O1258  C1260   1.302   .     A
O1258  Zn1261  1.912   .     S
C1259  C1263   1.467   .     S
C1260  C1264   1.467   .     S
Zn1261 N1291   2.015   .     S
Zn1262 N1292   2.015   .     S
C1263  C1267   1.415   .     A
C1263  C1269   1.393   .     A
C1264  C1268   1.414   .     A
C1264  C1270   1.395   .     A
C1265  H1303   1.084   .     S
C1265  C1273   1.401   .     A
C1265  C1267   1.397   .     A
C1266  C1274   1.401   .     A
C1266  C1268   1.397   .     A
C1266  H1304   1.084   .     S
C1267  N1300   1.437   .     S
C1268  N1297   1.435   .     S
C1269  H1296   1.074   .     S
C1269  C1271   1.397   .     A
C1270  H1295   1.073   .     S
C1270  C1272   1.396   .     A
C1271  C1275   1.424   .     A
C1271  C1273   1.416   .     A
C1272  C1274   1.415   .     A
C1272  C1276   1.423   .     A
C1273  C577    1.387   1_556 S
C1275  C1278   1.419   .     A
C1275  C574    1.422   1_556 S
C1276  C1277   1.418   .     A
C1277  H1305   1.076   .     S
C1277  C1279   1.383   .     A
C1278  C1280   1.384   .     A
C1278  H1306   1.075   .     S
C1279  H1293   1.084   .     S
C1280  H1294   1.083   .     S
C1280  C572    1.386   1_556 S
C1281  N1307   1.434   .     S
C1281  C1286   1.402   .     A
C1281  C815    1.383   1_565 S
C1282  C1285   1.402   .     A
C1282  N1310   1.435   .     S
C1283  C1285   1.404   .     A
C1283  N1313   1.438   .     S
C1284  N1316   1.437   .     S
C1284  C1286   1.403   .     A
C1284  C814    1.382   1_565 S
C1287  N1292   1.361   .     A
C1287  H1319   1.082   .     S
C1287  C1367   1.418   .     S
C1288  N1291   1.361   .     A
C1288  H1320   1.082   .     S
C1289  N1291   1.375   .     A
C1289  N1321   1.426   .     S
C1290  N1292   1.375   .     A
C1290  N1324   1.426   .     S
C1290  C1366   1.418   .     S
N1297  O1299   1.301   .     A
N1297  O1298   1.301   .     A
N1300  O1302   1.301   .     A
N1300  O1301   1.301   .     A
N1307  O1308   1.301   .     A
N1307  O1309   1.301   .     A
N1310  O1311   1.301   .     A
N1310  O1312   1.301   .     A
N1313  O1315   1.301   .     A
N1313  O1314   1.301   .     A
N1316  O1317   1.301   .     A
N1316  O1318   1.301   .     A
N1321  O1322   1.300   .     A
N1321  O1323   1.300   .     A
N1324  O1325   1.300   .     A
N1324  O1326   1.301   .     A
O1327  C1331   1.282   .     A
O1327  Zn1339  1.985   .     S
O1328  C1332   1.282   .     A
O1328  Zn1340  1.985   .     S
O1329  Zn1340  1.991   .     S
O1329  C1331   1.281   .     A
O1330  Zn1339  1.991   .     S
O1330  C1332   1.281   .     A
C1331  C1364   1.411   .     S
C1332  C1363   1.411   .     S
O1333  C1337   1.290   .     A
O1333  Zn1339  1.974   .     S
O1334  Zn1340  1.974   .     S
O1334  C1338   1.292   .     A
O1335  Zn1340  1.912   .     S
O1335  C1337   1.303   .     A
O1336  C1338   1.302   .     A
O1336  Zn1339  1.912   .     S
C1337  C1341   1.467   .     S
C1338  C1342   1.467   .     S
Zn1339 N1369   2.015   .     S
Zn1340 N1370   2.015   .     S
C1341  C1345   1.415   .     A
C1341  C1347   1.393   .     A
C1342  C1346   1.414   .     A
C1342  C1348   1.395   .     A
C1343  H1381   1.084   .     S
C1343  C1351   1.401   .     A
C1343  C1345   1.397   .     A
C1344  C1352   1.401   .     A
C1344  C1346   1.397   .     A
C1344  H1382   1.084   .     S
C1345  N1378   1.437   .     S
C1346  N1375   1.435   .     S
C1347  H1374   1.074   .     S
C1347  C1349   1.397   .     A
C1348  H1373   1.073   .     S
C1348  C1350   1.396   .     A
C1349  C1353   1.424   .     A
C1349  C1351   1.416   .     A
C1350  C1352   1.415   .     A
C1350  C1354   1.423   .     A
C1351  C655    1.387   1_556 S
C1353  C1356   1.419   .     A
C1353  C652    1.422   1_556 S
C1354  C1355   1.418   .     A
C1355  H1383   1.076   .     S
C1355  C1357   1.383   .     A
C1356  C1358   1.384   .     A
C1356  H1384   1.075   .     S
C1357  H1371   1.084   .     S
C1358  H1372   1.083   .     S
C1358  C650    1.386   1_556 S
C1359  N1385   1.434   .     S
C1359  C1364   1.402   .     A
C1359  C893    1.383   1_565 S
C1360  C1363   1.402   .     A
C1360  N1388   1.435   .     S
C1361  C1363   1.404   .     A
C1361  N1391   1.438   .     S
C1362  N1394   1.437   .     S
C1362  C1364   1.403   .     A
C1362  C892    1.382   1_565 S
C1365  N1370   1.361   .     A
C1365  H1397   1.082   .     S
C1365  C1211   1.418   1_655 S
C1366  N1369   1.361   .     A
C1366  H1398   1.082   .     S
C1367  N1369   1.375   .     A
C1367  N1399   1.426   .     S
C1368  N1370   1.375   .     A
C1368  N1402   1.426   .     S
C1368  C1210   1.418   1_655 S
N1375  O1377   1.301   .     A
N1375  O1376   1.301   .     A
N1378  O1380   1.301   .     A
N1378  O1379   1.301   .     A
N1385  O1386   1.301   .     A
N1385  O1387   1.301   .     A
N1388  O1389   1.301   .     A
N1388  O1390   1.301   .     A
N1391  O1393   1.301   .     A
N1391  O1392   1.301   .     A
N1394  O1395   1.301   .     A
N1394  O1396   1.301   .     A
N1399  O1400   1.300   .     A
N1399  O1401   1.300   .     A
N1402  O1403   1.300   .     A
N1402  O1404   1.301   .     A
