data_str_m3_o10_o18_pcu_sym.120
_audit_creation_date              2020-01-03
_audit_creation_method            'Materials Studio'
_symmetry_space_group_name_H-M    'P1'
_symmetry_Int_Tables_number       1
_symmetry_cell_setting            triclinic
loop_
_symmetry_equiv_pos_as_xyz
  x,y,z
_cell_length_a                    23.5196
_cell_length_b                    25.6803
_cell_length_c                    27.3870
_cell_angle_alpha                 93.3647
_cell_angle_beta                  93.0797
_cell_angle_gamma                 94.2011
loop_
_atom_site_label
_atom_site_type_symbol
_atom_site_fract_x
_atom_site_fract_y
_atom_site_fract_z
_atom_site_U_iso_or_equiv
_atom_site_adp_type
_atom_site_occupancy
C1     C     0.01507   0.26490   0.24890   0.00000  Uiso   1.00
C2     C     0.31130   0.15836   0.15860   0.00000  Uiso   1.00
C3     C     0.03273   0.18538   0.39359   0.00000  Uiso   1.00
C4     C     0.29876   0.14804   0.10499   0.00000  Uiso   1.00
C5     C     0.03622   0.24787   0.46405   0.00000  Uiso   1.00
C6     C     0.32211   0.12353   0.02140   0.00000  Uiso   1.00
C7     C     0.01142   0.22972   0.41818   0.00000  Uiso   1.00
C8     C     0.00407   0.12717   0.07198   0.00000  Uiso   1.00
C9     C     0.07577   0.15900   0.41663   0.00000  Uiso   1.00
C10    C     0.24400   0.15823   0.08639   0.00000  Uiso   1.00
C11    C     0.10836   0.18502   0.45652   0.00000  Uiso   1.00
C12    C     0.31831   0.06845   0.25136   0.00000  Uiso   1.00
C13    C     0.23476   0.16481   0.03646   0.00000  Uiso   1.00
C14    C     0.08499   0.22661   0.48297   0.00000  Uiso   1.00
C15    C     0.27096   0.14172   0.00360   0.00000  Uiso   1.00
C16    C     0.16375   0.17178   0.47065   0.00000  Uiso   1.00
C17    C     0.18592   0.18727   0.01829   0.00000  Uiso   1.00
C18    C     0.19334   0.14221   0.11385   0.00000  Uiso   1.00
C19    C     0.08039   0.10236   0.40243   0.00000  Uiso   1.00
C20    C     0.05558   0.10155   0.08871   0.00000  Uiso   1.00
C21    C     0.29873   0.26002   0.39780   0.00000  Uiso   1.00
C22    C     0.16054   0.22648   0.04580   0.00000  Uiso   1.00
C23    C     0.19924   0.14702   0.43790   0.00000  Uiso   1.00
C24    C     0.11148   0.24719   0.02747   0.00000  Uiso   1.00
C25    C     0.25324   0.13378   0.45399   0.00000  Uiso   1.00
C26    C     0.02294   0.31950   0.24841   0.00000  Uiso   1.00
C27    C     0.31052   0.01389   0.25230   0.00000  Uiso   1.00
C28    C     0.02131   0.17315   0.34110   0.00000  Uiso   1.00
H29    H     0.09391   0.27876   0.04835   0.00000  Uiso   1.00
H30    H     0.17106   0.20977   0.28514   0.00000  Uiso   1.00
H31    H     0.15891   0.16736   0.11899   0.00000  Uiso   1.00
H32    H     0.06255   0.08521   0.36729   0.00000  Uiso   1.00
H33    H     0.06325   0.09309   0.12660   0.00000  Uiso   1.00
H34    H     0.30211   0.30232   0.40387   0.00000  Uiso   1.00
H35    H     0.27977   0.11502   0.42817   0.00000  Uiso   1.00
H36    H     0.01926   0.28059   0.48387   0.00000  Uiso   1.00
H37    H     0.01579   0.10496   0.49586   0.00000  Uiso   1.00
H38    H     0.18020   0.24293   0.08051   0.00000  Uiso   1.00
H39    H     0.18647   0.13964   0.39943   0.00000  Uiso   1.00
H40    H     0.06605   0.00334   0.24472   0.00000  Uiso   1.00
H41    H     0.26742   0.33005   0.25604   0.00000  Uiso   1.00
H42    H     0.16219   0.12276   0.21592   0.00000  Uiso   1.00
N43    N     0.14695   0.15216   0.23739   0.00000  Uiso   1.00
N44    N     0.18638   0.18117   0.26260   0.00000  Uiso   1.00
O45    O     0.29719   0.24631   0.25309   0.00000  Uiso   1.00
O46    O     0.10097   0.07334   0.43121   0.00000  Uiso   1.00
O47    O     0.08943   0.08711   0.05940   0.00000  Uiso   1.00
O48    O     0.25504   0.23854   0.37757   0.00000  Uiso   1.00
O49    O     0.03614   0.08702   0.24690   0.00000  Uiso   1.00
O50    O     0.05822   0.23702   0.24501   0.00000  Uiso   1.00
O51    O     0.27512   0.09632   0.25498   0.00000  Uiso   1.00
O52    O     0.30328   0.17397   0.32247   0.00000  Uiso   1.00
O53    O     0.03005   0.15937   0.17753   0.00000  Uiso   1.00
O54    O     0.06431   0.16467   0.31439   0.00000  Uiso   1.00
O55    O     0.26902   0.16866   0.18561   0.00000  Uiso   1.00
O56    O     0.18962   0.09903   0.13041   0.00000  Uiso   1.00
Zn57   Zn    0.27033   0.17287   0.25539   0.00000  Uiso   1.00
Zn58   Zn    0.06300   0.16046   0.24460   0.00000  Uiso   1.00
C59    C     0.34841   0.26490   0.24890   0.00000  Uiso   1.00
C60    C     0.64464   0.15836   0.15860   0.00000  Uiso   1.00
C61    C     0.36607   0.18538   0.39359   0.00000  Uiso   1.00
C62    C     0.63209   0.14804   0.10499   0.00000  Uiso   1.00
C63    C     0.36955   0.24787   0.46405   0.00000  Uiso   1.00
C64    C     0.65544   0.12353   0.02140   0.00000  Uiso   1.00
C65    C     0.34475   0.22972   0.41818   0.00000  Uiso   1.00
C66    C     0.33740   0.12717   0.07198   0.00000  Uiso   1.00
C67    C     0.40910   0.15900   0.41663   0.00000  Uiso   1.00
C68    C     0.57733   0.15823   0.08639   0.00000  Uiso   1.00
C69    C     0.44169   0.18502   0.45652   0.00000  Uiso   1.00
C70    C     0.65164   0.06845   0.25136   0.00000  Uiso   1.00
C71    C     0.56809   0.16481   0.03646   0.00000  Uiso   1.00
C72    C     0.41832   0.22661   0.48297   0.00000  Uiso   1.00
C73    C     0.60430   0.14172   0.00360   0.00000  Uiso   1.00
C74    C     0.49708   0.17178   0.47065   0.00000  Uiso   1.00
C75    C     0.51925   0.18727   0.01829   0.00000  Uiso   1.00
C76    C     0.52667   0.14221   0.11385   0.00000  Uiso   1.00
C77    C     0.41372   0.10236   0.40243   0.00000  Uiso   1.00
C78    C     0.38891   0.10155   0.08871   0.00000  Uiso   1.00
C79    C     0.63206   0.26002   0.39780   0.00000  Uiso   1.00
C80    C     0.49387   0.22648   0.04580   0.00000  Uiso   1.00
C81    C     0.53257   0.14702   0.43790   0.00000  Uiso   1.00
C82    C     0.44481   0.24719   0.02747   0.00000  Uiso   1.00
C83    C     0.58657   0.13378   0.45399   0.00000  Uiso   1.00
C84    C     0.35628   0.31950   0.24841   0.00000  Uiso   1.00
C85    C     0.64385   0.01389   0.25230   0.00000  Uiso   1.00
C86    C     0.35464   0.17315   0.34110   0.00000  Uiso   1.00
H87    H     0.42725   0.27876   0.04835   0.00000  Uiso   1.00
H88    H     0.50439   0.20977   0.28514   0.00000  Uiso   1.00
H89    H     0.49225   0.16736   0.11899   0.00000  Uiso   1.00
H90    H     0.39588   0.08521   0.36729   0.00000  Uiso   1.00
H91    H     0.39658   0.09309   0.12660   0.00000  Uiso   1.00
H92    H     0.63545   0.30232   0.40387   0.00000  Uiso   1.00
H93    H     0.61311   0.11502   0.42817   0.00000  Uiso   1.00
H94    H     0.35259   0.28059   0.48387   0.00000  Uiso   1.00
H95    H     0.34912   0.10496   0.49586   0.00000  Uiso   1.00
H96    H     0.51354   0.24293   0.08051   0.00000  Uiso   1.00
H97    H     0.51980   0.13964   0.39943   0.00000  Uiso   1.00
H98    H     0.39938   0.00334   0.24472   0.00000  Uiso   1.00
H99    H     0.60076   0.33005   0.25604   0.00000  Uiso   1.00
H100   H     0.49553   0.12276   0.21592   0.00000  Uiso   1.00
N101   N     0.48029   0.15216   0.23739   0.00000  Uiso   1.00
N102   N     0.51971   0.18117   0.26260   0.00000  Uiso   1.00
O103   O     0.63052   0.24631   0.25309   0.00000  Uiso   1.00
O104   O     0.43430   0.07334   0.43121   0.00000  Uiso   1.00
O105   O     0.42276   0.08711   0.05940   0.00000  Uiso   1.00
O106   O     0.58838   0.23854   0.37757   0.00000  Uiso   1.00
O107   O     0.36948   0.08702   0.24690   0.00000  Uiso   1.00
O108   O     0.39155   0.23702   0.24501   0.00000  Uiso   1.00
O109   O     0.60845   0.09632   0.25498   0.00000  Uiso   1.00
O110   O     0.63662   0.17397   0.32247   0.00000  Uiso   1.00
O111   O     0.36338   0.15937   0.17753   0.00000  Uiso   1.00
O112   O     0.39764   0.16467   0.31439   0.00000  Uiso   1.00
O113   O     0.60236   0.16866   0.18561   0.00000  Uiso   1.00
O114   O     0.52296   0.09903   0.13041   0.00000  Uiso   1.00
Zn115  Zn    0.60366   0.17287   0.25539   0.00000  Uiso   1.00
Zn116  Zn    0.39634   0.16046   0.24460   0.00000  Uiso   1.00
C117   C     0.68174   0.26490   0.24890   0.00000  Uiso   1.00
C118   C     0.97797   0.15836   0.15860   0.00000  Uiso   1.00
C119   C     0.69940   0.18538   0.39359   0.00000  Uiso   1.00
C120   C     0.96542   0.14804   0.10499   0.00000  Uiso   1.00
C121   C     0.70289   0.24787   0.46405   0.00000  Uiso   1.00
C122   C     0.98878   0.12353   0.02140   0.00000  Uiso   1.00
C123   C     0.67809   0.22972   0.41818   0.00000  Uiso   1.00
C124   C     0.67073   0.12717   0.07198   0.00000  Uiso   1.00
C125   C     0.74243   0.15900   0.41663   0.00000  Uiso   1.00
C126   C     0.91067   0.15823   0.08639   0.00000  Uiso   1.00
C127   C     0.77502   0.18502   0.45652   0.00000  Uiso   1.00
C128   C     0.98497   0.06845   0.25136   0.00000  Uiso   1.00
C129   C     0.90142   0.16481   0.03646   0.00000  Uiso   1.00
C130   C     0.75165   0.22661   0.48297   0.00000  Uiso   1.00
C131   C     0.93763   0.14172   0.00360   0.00000  Uiso   1.00
C132   C     0.83042   0.17178   0.47065   0.00000  Uiso   1.00
C133   C     0.85259   0.18727   0.01829   0.00000  Uiso   1.00
C134   C     0.86000   0.14221   0.11385   0.00000  Uiso   1.00
C135   C     0.74705   0.10236   0.40243   0.00000  Uiso   1.00
C136   C     0.72225   0.10155   0.08871   0.00000  Uiso   1.00
C137   C     0.96540   0.26002   0.39780   0.00000  Uiso   1.00
C138   C     0.82721   0.22648   0.04580   0.00000  Uiso   1.00
C139   C     0.86591   0.14702   0.43790   0.00000  Uiso   1.00
C140   C     0.77815   0.24719   0.02747   0.00000  Uiso   1.00
C141   C     0.91990   0.13378   0.45399   0.00000  Uiso   1.00
C142   C     0.68961   0.31950   0.24841   0.00000  Uiso   1.00
C143   C     0.97718   0.01389   0.25230   0.00000  Uiso   1.00
C144   C     0.68797   0.17315   0.34110   0.00000  Uiso   1.00
H145   H     0.76058   0.27876   0.04835   0.00000  Uiso   1.00
H146   H     0.83772   0.20977   0.28514   0.00000  Uiso   1.00
H147   H     0.82558   0.16736   0.11899   0.00000  Uiso   1.00
H148   H     0.72922   0.08521   0.36729   0.00000  Uiso   1.00
H149   H     0.72992   0.09309   0.12660   0.00000  Uiso   1.00
H150   H     0.96878   0.30232   0.40387   0.00000  Uiso   1.00
H151   H     0.94644   0.11502   0.42817   0.00000  Uiso   1.00
H152   H     0.68593   0.28059   0.48387   0.00000  Uiso   1.00
H153   H     0.68246   0.10496   0.49586   0.00000  Uiso   1.00
H154   H     0.84687   0.24293   0.08051   0.00000  Uiso   1.00
H155   H     0.85314   0.13964   0.39943   0.00000  Uiso   1.00
H156   H     0.73271   0.00334   0.24472   0.00000  Uiso   1.00
H157   H     0.93409   0.33005   0.25604   0.00000  Uiso   1.00
H158   H     0.82886   0.12276   0.21592   0.00000  Uiso   1.00
N159   N     0.81362   0.15216   0.23739   0.00000  Uiso   1.00
N160   N     0.85305   0.18117   0.26260   0.00000  Uiso   1.00
O161   O     0.96386   0.24631   0.25309   0.00000  Uiso   1.00
O162   O     0.76764   0.07334   0.43121   0.00000  Uiso   1.00
O163   O     0.75609   0.08711   0.05940   0.00000  Uiso   1.00
O164   O     0.92171   0.23854   0.37757   0.00000  Uiso   1.00
O165   O     0.70281   0.08702   0.24690   0.00000  Uiso   1.00
O166   O     0.72488   0.23702   0.24501   0.00000  Uiso   1.00
O167   O     0.94178   0.09632   0.25498   0.00000  Uiso   1.00
O168   O     0.96995   0.17397   0.32247   0.00000  Uiso   1.00
O169   O     0.69672   0.15937   0.17753   0.00000  Uiso   1.00
O170   O     0.73098   0.16467   0.31439   0.00000  Uiso   1.00
O171   O     0.93569   0.16866   0.18561   0.00000  Uiso   1.00
O172   O     0.85629   0.09903   0.13041   0.00000  Uiso   1.00
Zn173  Zn    0.93700   0.17287   0.25539   0.00000  Uiso   1.00
Zn174  Zn    0.72967   0.16046   0.24460   0.00000  Uiso   1.00
C175   C     0.01507   0.59823   0.24890   0.00000  Uiso   1.00
C176   C     0.31130   0.49169   0.15860   0.00000  Uiso   1.00
C177   C     0.03273   0.51872   0.39359   0.00000  Uiso   1.00
C178   C     0.29876   0.48137   0.10499   0.00000  Uiso   1.00
C179   C     0.03622   0.58120   0.46405   0.00000  Uiso   1.00
C180   C     0.32211   0.45686   0.02140   0.00000  Uiso   1.00
C181   C     0.01142   0.56305   0.41818   0.00000  Uiso   1.00
C182   C     0.00407   0.46050   0.07198   0.00000  Uiso   1.00
C183   C     0.07577   0.49233   0.41663   0.00000  Uiso   1.00
C184   C     0.24400   0.49156   0.08639   0.00000  Uiso   1.00
C185   C     0.10836   0.51836   0.45652   0.00000  Uiso   1.00
C186   C     0.31831   0.40178   0.25136   0.00000  Uiso   1.00
C187   C     0.23476   0.49814   0.03646   0.00000  Uiso   1.00
C188   C     0.08499   0.55995   0.48297   0.00000  Uiso   1.00
C189   C     0.27096   0.47505   0.00360   0.00000  Uiso   1.00
C190   C     0.16375   0.50511   0.47065   0.00000  Uiso   1.00
C191   C     0.18592   0.52060   0.01829   0.00000  Uiso   1.00
C192   C     0.19334   0.47555   0.11385   0.00000  Uiso   1.00
C193   C     0.08039   0.43569   0.40243   0.00000  Uiso   1.00
C194   C     0.05558   0.43489   0.08871   0.00000  Uiso   1.00
C195   C     0.29873   0.59335   0.39780   0.00000  Uiso   1.00
C196   C     0.16054   0.55981   0.04580   0.00000  Uiso   1.00
C197   C     0.19924   0.48035   0.43790   0.00000  Uiso   1.00
C198   C     0.11148   0.58052   0.02747   0.00000  Uiso   1.00
C199   C     0.25324   0.46711   0.45399   0.00000  Uiso   1.00
C200   C     0.02294   0.65283   0.24841   0.00000  Uiso   1.00
C201   C     0.31052   0.34722   0.25230   0.00000  Uiso   1.00
C202   C     0.02131   0.50649   0.34110   0.00000  Uiso   1.00
H203   H     0.09391   0.61209   0.04835   0.00000  Uiso   1.00
H204   H     0.17106   0.54310   0.28514   0.00000  Uiso   1.00
H205   H     0.15891   0.50070   0.11899   0.00000  Uiso   1.00
H206   H     0.06255   0.41855   0.36729   0.00000  Uiso   1.00
H207   H     0.06325   0.42642   0.12660   0.00000  Uiso   1.00
H208   H     0.30211   0.63566   0.40387   0.00000  Uiso   1.00
H209   H     0.27977   0.44836   0.42817   0.00000  Uiso   1.00
H210   H     0.01926   0.61392   0.48387   0.00000  Uiso   1.00
H211   H     0.01579   0.43829   0.49586   0.00000  Uiso   1.00
H212   H     0.18020   0.57626   0.08051   0.00000  Uiso   1.00
H213   H     0.18647   0.47297   0.39943   0.00000  Uiso   1.00
H214   H     0.06605   0.33668   0.24472   0.00000  Uiso   1.00
H215   H     0.26742   0.66339   0.25604   0.00000  Uiso   1.00
H216   H     0.16219   0.45610   0.21592   0.00000  Uiso   1.00
N217   N     0.14695   0.48550   0.23739   0.00000  Uiso   1.00
N218   N     0.18638   0.51450   0.26260   0.00000  Uiso   1.00
O219   O     0.29719   0.57964   0.25309   0.00000  Uiso   1.00
O220   O     0.10097   0.40667   0.43121   0.00000  Uiso   1.00
O221   O     0.08943   0.42044   0.05940   0.00000  Uiso   1.00
O222   O     0.25504   0.57187   0.37757   0.00000  Uiso   1.00
O223   O     0.03614   0.42036   0.24690   0.00000  Uiso   1.00
O224   O     0.05822   0.57035   0.24501   0.00000  Uiso   1.00
O225   O     0.27512   0.42965   0.25498   0.00000  Uiso   1.00
O226   O     0.30328   0.50730   0.32247   0.00000  Uiso   1.00
O227   O     0.03005   0.49270   0.17753   0.00000  Uiso   1.00
O228   O     0.06431   0.49801   0.31439   0.00000  Uiso   1.00
O229   O     0.26902   0.50199   0.18561   0.00000  Uiso   1.00
O230   O     0.18962   0.43237   0.13041   0.00000  Uiso   1.00
Zn231  Zn    0.27033   0.50621   0.25539   0.00000  Uiso   1.00
Zn232  Zn    0.06300   0.49379   0.24460   0.00000  Uiso   1.00
C233   C     0.34841   0.59823   0.24890   0.00000  Uiso   1.00
C234   C     0.64464   0.49169   0.15860   0.00000  Uiso   1.00
C235   C     0.36607   0.51872   0.39359   0.00000  Uiso   1.00
C236   C     0.63209   0.48137   0.10499   0.00000  Uiso   1.00
C237   C     0.36955   0.58120   0.46405   0.00000  Uiso   1.00
C238   C     0.65544   0.45686   0.02140   0.00000  Uiso   1.00
C239   C     0.34475   0.56305   0.41818   0.00000  Uiso   1.00
C240   C     0.33740   0.46050   0.07198   0.00000  Uiso   1.00
C241   C     0.40910   0.49233   0.41663   0.00000  Uiso   1.00
C242   C     0.57733   0.49156   0.08639   0.00000  Uiso   1.00
C243   C     0.44169   0.51836   0.45652   0.00000  Uiso   1.00
C244   C     0.65164   0.40178   0.25136   0.00000  Uiso   1.00
C245   C     0.56809   0.49814   0.03646   0.00000  Uiso   1.00
C246   C     0.41832   0.55995   0.48297   0.00000  Uiso   1.00
C247   C     0.60430   0.47505   0.00360   0.00000  Uiso   1.00
C248   C     0.49708   0.50511   0.47065   0.00000  Uiso   1.00
C249   C     0.51925   0.52060   0.01829   0.00000  Uiso   1.00
C250   C     0.52667   0.47555   0.11385   0.00000  Uiso   1.00
C251   C     0.41372   0.43569   0.40243   0.00000  Uiso   1.00
C252   C     0.38891   0.43489   0.08871   0.00000  Uiso   1.00
C253   C     0.63206   0.59335   0.39780   0.00000  Uiso   1.00
C254   C     0.49387   0.55981   0.04580   0.00000  Uiso   1.00
C255   C     0.53257   0.48035   0.43790   0.00000  Uiso   1.00
C256   C     0.44481   0.58052   0.02747   0.00000  Uiso   1.00
C257   C     0.58657   0.46711   0.45399   0.00000  Uiso   1.00
C258   C     0.35628   0.65283   0.24841   0.00000  Uiso   1.00
C259   C     0.64385   0.34722   0.25230   0.00000  Uiso   1.00
C260   C     0.35464   0.50649   0.34110   0.00000  Uiso   1.00
H261   H     0.42725   0.61209   0.04835   0.00000  Uiso   1.00
H262   H     0.50439   0.54310   0.28514   0.00000  Uiso   1.00
H263   H     0.49225   0.50070   0.11899   0.00000  Uiso   1.00
H264   H     0.39588   0.41855   0.36729   0.00000  Uiso   1.00
H265   H     0.39658   0.42642   0.12660   0.00000  Uiso   1.00
H266   H     0.63545   0.63566   0.40387   0.00000  Uiso   1.00
H267   H     0.61311   0.44836   0.42817   0.00000  Uiso   1.00
H268   H     0.35259   0.61392   0.48387   0.00000  Uiso   1.00
H269   H     0.34912   0.43829   0.49586   0.00000  Uiso   1.00
H270   H     0.51354   0.57626   0.08051   0.00000  Uiso   1.00
H271   H     0.51980   0.47297   0.39943   0.00000  Uiso   1.00
H272   H     0.39938   0.33668   0.24472   0.00000  Uiso   1.00
H273   H     0.60076   0.66339   0.25604   0.00000  Uiso   1.00
H274   H     0.49553   0.45610   0.21592   0.00000  Uiso   1.00
N275   N     0.48029   0.48550   0.23739   0.00000  Uiso   1.00
N276   N     0.51971   0.51450   0.26260   0.00000  Uiso   1.00
O277   O     0.63052   0.57964   0.25309   0.00000  Uiso   1.00
O278   O     0.43430   0.40667   0.43121   0.00000  Uiso   1.00
O279   O     0.42276   0.42044   0.05940   0.00000  Uiso   1.00
O280   O     0.58838   0.57187   0.37757   0.00000  Uiso   1.00
O281   O     0.36948   0.42036   0.24690   0.00000  Uiso   1.00
O282   O     0.39155   0.57035   0.24501   0.00000  Uiso   1.00
O283   O     0.60845   0.42965   0.25498   0.00000  Uiso   1.00
O284   O     0.63662   0.50730   0.32247   0.00000  Uiso   1.00
O285   O     0.36338   0.49270   0.17753   0.00000  Uiso   1.00
O286   O     0.39764   0.49801   0.31439   0.00000  Uiso   1.00
O287   O     0.60236   0.50199   0.18561   0.00000  Uiso   1.00
O288   O     0.52296   0.43237   0.13041   0.00000  Uiso   1.00
Zn289  Zn    0.60366   0.50621   0.25539   0.00000  Uiso   1.00
Zn290  Zn    0.39634   0.49379   0.24460   0.00000  Uiso   1.00
C291   C     0.68174   0.59823   0.24890   0.00000  Uiso   1.00
C292   C     0.97797   0.49169   0.15860   0.00000  Uiso   1.00
C293   C     0.69940   0.51872   0.39359   0.00000  Uiso   1.00
C294   C     0.96542   0.48137   0.10499   0.00000  Uiso   1.00
C295   C     0.70289   0.58120   0.46405   0.00000  Uiso   1.00
C296   C     0.98878   0.45686   0.02140   0.00000  Uiso   1.00
C297   C     0.67809   0.56305   0.41818   0.00000  Uiso   1.00
C298   C     0.67073   0.46050   0.07198   0.00000  Uiso   1.00
C299   C     0.74243   0.49233   0.41663   0.00000  Uiso   1.00
C300   C     0.91067   0.49156   0.08639   0.00000  Uiso   1.00
C301   C     0.77502   0.51836   0.45652   0.00000  Uiso   1.00
C302   C     0.98497   0.40178   0.25136   0.00000  Uiso   1.00
C303   C     0.90142   0.49814   0.03646   0.00000  Uiso   1.00
C304   C     0.75165   0.55995   0.48297   0.00000  Uiso   1.00
C305   C     0.93763   0.47505   0.00360   0.00000  Uiso   1.00
C306   C     0.83042   0.50511   0.47065   0.00000  Uiso   1.00
C307   C     0.85259   0.52060   0.01829   0.00000  Uiso   1.00
C308   C     0.86000   0.47555   0.11385   0.00000  Uiso   1.00
C309   C     0.74705   0.43569   0.40243   0.00000  Uiso   1.00
C310   C     0.72225   0.43489   0.08871   0.00000  Uiso   1.00
C311   C     0.96540   0.59335   0.39780   0.00000  Uiso   1.00
C312   C     0.82721   0.55981   0.04580   0.00000  Uiso   1.00
C313   C     0.86591   0.48035   0.43790   0.00000  Uiso   1.00
C314   C     0.77815   0.58052   0.02747   0.00000  Uiso   1.00
C315   C     0.91990   0.46711   0.45399   0.00000  Uiso   1.00
C316   C     0.68961   0.65283   0.24841   0.00000  Uiso   1.00
C317   C     0.97718   0.34722   0.25230   0.00000  Uiso   1.00
C318   C     0.68797   0.50649   0.34110   0.00000  Uiso   1.00
H319   H     0.76058   0.61209   0.04835   0.00000  Uiso   1.00
H320   H     0.83772   0.54310   0.28514   0.00000  Uiso   1.00
H321   H     0.82558   0.50070   0.11899   0.00000  Uiso   1.00
H322   H     0.72922   0.41855   0.36729   0.00000  Uiso   1.00
H323   H     0.72992   0.42642   0.12660   0.00000  Uiso   1.00
H324   H     0.96878   0.63566   0.40387   0.00000  Uiso   1.00
H325   H     0.94644   0.44836   0.42817   0.00000  Uiso   1.00
H326   H     0.68593   0.61392   0.48387   0.00000  Uiso   1.00
H327   H     0.68246   0.43829   0.49586   0.00000  Uiso   1.00
H328   H     0.84687   0.57626   0.08051   0.00000  Uiso   1.00
H329   H     0.85314   0.47297   0.39943   0.00000  Uiso   1.00
H330   H     0.73271   0.33668   0.24472   0.00000  Uiso   1.00
H331   H     0.93409   0.66339   0.25604   0.00000  Uiso   1.00
H332   H     0.82886   0.45610   0.21592   0.00000  Uiso   1.00
N333   N     0.81362   0.48550   0.23739   0.00000  Uiso   1.00
N334   N     0.85305   0.51450   0.26260   0.00000  Uiso   1.00
O335   O     0.96386   0.57964   0.25309   0.00000  Uiso   1.00
O336   O     0.76764   0.40667   0.43121   0.00000  Uiso   1.00
O337   O     0.75609   0.42044   0.05940   0.00000  Uiso   1.00
O338   O     0.92171   0.57187   0.37757   0.00000  Uiso   1.00
O339   O     0.70281   0.42036   0.24690   0.00000  Uiso   1.00
O340   O     0.72488   0.57035   0.24501   0.00000  Uiso   1.00
O341   O     0.94178   0.42965   0.25498   0.00000  Uiso   1.00
O342   O     0.96995   0.50730   0.32247   0.00000  Uiso   1.00
O343   O     0.69672   0.49270   0.17753   0.00000  Uiso   1.00
O344   O     0.73098   0.49801   0.31439   0.00000  Uiso   1.00
O345   O     0.93569   0.50199   0.18561   0.00000  Uiso   1.00
O346   O     0.85629   0.43237   0.13041   0.00000  Uiso   1.00
Zn347  Zn    0.93700   0.50621   0.25539   0.00000  Uiso   1.00
Zn348  Zn    0.72967   0.49379   0.24460   0.00000  Uiso   1.00
C349   C     0.01507   0.93157   0.24890   0.00000  Uiso   1.00
C350   C     0.31130   0.82503   0.15860   0.00000  Uiso   1.00
C351   C     0.03273   0.85205   0.39359   0.00000  Uiso   1.00
C352   C     0.29876   0.81470   0.10499   0.00000  Uiso   1.00
C353   C     0.03622   0.91454   0.46405   0.00000  Uiso   1.00
C354   C     0.32211   0.79020   0.02140   0.00000  Uiso   1.00
C355   C     0.01142   0.89638   0.41818   0.00000  Uiso   1.00
C356   C     0.00407   0.79383   0.07198   0.00000  Uiso   1.00
C357   C     0.07577   0.82567   0.41663   0.00000  Uiso   1.00
C358   C     0.24400   0.82489   0.08639   0.00000  Uiso   1.00
C359   C     0.10836   0.85169   0.45652   0.00000  Uiso   1.00
C360   C     0.31831   0.73512   0.25136   0.00000  Uiso   1.00
C361   C     0.23476   0.83147   0.03646   0.00000  Uiso   1.00
C362   C     0.08499   0.89328   0.48297   0.00000  Uiso   1.00
C363   C     0.27096   0.80839   0.00360   0.00000  Uiso   1.00
C364   C     0.16375   0.83845   0.47065   0.00000  Uiso   1.00
C365   C     0.18592   0.85393   0.01829   0.00000  Uiso   1.00
C366   C     0.19334   0.80888   0.11385   0.00000  Uiso   1.00
C367   C     0.08039   0.76903   0.40243   0.00000  Uiso   1.00
C368   C     0.05558   0.76822   0.08871   0.00000  Uiso   1.00
C369   C     0.29873   0.92669   0.39780   0.00000  Uiso   1.00
C370   C     0.16054   0.89314   0.04580   0.00000  Uiso   1.00
C371   C     0.19924   0.81368   0.43790   0.00000  Uiso   1.00
C372   C     0.11148   0.91386   0.02747   0.00000  Uiso   1.00
C373   C     0.25324   0.80044   0.45399   0.00000  Uiso   1.00
C374   C     0.02294   0.98617   0.24841   0.00000  Uiso   1.00
C375   C     0.31052   0.68055   0.25230   0.00000  Uiso   1.00
C376   C     0.02131   0.83982   0.34110   0.00000  Uiso   1.00
H377   H     0.09391   0.94543   0.04835   0.00000  Uiso   1.00
H378   H     0.17106   0.87643   0.28514   0.00000  Uiso   1.00
H379   H     0.15891   0.83403   0.11899   0.00000  Uiso   1.00
H380   H     0.06255   0.75188   0.36729   0.00000  Uiso   1.00
H381   H     0.06325   0.75975   0.12660   0.00000  Uiso   1.00
H382   H     0.30211   0.96899   0.40387   0.00000  Uiso   1.00
H383   H     0.27977   0.78169   0.42817   0.00000  Uiso   1.00
H384   H     0.01926   0.94725   0.48387   0.00000  Uiso   1.00
H385   H     0.01579   0.77163   0.49586   0.00000  Uiso   1.00
H386   H     0.18020   0.90959   0.08051   0.00000  Uiso   1.00
H387   H     0.18647   0.80630   0.39943   0.00000  Uiso   1.00
H388   H     0.06605   0.67001   0.24472   0.00000  Uiso   1.00
H389   H     0.26742   0.99672   0.25604   0.00000  Uiso   1.00
H390   H     0.16219   0.78943   0.21592   0.00000  Uiso   1.00
N391   N     0.14695   0.81883   0.23739   0.00000  Uiso   1.00
N392   N     0.18638   0.84784   0.26260   0.00000  Uiso   1.00
O393   O     0.29719   0.91298   0.25309   0.00000  Uiso   1.00
O394   O     0.10097   0.74000   0.43121   0.00000  Uiso   1.00
O395   O     0.08943   0.75378   0.05940   0.00000  Uiso   1.00
O396   O     0.25504   0.90521   0.37757   0.00000  Uiso   1.00
O397   O     0.03614   0.75369   0.24690   0.00000  Uiso   1.00
O398   O     0.05822   0.90368   0.24501   0.00000  Uiso   1.00
O399   O     0.27512   0.76298   0.25498   0.00000  Uiso   1.00
O400   O     0.30328   0.84063   0.32247   0.00000  Uiso   1.00
O401   O     0.03005   0.82603   0.17753   0.00000  Uiso   1.00
O402   O     0.06431   0.83134   0.31439   0.00000  Uiso   1.00
O403   O     0.26902   0.83533   0.18561   0.00000  Uiso   1.00
O404   O     0.18962   0.76570   0.13041   0.00000  Uiso   1.00
Zn405  Zn    0.27033   0.83954   0.25539   0.00000  Uiso   1.00
Zn406  Zn    0.06300   0.82713   0.24460   0.00000  Uiso   1.00
C407   C     0.34841   0.93157   0.24890   0.00000  Uiso   1.00
C408   C     0.64464   0.82503   0.15860   0.00000  Uiso   1.00
C409   C     0.36607   0.85205   0.39359   0.00000  Uiso   1.00
C410   C     0.63209   0.81470   0.10499   0.00000  Uiso   1.00
C411   C     0.36955   0.91454   0.46405   0.00000  Uiso   1.00
C412   C     0.65544   0.79020   0.02140   0.00000  Uiso   1.00
C413   C     0.34475   0.89638   0.41818   0.00000  Uiso   1.00
C414   C     0.33740   0.79383   0.07198   0.00000  Uiso   1.00
C415   C     0.40910   0.82567   0.41663   0.00000  Uiso   1.00
C416   C     0.57733   0.82489   0.08639   0.00000  Uiso   1.00
C417   C     0.44169   0.85169   0.45652   0.00000  Uiso   1.00
C418   C     0.65164   0.73512   0.25136   0.00000  Uiso   1.00
C419   C     0.56809   0.83147   0.03646   0.00000  Uiso   1.00
C420   C     0.41832   0.89328   0.48297   0.00000  Uiso   1.00
C421   C     0.60430   0.80839   0.00360   0.00000  Uiso   1.00
C422   C     0.49708   0.83845   0.47065   0.00000  Uiso   1.00
C423   C     0.51925   0.85393   0.01829   0.00000  Uiso   1.00
C424   C     0.52667   0.80888   0.11385   0.00000  Uiso   1.00
C425   C     0.41372   0.76903   0.40243   0.00000  Uiso   1.00
C426   C     0.38891   0.76822   0.08871   0.00000  Uiso   1.00
C427   C     0.63206   0.92669   0.39780   0.00000  Uiso   1.00
C428   C     0.49387   0.89314   0.04580   0.00000  Uiso   1.00
C429   C     0.53257   0.81368   0.43790   0.00000  Uiso   1.00
C430   C     0.44481   0.91386   0.02747   0.00000  Uiso   1.00
C431   C     0.58657   0.80044   0.45399   0.00000  Uiso   1.00
C432   C     0.35628   0.98617   0.24841   0.00000  Uiso   1.00
C433   C     0.64385   0.68055   0.25230   0.00000  Uiso   1.00
C434   C     0.35464   0.83982   0.34110   0.00000  Uiso   1.00
H435   H     0.42725   0.94543   0.04835   0.00000  Uiso   1.00
H436   H     0.50439   0.87643   0.28514   0.00000  Uiso   1.00
H437   H     0.49225   0.83403   0.11899   0.00000  Uiso   1.00
H438   H     0.39588   0.75188   0.36729   0.00000  Uiso   1.00
H439   H     0.39658   0.75975   0.12660   0.00000  Uiso   1.00
H440   H     0.63545   0.96899   0.40387   0.00000  Uiso   1.00
H441   H     0.61311   0.78169   0.42817   0.00000  Uiso   1.00
H442   H     0.35259   0.94725   0.48387   0.00000  Uiso   1.00
H443   H     0.34912   0.77163   0.49586   0.00000  Uiso   1.00
H444   H     0.51354   0.90959   0.08051   0.00000  Uiso   1.00
H445   H     0.51980   0.80630   0.39943   0.00000  Uiso   1.00
H446   H     0.39938   0.67001   0.24472   0.00000  Uiso   1.00
H447   H     0.60076   0.99672   0.25604   0.00000  Uiso   1.00
H448   H     0.49553   0.78943   0.21592   0.00000  Uiso   1.00
N449   N     0.48029   0.81883   0.23739   0.00000  Uiso   1.00
N450   N     0.51971   0.84784   0.26260   0.00000  Uiso   1.00
O451   O     0.63052   0.91298   0.25309   0.00000  Uiso   1.00
O452   O     0.43430   0.74000   0.43121   0.00000  Uiso   1.00
O453   O     0.42276   0.75378   0.05940   0.00000  Uiso   1.00
O454   O     0.58838   0.90521   0.37757   0.00000  Uiso   1.00
O455   O     0.36948   0.75369   0.24690   0.00000  Uiso   1.00
O456   O     0.39155   0.90368   0.24501   0.00000  Uiso   1.00
O457   O     0.60845   0.76298   0.25498   0.00000  Uiso   1.00
O458   O     0.63662   0.84063   0.32247   0.00000  Uiso   1.00
O459   O     0.36338   0.82603   0.17753   0.00000  Uiso   1.00
O460   O     0.39764   0.83134   0.31439   0.00000  Uiso   1.00
O461   O     0.60236   0.83533   0.18561   0.00000  Uiso   1.00
O462   O     0.52296   0.76570   0.13041   0.00000  Uiso   1.00
Zn463  Zn    0.60366   0.83954   0.25539   0.00000  Uiso   1.00
Zn464  Zn    0.39634   0.82713   0.24460   0.00000  Uiso   1.00
C465   C     0.68174   0.93157   0.24890   0.00000  Uiso   1.00
C466   C     0.97797   0.82503   0.15860   0.00000  Uiso   1.00
C467   C     0.69940   0.85205   0.39359   0.00000  Uiso   1.00
C468   C     0.96542   0.81470   0.10499   0.00000  Uiso   1.00
C469   C     0.70289   0.91454   0.46405   0.00000  Uiso   1.00
C470   C     0.98878   0.79020   0.02140   0.00000  Uiso   1.00
C471   C     0.67809   0.89638   0.41818   0.00000  Uiso   1.00
C472   C     0.67073   0.79383   0.07198   0.00000  Uiso   1.00
C473   C     0.74243   0.82567   0.41663   0.00000  Uiso   1.00
C474   C     0.91067   0.82489   0.08639   0.00000  Uiso   1.00
C475   C     0.77502   0.85169   0.45652   0.00000  Uiso   1.00
C476   C     0.98497   0.73512   0.25136   0.00000  Uiso   1.00
C477   C     0.90142   0.83147   0.03646   0.00000  Uiso   1.00
C478   C     0.75165   0.89328   0.48297   0.00000  Uiso   1.00
C479   C     0.93763   0.80839   0.00360   0.00000  Uiso   1.00
C480   C     0.83042   0.83845   0.47065   0.00000  Uiso   1.00
C481   C     0.85259   0.85393   0.01829   0.00000  Uiso   1.00
C482   C     0.86000   0.80888   0.11385   0.00000  Uiso   1.00
C483   C     0.74705   0.76903   0.40243   0.00000  Uiso   1.00
C484   C     0.72225   0.76822   0.08871   0.00000  Uiso   1.00
C485   C     0.96540   0.92669   0.39780   0.00000  Uiso   1.00
C486   C     0.82721   0.89314   0.04580   0.00000  Uiso   1.00
C487   C     0.86591   0.81368   0.43790   0.00000  Uiso   1.00
C488   C     0.77815   0.91386   0.02747   0.00000  Uiso   1.00
C489   C     0.91990   0.80044   0.45399   0.00000  Uiso   1.00
C490   C     0.68961   0.98617   0.24841   0.00000  Uiso   1.00
C491   C     0.97718   0.68055   0.25230   0.00000  Uiso   1.00
C492   C     0.68797   0.83982   0.34110   0.00000  Uiso   1.00
H493   H     0.76058   0.94543   0.04835   0.00000  Uiso   1.00
H494   H     0.83772   0.87643   0.28514   0.00000  Uiso   1.00
H495   H     0.82558   0.83403   0.11899   0.00000  Uiso   1.00
H496   H     0.72922   0.75188   0.36729   0.00000  Uiso   1.00
H497   H     0.72992   0.75975   0.12660   0.00000  Uiso   1.00
H498   H     0.96878   0.96899   0.40387   0.00000  Uiso   1.00
H499   H     0.94644   0.78169   0.42817   0.00000  Uiso   1.00
H500   H     0.68593   0.94725   0.48387   0.00000  Uiso   1.00
H501   H     0.68246   0.77163   0.49586   0.00000  Uiso   1.00
H502   H     0.84687   0.90959   0.08051   0.00000  Uiso   1.00
H503   H     0.85314   0.80630   0.39943   0.00000  Uiso   1.00
H504   H     0.73271   0.67001   0.24472   0.00000  Uiso   1.00
H505   H     0.93409   0.99672   0.25604   0.00000  Uiso   1.00
H506   H     0.82886   0.78943   0.21592   0.00000  Uiso   1.00
N507   N     0.81362   0.81883   0.23739   0.00000  Uiso   1.00
N508   N     0.85305   0.84784   0.26260   0.00000  Uiso   1.00
O509   O     0.96386   0.91298   0.25309   0.00000  Uiso   1.00
O510   O     0.76764   0.74000   0.43121   0.00000  Uiso   1.00
O511   O     0.75609   0.75378   0.05940   0.00000  Uiso   1.00
O512   O     0.92171   0.90521   0.37757   0.00000  Uiso   1.00
O513   O     0.70281   0.75369   0.24690   0.00000  Uiso   1.00
O514   O     0.72488   0.90368   0.24501   0.00000  Uiso   1.00
O515   O     0.94178   0.76298   0.25498   0.00000  Uiso   1.00
O516   O     0.96995   0.84063   0.32247   0.00000  Uiso   1.00
O517   O     0.69672   0.82603   0.17753   0.00000  Uiso   1.00
O518   O     0.73098   0.83134   0.31439   0.00000  Uiso   1.00
O519   O     0.93569   0.83533   0.18561   0.00000  Uiso   1.00
O520   O     0.85629   0.76570   0.13041   0.00000  Uiso   1.00
Zn521  Zn    0.93700   0.83954   0.25539   0.00000  Uiso   1.00
Zn522  Zn    0.72967   0.82713   0.24460   0.00000  Uiso   1.00
C523   C     0.01507   0.26490   0.74890   0.00000  Uiso   1.00
C524   C     0.31130   0.15836   0.65860   0.00000  Uiso   1.00
C525   C     0.03273   0.18538   0.89359   0.00000  Uiso   1.00
C526   C     0.29876   0.14804   0.60499   0.00000  Uiso   1.00
C527   C     0.03622   0.24787   0.96405   0.00000  Uiso   1.00
C528   C     0.32211   0.12353   0.52140   0.00000  Uiso   1.00
C529   C     0.01142   0.22972   0.91818   0.00000  Uiso   1.00
C530   C     0.00407   0.12717   0.57198   0.00000  Uiso   1.00
C531   C     0.07577   0.15900   0.91663   0.00000  Uiso   1.00
C532   C     0.24400   0.15823   0.58639   0.00000  Uiso   1.00
C533   C     0.10836   0.18502   0.95652   0.00000  Uiso   1.00
C534   C     0.31831   0.06845   0.75136   0.00000  Uiso   1.00
C535   C     0.23476   0.16481   0.53646   0.00000  Uiso   1.00
C536   C     0.08499   0.22661   0.98297   0.00000  Uiso   1.00
C537   C     0.27096   0.14172   0.50360   0.00000  Uiso   1.00
C538   C     0.16375   0.17178   0.97065   0.00000  Uiso   1.00
C539   C     0.18592   0.18727   0.51829   0.00000  Uiso   1.00
C540   C     0.19334   0.14221   0.61385   0.00000  Uiso   1.00
C541   C     0.08039   0.10236   0.90243   0.00000  Uiso   1.00
C542   C     0.05558   0.10155   0.58871   0.00000  Uiso   1.00
C543   C     0.29873   0.26002   0.89780   0.00000  Uiso   1.00
C544   C     0.16054   0.22648   0.54580   0.00000  Uiso   1.00
C545   C     0.19924   0.14702   0.93790   0.00000  Uiso   1.00
C546   C     0.11148   0.24719   0.52747   0.00000  Uiso   1.00
C547   C     0.25324   0.13378   0.95399   0.00000  Uiso   1.00
C548   C     0.02294   0.31950   0.74841   0.00000  Uiso   1.00
C549   C     0.31052   0.01389   0.75230   0.00000  Uiso   1.00
C550   C     0.02131   0.17315   0.84110   0.00000  Uiso   1.00
H551   H     0.09391   0.27876   0.54835   0.00000  Uiso   1.00
H552   H     0.17106   0.20977   0.78514   0.00000  Uiso   1.00
H553   H     0.15891   0.16736   0.61899   0.00000  Uiso   1.00
H554   H     0.06255   0.08521   0.86729   0.00000  Uiso   1.00
H555   H     0.06325   0.09309   0.62660   0.00000  Uiso   1.00
H556   H     0.30211   0.30232   0.90387   0.00000  Uiso   1.00
H557   H     0.27977   0.11502   0.92817   0.00000  Uiso   1.00
H558   H     0.01926   0.28059   0.98387   0.00000  Uiso   1.00
H559   H     0.01579   0.10496   0.99586   0.00000  Uiso   1.00
H560   H     0.18020   0.24293   0.58051   0.00000  Uiso   1.00
H561   H     0.18647   0.13964   0.89943   0.00000  Uiso   1.00
H562   H     0.06605   0.00334   0.74472   0.00000  Uiso   1.00
H563   H     0.26742   0.33005   0.75604   0.00000  Uiso   1.00
H564   H     0.16219   0.12276   0.71592   0.00000  Uiso   1.00
N565   N     0.14695   0.15216   0.73739   0.00000  Uiso   1.00
N566   N     0.18638   0.18117   0.76260   0.00000  Uiso   1.00
O567   O     0.29719   0.24631   0.75309   0.00000  Uiso   1.00
O568   O     0.10097   0.07334   0.93121   0.00000  Uiso   1.00
O569   O     0.08943   0.08711   0.55940   0.00000  Uiso   1.00
O570   O     0.25504   0.23854   0.87757   0.00000  Uiso   1.00
O571   O     0.03614   0.08702   0.74690   0.00000  Uiso   1.00
O572   O     0.05822   0.23702   0.74501   0.00000  Uiso   1.00
O573   O     0.27512   0.09632   0.75498   0.00000  Uiso   1.00
O574   O     0.30328   0.17397   0.82247   0.00000  Uiso   1.00
O575   O     0.03005   0.15937   0.67753   0.00000  Uiso   1.00
O576   O     0.06431   0.16467   0.81439   0.00000  Uiso   1.00
O577   O     0.26902   0.16866   0.68561   0.00000  Uiso   1.00
O578   O     0.18962   0.09903   0.63041   0.00000  Uiso   1.00
Zn579  Zn    0.27033   0.17287   0.75539   0.00000  Uiso   1.00
Zn580  Zn    0.06300   0.16046   0.74460   0.00000  Uiso   1.00
C581   C     0.34841   0.26490   0.74890   0.00000  Uiso   1.00
C582   C     0.64464   0.15836   0.65860   0.00000  Uiso   1.00
C583   C     0.36607   0.18538   0.89359   0.00000  Uiso   1.00
C584   C     0.63209   0.14804   0.60499   0.00000  Uiso   1.00
C585   C     0.36955   0.24787   0.96405   0.00000  Uiso   1.00
C586   C     0.65544   0.12353   0.52140   0.00000  Uiso   1.00
C587   C     0.34475   0.22972   0.91818   0.00000  Uiso   1.00
C588   C     0.33740   0.12717   0.57198   0.00000  Uiso   1.00
C589   C     0.40910   0.15900   0.91663   0.00000  Uiso   1.00
C590   C     0.57733   0.15823   0.58639   0.00000  Uiso   1.00
C591   C     0.44169   0.18502   0.95652   0.00000  Uiso   1.00
C592   C     0.65164   0.06845   0.75136   0.00000  Uiso   1.00
C593   C     0.56809   0.16481   0.53646   0.00000  Uiso   1.00
C594   C     0.41832   0.22661   0.98297   0.00000  Uiso   1.00
C595   C     0.60430   0.14172   0.50360   0.00000  Uiso   1.00
C596   C     0.49708   0.17178   0.97065   0.00000  Uiso   1.00
C597   C     0.51925   0.18727   0.51829   0.00000  Uiso   1.00
C598   C     0.52667   0.14221   0.61385   0.00000  Uiso   1.00
C599   C     0.41372   0.10236   0.90243   0.00000  Uiso   1.00
C600   C     0.38891   0.10155   0.58871   0.00000  Uiso   1.00
C601   C     0.63206   0.26002   0.89780   0.00000  Uiso   1.00
C602   C     0.49387   0.22648   0.54580   0.00000  Uiso   1.00
C603   C     0.53257   0.14702   0.93790   0.00000  Uiso   1.00
C604   C     0.44481   0.24719   0.52747   0.00000  Uiso   1.00
C605   C     0.58657   0.13378   0.95399   0.00000  Uiso   1.00
C606   C     0.35628   0.31950   0.74841   0.00000  Uiso   1.00
C607   C     0.64385   0.01389   0.75230   0.00000  Uiso   1.00
C608   C     0.35464   0.17315   0.84110   0.00000  Uiso   1.00
H609   H     0.42725   0.27876   0.54835   0.00000  Uiso   1.00
H610   H     0.50439   0.20977   0.78514   0.00000  Uiso   1.00
H611   H     0.49225   0.16736   0.61899   0.00000  Uiso   1.00
H612   H     0.39588   0.08521   0.86729   0.00000  Uiso   1.00
H613   H     0.39658   0.09309   0.62660   0.00000  Uiso   1.00
H614   H     0.63545   0.30232   0.90387   0.00000  Uiso   1.00
H615   H     0.61311   0.11502   0.92817   0.00000  Uiso   1.00
H616   H     0.35259   0.28059   0.98387   0.00000  Uiso   1.00
H617   H     0.34912   0.10496   0.99586   0.00000  Uiso   1.00
H618   H     0.51354   0.24293   0.58051   0.00000  Uiso   1.00
H619   H     0.51980   0.13964   0.89943   0.00000  Uiso   1.00
H620   H     0.39938   0.00334   0.74472   0.00000  Uiso   1.00
H621   H     0.60076   0.33005   0.75604   0.00000  Uiso   1.00
H622   H     0.49553   0.12276   0.71592   0.00000  Uiso   1.00
N623   N     0.48029   0.15216   0.73739   0.00000  Uiso   1.00
N624   N     0.51971   0.18117   0.76260   0.00000  Uiso   1.00
O625   O     0.63052   0.24631   0.75309   0.00000  Uiso   1.00
O626   O     0.43430   0.07334   0.93121   0.00000  Uiso   1.00
O627   O     0.42276   0.08711   0.55940   0.00000  Uiso   1.00
O628   O     0.58838   0.23854   0.87757   0.00000  Uiso   1.00
O629   O     0.36948   0.08702   0.74690   0.00000  Uiso   1.00
O630   O     0.39155   0.23702   0.74501   0.00000  Uiso   1.00
O631   O     0.60845   0.09632   0.75498   0.00000  Uiso   1.00
O632   O     0.63662   0.17397   0.82247   0.00000  Uiso   1.00
O633   O     0.36338   0.15937   0.67753   0.00000  Uiso   1.00
O634   O     0.39764   0.16467   0.81439   0.00000  Uiso   1.00
O635   O     0.60236   0.16866   0.68561   0.00000  Uiso   1.00
O636   O     0.52296   0.09903   0.63041   0.00000  Uiso   1.00
Zn637  Zn    0.60366   0.17287   0.75539   0.00000  Uiso   1.00
Zn638  Zn    0.39634   0.16046   0.74460   0.00000  Uiso   1.00
C639   C     0.68174   0.26490   0.74890   0.00000  Uiso   1.00
C640   C     0.97797   0.15836   0.65860   0.00000  Uiso   1.00
C641   C     0.69940   0.18538   0.89359   0.00000  Uiso   1.00
C642   C     0.96542   0.14804   0.60499   0.00000  Uiso   1.00
C643   C     0.70289   0.24787   0.96405   0.00000  Uiso   1.00
C644   C     0.98878   0.12353   0.52140   0.00000  Uiso   1.00
C645   C     0.67809   0.22972   0.91818   0.00000  Uiso   1.00
C646   C     0.67073   0.12717   0.57198   0.00000  Uiso   1.00
C647   C     0.74243   0.15900   0.91663   0.00000  Uiso   1.00
C648   C     0.91067   0.15823   0.58639   0.00000  Uiso   1.00
C649   C     0.77502   0.18502   0.95652   0.00000  Uiso   1.00
C650   C     0.98497   0.06845   0.75136   0.00000  Uiso   1.00
C651   C     0.90142   0.16481   0.53646   0.00000  Uiso   1.00
C652   C     0.75165   0.22661   0.98297   0.00000  Uiso   1.00
C653   C     0.93763   0.14172   0.50360   0.00000  Uiso   1.00
C654   C     0.83042   0.17178   0.97065   0.00000  Uiso   1.00
C655   C     0.85259   0.18727   0.51829   0.00000  Uiso   1.00
C656   C     0.86000   0.14221   0.61385   0.00000  Uiso   1.00
C657   C     0.74705   0.10236   0.90243   0.00000  Uiso   1.00
C658   C     0.72225   0.10155   0.58871   0.00000  Uiso   1.00
C659   C     0.96540   0.26002   0.89780   0.00000  Uiso   1.00
C660   C     0.82721   0.22648   0.54580   0.00000  Uiso   1.00
C661   C     0.86591   0.14702   0.93790   0.00000  Uiso   1.00
C662   C     0.77815   0.24719   0.52747   0.00000  Uiso   1.00
C663   C     0.91990   0.13378   0.95399   0.00000  Uiso   1.00
C664   C     0.68961   0.31950   0.74841   0.00000  Uiso   1.00
C665   C     0.97718   0.01389   0.75230   0.00000  Uiso   1.00
C666   C     0.68797   0.17315   0.84110   0.00000  Uiso   1.00
H667   H     0.76058   0.27876   0.54835   0.00000  Uiso   1.00
H668   H     0.83772   0.20977   0.78514   0.00000  Uiso   1.00
H669   H     0.82558   0.16736   0.61899   0.00000  Uiso   1.00
H670   H     0.72922   0.08521   0.86729   0.00000  Uiso   1.00
H671   H     0.72992   0.09309   0.62660   0.00000  Uiso   1.00
H672   H     0.96878   0.30232   0.90387   0.00000  Uiso   1.00
H673   H     0.94644   0.11502   0.92817   0.00000  Uiso   1.00
H674   H     0.68593   0.28059   0.98387   0.00000  Uiso   1.00
H675   H     0.68246   0.10496   0.99586   0.00000  Uiso   1.00
H676   H     0.84687   0.24293   0.58051   0.00000  Uiso   1.00
H677   H     0.85314   0.13964   0.89943   0.00000  Uiso   1.00
H678   H     0.73271   0.00334   0.74472   0.00000  Uiso   1.00
H679   H     0.93409   0.33005   0.75604   0.00000  Uiso   1.00
H680   H     0.82886   0.12276   0.71592   0.00000  Uiso   1.00
N681   N     0.81362   0.15216   0.73739   0.00000  Uiso   1.00
N682   N     0.85305   0.18117   0.76260   0.00000  Uiso   1.00
O683   O     0.96386   0.24631   0.75309   0.00000  Uiso   1.00
O684   O     0.76764   0.07334   0.93121   0.00000  Uiso   1.00
O685   O     0.75609   0.08711   0.55940   0.00000  Uiso   1.00
O686   O     0.92171   0.23854   0.87757   0.00000  Uiso   1.00
O687   O     0.70281   0.08702   0.74690   0.00000  Uiso   1.00
O688   O     0.72488   0.23702   0.74501   0.00000  Uiso   1.00
O689   O     0.94178   0.09632   0.75498   0.00000  Uiso   1.00
O690   O     0.96995   0.17397   0.82247   0.00000  Uiso   1.00
O691   O     0.69672   0.15937   0.67753   0.00000  Uiso   1.00
O692   O     0.73098   0.16467   0.81439   0.00000  Uiso   1.00
O693   O     0.93569   0.16866   0.68561   0.00000  Uiso   1.00
O694   O     0.85629   0.09903   0.63041   0.00000  Uiso   1.00
Zn695  Zn    0.93700   0.17287   0.75539   0.00000  Uiso   1.00
Zn696  Zn    0.72967   0.16046   0.74460   0.00000  Uiso   1.00
C697   C     0.01507   0.59823   0.74890   0.00000  Uiso   1.00
C698   C     0.31130   0.49169   0.65860   0.00000  Uiso   1.00
C699   C     0.03273   0.51872   0.89359   0.00000  Uiso   1.00
C700   C     0.29876   0.48137   0.60499   0.00000  Uiso   1.00
C701   C     0.03622   0.58120   0.96405   0.00000  Uiso   1.00
C702   C     0.32211   0.45686   0.52140   0.00000  Uiso   1.00
C703   C     0.01142   0.56305   0.91818   0.00000  Uiso   1.00
C704   C     0.00407   0.46050   0.57198   0.00000  Uiso   1.00
C705   C     0.07577   0.49233   0.91663   0.00000  Uiso   1.00
C706   C     0.24400   0.49156   0.58639   0.00000  Uiso   1.00
C707   C     0.10836   0.51836   0.95652   0.00000  Uiso   1.00
C708   C     0.31831   0.40178   0.75136   0.00000  Uiso   1.00
C709   C     0.23476   0.49814   0.53646   0.00000  Uiso   1.00
C710   C     0.08499   0.55995   0.98297   0.00000  Uiso   1.00
C711   C     0.27096   0.47505   0.50360   0.00000  Uiso   1.00
C712   C     0.16375   0.50511   0.97065   0.00000  Uiso   1.00
C713   C     0.18592   0.52060   0.51829   0.00000  Uiso   1.00
C714   C     0.19334   0.47555   0.61385   0.00000  Uiso   1.00
C715   C     0.08039   0.43569   0.90243   0.00000  Uiso   1.00
C716   C     0.05558   0.43489   0.58871   0.00000  Uiso   1.00
C717   C     0.29873   0.59335   0.89780   0.00000  Uiso   1.00
C718   C     0.16054   0.55981   0.54580   0.00000  Uiso   1.00
C719   C     0.19924   0.48035   0.93790   0.00000  Uiso   1.00
C720   C     0.11148   0.58052   0.52747   0.00000  Uiso   1.00
C721   C     0.25324   0.46711   0.95399   0.00000  Uiso   1.00
C722   C     0.02294   0.65283   0.74841   0.00000  Uiso   1.00
C723   C     0.31052   0.34722   0.75230   0.00000  Uiso   1.00
C724   C     0.02131   0.50649   0.84110   0.00000  Uiso   1.00
H725   H     0.09391   0.61209   0.54835   0.00000  Uiso   1.00
H726   H     0.17106   0.54310   0.78514   0.00000  Uiso   1.00
H727   H     0.15891   0.50070   0.61899   0.00000  Uiso   1.00
H728   H     0.06255   0.41855   0.86729   0.00000  Uiso   1.00
H729   H     0.06325   0.42642   0.62660   0.00000  Uiso   1.00
H730   H     0.30211   0.63566   0.90387   0.00000  Uiso   1.00
H731   H     0.27977   0.44836   0.92817   0.00000  Uiso   1.00
H732   H     0.01926   0.61392   0.98387   0.00000  Uiso   1.00
H733   H     0.01579   0.43829   0.99586   0.00000  Uiso   1.00
H734   H     0.18020   0.57626   0.58051   0.00000  Uiso   1.00
H735   H     0.18647   0.47297   0.89943   0.00000  Uiso   1.00
H736   H     0.06605   0.33668   0.74472   0.00000  Uiso   1.00
H737   H     0.26742   0.66339   0.75604   0.00000  Uiso   1.00
H738   H     0.16219   0.45610   0.71592   0.00000  Uiso   1.00
N739   N     0.14695   0.48550   0.73739   0.00000  Uiso   1.00
N740   N     0.18638   0.51450   0.76260   0.00000  Uiso   1.00
O741   O     0.29719   0.57964   0.75309   0.00000  Uiso   1.00
O742   O     0.10097   0.40667   0.93121   0.00000  Uiso   1.00
O743   O     0.08943   0.42044   0.55940   0.00000  Uiso   1.00
O744   O     0.25504   0.57187   0.87757   0.00000  Uiso   1.00
O745   O     0.03614   0.42036   0.74690   0.00000  Uiso   1.00
O746   O     0.05822   0.57035   0.74501   0.00000  Uiso   1.00
O747   O     0.27512   0.42965   0.75498   0.00000  Uiso   1.00
O748   O     0.30328   0.50730   0.82247   0.00000  Uiso   1.00
O749   O     0.03005   0.49270   0.67753   0.00000  Uiso   1.00
O750   O     0.06431   0.49801   0.81439   0.00000  Uiso   1.00
O751   O     0.26902   0.50199   0.68561   0.00000  Uiso   1.00
O752   O     0.18962   0.43237   0.63041   0.00000  Uiso   1.00
Zn753  Zn    0.27033   0.50621   0.75539   0.00000  Uiso   1.00
Zn754  Zn    0.06300   0.49379   0.74460   0.00000  Uiso   1.00
C755   C     0.34841   0.59823   0.74890   0.00000  Uiso   1.00
C756   C     0.64464   0.49169   0.65860   0.00000  Uiso   1.00
C757   C     0.36607   0.51872   0.89359   0.00000  Uiso   1.00
C758   C     0.63209   0.48137   0.60499   0.00000  Uiso   1.00
C759   C     0.36955   0.58120   0.96405   0.00000  Uiso   1.00
C760   C     0.65544   0.45686   0.52140   0.00000  Uiso   1.00
C761   C     0.34475   0.56305   0.91818   0.00000  Uiso   1.00
C762   C     0.33740   0.46050   0.57198   0.00000  Uiso   1.00
C763   C     0.40910   0.49233   0.91663   0.00000  Uiso   1.00
C764   C     0.57733   0.49156   0.58639   0.00000  Uiso   1.00
C765   C     0.44169   0.51836   0.95652   0.00000  Uiso   1.00
C766   C     0.65164   0.40178   0.75136   0.00000  Uiso   1.00
C767   C     0.56809   0.49814   0.53646   0.00000  Uiso   1.00
C768   C     0.41832   0.55995   0.98297   0.00000  Uiso   1.00
C769   C     0.60430   0.47505   0.50360   0.00000  Uiso   1.00
C770   C     0.49708   0.50511   0.97065   0.00000  Uiso   1.00
C771   C     0.51925   0.52060   0.51829   0.00000  Uiso   1.00
C772   C     0.52667   0.47555   0.61385   0.00000  Uiso   1.00
C773   C     0.41372   0.43569   0.90243   0.00000  Uiso   1.00
C774   C     0.38891   0.43489   0.58871   0.00000  Uiso   1.00
C775   C     0.63206   0.59335   0.89780   0.00000  Uiso   1.00
C776   C     0.49387   0.55981   0.54580   0.00000  Uiso   1.00
C777   C     0.53257   0.48035   0.93790   0.00000  Uiso   1.00
C778   C     0.44481   0.58052   0.52747   0.00000  Uiso   1.00
C779   C     0.58657   0.46711   0.95399   0.00000  Uiso   1.00
C780   C     0.35628   0.65283   0.74841   0.00000  Uiso   1.00
C781   C     0.64385   0.34722   0.75230   0.00000  Uiso   1.00
C782   C     0.35464   0.50649   0.84110   0.00000  Uiso   1.00
H783   H     0.42725   0.61209   0.54835   0.00000  Uiso   1.00
H784   H     0.50439   0.54310   0.78514   0.00000  Uiso   1.00
H785   H     0.49225   0.50070   0.61899   0.00000  Uiso   1.00
H786   H     0.39588   0.41855   0.86729   0.00000  Uiso   1.00
H787   H     0.39658   0.42642   0.62660   0.00000  Uiso   1.00
H788   H     0.63545   0.63566   0.90387   0.00000  Uiso   1.00
H789   H     0.61311   0.44836   0.92817   0.00000  Uiso   1.00
H790   H     0.35259   0.61392   0.98387   0.00000  Uiso   1.00
H791   H     0.34912   0.43829   0.99586   0.00000  Uiso   1.00
H792   H     0.51354   0.57626   0.58051   0.00000  Uiso   1.00
H793   H     0.51980   0.47297   0.89943   0.00000  Uiso   1.00
H794   H     0.39938   0.33668   0.74472   0.00000  Uiso   1.00
H795   H     0.60076   0.66339   0.75604   0.00000  Uiso   1.00
H796   H     0.49553   0.45610   0.71592   0.00000  Uiso   1.00
N797   N     0.48029   0.48550   0.73739   0.00000  Uiso   1.00
N798   N     0.51971   0.51450   0.76260   0.00000  Uiso   1.00
O799   O     0.63052   0.57964   0.75309   0.00000  Uiso   1.00
O800   O     0.43430   0.40667   0.93121   0.00000  Uiso   1.00
O801   O     0.42276   0.42044   0.55940   0.00000  Uiso   1.00
O802   O     0.58838   0.57187   0.87757   0.00000  Uiso   1.00
O803   O     0.36948   0.42036   0.74690   0.00000  Uiso   1.00
O804   O     0.39155   0.57035   0.74501   0.00000  Uiso   1.00
O805   O     0.60845   0.42965   0.75498   0.00000  Uiso   1.00
O806   O     0.63662   0.50730   0.82247   0.00000  Uiso   1.00
O807   O     0.36338   0.49270   0.67753   0.00000  Uiso   1.00
O808   O     0.39764   0.49801   0.81439   0.00000  Uiso   1.00
O809   O     0.60236   0.50199   0.68561   0.00000  Uiso   1.00
O810   O     0.52296   0.43237   0.63041   0.00000  Uiso   1.00
Zn811  Zn    0.60366   0.50621   0.75539   0.00000  Uiso   1.00
Zn812  Zn    0.39634   0.49379   0.74460   0.00000  Uiso   1.00
C813   C     0.68174   0.59823   0.74890   0.00000  Uiso   1.00
C814   C     0.97797   0.49169   0.65860   0.00000  Uiso   1.00
C815   C     0.69940   0.51872   0.89359   0.00000  Uiso   1.00
C816   C     0.96542   0.48137   0.60499   0.00000  Uiso   1.00
C817   C     0.70289   0.58120   0.96405   0.00000  Uiso   1.00
C818   C     0.98878   0.45686   0.52140   0.00000  Uiso   1.00
C819   C     0.67809   0.56305   0.91818   0.00000  Uiso   1.00
C820   C     0.67073   0.46050   0.57198   0.00000  Uiso   1.00
C821   C     0.74243   0.49233   0.91663   0.00000  Uiso   1.00
C822   C     0.91067   0.49156   0.58639   0.00000  Uiso   1.00
C823   C     0.77502   0.51836   0.95652   0.00000  Uiso   1.00
C824   C     0.98497   0.40178   0.75136   0.00000  Uiso   1.00
C825   C     0.90142   0.49814   0.53646   0.00000  Uiso   1.00
C826   C     0.75165   0.55995   0.98297   0.00000  Uiso   1.00
C827   C     0.93763   0.47505   0.50360   0.00000  Uiso   1.00
C828   C     0.83042   0.50511   0.97065   0.00000  Uiso   1.00
C829   C     0.85259   0.52060   0.51829   0.00000  Uiso   1.00
C830   C     0.86000   0.47555   0.61385   0.00000  Uiso   1.00
C831   C     0.74705   0.43569   0.90243   0.00000  Uiso   1.00
C832   C     0.72225   0.43489   0.58871   0.00000  Uiso   1.00
C833   C     0.96540   0.59335   0.89780   0.00000  Uiso   1.00
C834   C     0.82721   0.55981   0.54580   0.00000  Uiso   1.00
C835   C     0.86591   0.48035   0.93790   0.00000  Uiso   1.00
C836   C     0.77815   0.58052   0.52747   0.00000  Uiso   1.00
C837   C     0.91990   0.46711   0.95399   0.00000  Uiso   1.00
C838   C     0.68961   0.65283   0.74841   0.00000  Uiso   1.00
C839   C     0.97718   0.34722   0.75230   0.00000  Uiso   1.00
C840   C     0.68797   0.50649   0.84110   0.00000  Uiso   1.00
H841   H     0.76058   0.61209   0.54835   0.00000  Uiso   1.00
H842   H     0.83772   0.54310   0.78514   0.00000  Uiso   1.00
H843   H     0.82558   0.50070   0.61899   0.00000  Uiso   1.00
H844   H     0.72922   0.41855   0.86729   0.00000  Uiso   1.00
H845   H     0.72992   0.42642   0.62660   0.00000  Uiso   1.00
H846   H     0.96878   0.63566   0.90387   0.00000  Uiso   1.00
H847   H     0.94644   0.44836   0.92817   0.00000  Uiso   1.00
H848   H     0.68593   0.61392   0.98387   0.00000  Uiso   1.00
H849   H     0.68246   0.43829   0.99586   0.00000  Uiso   1.00
H850   H     0.84687   0.57626   0.58051   0.00000  Uiso   1.00
H851   H     0.85314   0.47297   0.89943   0.00000  Uiso   1.00
H852   H     0.73271   0.33668   0.74472   0.00000  Uiso   1.00
H853   H     0.93409   0.66339   0.75604   0.00000  Uiso   1.00
H854   H     0.82886   0.45610   0.71592   0.00000  Uiso   1.00
N855   N     0.81362   0.48550   0.73739   0.00000  Uiso   1.00
N856   N     0.85305   0.51450   0.76260   0.00000  Uiso   1.00
O857   O     0.96386   0.57964   0.75309   0.00000  Uiso   1.00
O858   O     0.76764   0.40667   0.93121   0.00000  Uiso   1.00
O859   O     0.75609   0.42044   0.55940   0.00000  Uiso   1.00
O860   O     0.92171   0.57187   0.87757   0.00000  Uiso   1.00
O861   O     0.70281   0.42036   0.74690   0.00000  Uiso   1.00
O862   O     0.72488   0.57035   0.74501   0.00000  Uiso   1.00
O863   O     0.94178   0.42965   0.75498   0.00000  Uiso   1.00
O864   O     0.96995   0.50730   0.82247   0.00000  Uiso   1.00
O865   O     0.69672   0.49270   0.67753   0.00000  Uiso   1.00
O866   O     0.73098   0.49801   0.81439   0.00000  Uiso   1.00
O867   O     0.93569   0.50199   0.68561   0.00000  Uiso   1.00
O868   O     0.85629   0.43237   0.63041   0.00000  Uiso   1.00
Zn869  Zn    0.93700   0.50621   0.75539   0.00000  Uiso   1.00
Zn870  Zn    0.72967   0.49379   0.74460   0.00000  Uiso   1.00
C871   C     0.01507   0.93157   0.74890   0.00000  Uiso   1.00
C872   C     0.31130   0.82503   0.65860   0.00000  Uiso   1.00
C873   C     0.03273   0.85205   0.89359   0.00000  Uiso   1.00
C874   C     0.29876   0.81470   0.60499   0.00000  Uiso   1.00
C875   C     0.03622   0.91454   0.96405   0.00000  Uiso   1.00
C876   C     0.32211   0.79020   0.52140   0.00000  Uiso   1.00
C877   C     0.01142   0.89638   0.91818   0.00000  Uiso   1.00
C878   C     0.00407   0.79383   0.57198   0.00000  Uiso   1.00
C879   C     0.07577   0.82567   0.91663   0.00000  Uiso   1.00
C880   C     0.24400   0.82489   0.58639   0.00000  Uiso   1.00
C881   C     0.10836   0.85169   0.95652   0.00000  Uiso   1.00
C882   C     0.31831   0.73512   0.75136   0.00000  Uiso   1.00
C883   C     0.23476   0.83147   0.53646   0.00000  Uiso   1.00
C884   C     0.08499   0.89328   0.98297   0.00000  Uiso   1.00
C885   C     0.27096   0.80839   0.50360   0.00000  Uiso   1.00
C886   C     0.16375   0.83845   0.97065   0.00000  Uiso   1.00
C887   C     0.18592   0.85393   0.51829   0.00000  Uiso   1.00
C888   C     0.19334   0.80888   0.61385   0.00000  Uiso   1.00
C889   C     0.08039   0.76903   0.90243   0.00000  Uiso   1.00
C890   C     0.05558   0.76822   0.58871   0.00000  Uiso   1.00
C891   C     0.29873   0.92669   0.89780   0.00000  Uiso   1.00
C892   C     0.16054   0.89314   0.54580   0.00000  Uiso   1.00
C893   C     0.19924   0.81368   0.93790   0.00000  Uiso   1.00
C894   C     0.11148   0.91386   0.52747   0.00000  Uiso   1.00
C895   C     0.25324   0.80044   0.95399   0.00000  Uiso   1.00
C896   C     0.02294   0.98617   0.74841   0.00000  Uiso   1.00
C897   C     0.31052   0.68055   0.75230   0.00000  Uiso   1.00
C898   C     0.02131   0.83982   0.84110   0.00000  Uiso   1.00
H899   H     0.09391   0.94543   0.54835   0.00000  Uiso   1.00
H900   H     0.17106   0.87643   0.78514   0.00000  Uiso   1.00
H901   H     0.15891   0.83403   0.61899   0.00000  Uiso   1.00
H902   H     0.06255   0.75188   0.86729   0.00000  Uiso   1.00
H903   H     0.06325   0.75975   0.62660   0.00000  Uiso   1.00
H904   H     0.30211   0.96899   0.90387   0.00000  Uiso   1.00
H905   H     0.27977   0.78169   0.92817   0.00000  Uiso   1.00
H906   H     0.01926   0.94725   0.98387   0.00000  Uiso   1.00
H907   H     0.01579   0.77163   0.99586   0.00000  Uiso   1.00
H908   H     0.18020   0.90959   0.58051   0.00000  Uiso   1.00
H909   H     0.18647   0.80630   0.89943   0.00000  Uiso   1.00
H910   H     0.06605   0.67001   0.74472   0.00000  Uiso   1.00
H911   H     0.26742   0.99672   0.75604   0.00000  Uiso   1.00
H912   H     0.16219   0.78943   0.71592   0.00000  Uiso   1.00
N913   N     0.14695   0.81883   0.73739   0.00000  Uiso   1.00
N914   N     0.18638   0.84784   0.76260   0.00000  Uiso   1.00
O915   O     0.29719   0.91298   0.75309   0.00000  Uiso   1.00
O916   O     0.10097   0.74000   0.93121   0.00000  Uiso   1.00
O917   O     0.08943   0.75378   0.55940   0.00000  Uiso   1.00
O918   O     0.25504   0.90521   0.87757   0.00000  Uiso   1.00
O919   O     0.03614   0.75369   0.74690   0.00000  Uiso   1.00
O920   O     0.05822   0.90368   0.74501   0.00000  Uiso   1.00
O921   O     0.27512   0.76298   0.75498   0.00000  Uiso   1.00
O922   O     0.30328   0.84063   0.82247   0.00000  Uiso   1.00
O923   O     0.03005   0.82603   0.67753   0.00000  Uiso   1.00
O924   O     0.06431   0.83134   0.81439   0.00000  Uiso   1.00
O925   O     0.26902   0.83533   0.68561   0.00000  Uiso   1.00
O926   O     0.18962   0.76570   0.63041   0.00000  Uiso   1.00
Zn927  Zn    0.27033   0.83954   0.75539   0.00000  Uiso   1.00
Zn928  Zn    0.06300   0.82713   0.74460   0.00000  Uiso   1.00
C929   C     0.34841   0.93157   0.74890   0.00000  Uiso   1.00
C930   C     0.64464   0.82503   0.65860   0.00000  Uiso   1.00
C931   C     0.36607   0.85205   0.89359   0.00000  Uiso   1.00
C932   C     0.63209   0.81470   0.60499   0.00000  Uiso   1.00
C933   C     0.36955   0.91454   0.96405   0.00000  Uiso   1.00
C934   C     0.65544   0.79020   0.52140   0.00000  Uiso   1.00
C935   C     0.34475   0.89638   0.91818   0.00000  Uiso   1.00
C936   C     0.33740   0.79383   0.57198   0.00000  Uiso   1.00
C937   C     0.40910   0.82567   0.91663   0.00000  Uiso   1.00
C938   C     0.57733   0.82489   0.58639   0.00000  Uiso   1.00
C939   C     0.44169   0.85169   0.95652   0.00000  Uiso   1.00
C940   C     0.65164   0.73512   0.75136   0.00000  Uiso   1.00
C941   C     0.56809   0.83147   0.53646   0.00000  Uiso   1.00
C942   C     0.41832   0.89328   0.98297   0.00000  Uiso   1.00
C943   C     0.60430   0.80839   0.50360   0.00000  Uiso   1.00
C944   C     0.49708   0.83845   0.97065   0.00000  Uiso   1.00
C945   C     0.51925   0.85393   0.51829   0.00000  Uiso   1.00
C946   C     0.52667   0.80888   0.61385   0.00000  Uiso   1.00
C947   C     0.41372   0.76903   0.90243   0.00000  Uiso   1.00
C948   C     0.38891   0.76822   0.58871   0.00000  Uiso   1.00
C949   C     0.63206   0.92669   0.89780   0.00000  Uiso   1.00
C950   C     0.49387   0.89314   0.54580   0.00000  Uiso   1.00
C951   C     0.53257   0.81368   0.93790   0.00000  Uiso   1.00
C952   C     0.44481   0.91386   0.52747   0.00000  Uiso   1.00
C953   C     0.58657   0.80044   0.95399   0.00000  Uiso   1.00
C954   C     0.35628   0.98617   0.74841   0.00000  Uiso   1.00
C955   C     0.64385   0.68055   0.75230   0.00000  Uiso   1.00
C956   C     0.35464   0.83982   0.84110   0.00000  Uiso   1.00
H957   H     0.42725   0.94543   0.54835   0.00000  Uiso   1.00
H958   H     0.50439   0.87643   0.78514   0.00000  Uiso   1.00
H959   H     0.49225   0.83403   0.61899   0.00000  Uiso   1.00
H960   H     0.39588   0.75188   0.86729   0.00000  Uiso   1.00
H961   H     0.39658   0.75975   0.62660   0.00000  Uiso   1.00
H962   H     0.63545   0.96899   0.90387   0.00000  Uiso   1.00
H963   H     0.61311   0.78169   0.92817   0.00000  Uiso   1.00
H964   H     0.35259   0.94725   0.98387   0.00000  Uiso   1.00
H965   H     0.34912   0.77163   0.99586   0.00000  Uiso   1.00
H966   H     0.51354   0.90959   0.58051   0.00000  Uiso   1.00
H967   H     0.51980   0.80630   0.89943   0.00000  Uiso   1.00
H968   H     0.39938   0.67001   0.74472   0.00000  Uiso   1.00
H969   H     0.60076   0.99672   0.75604   0.00000  Uiso   1.00
H970   H     0.49553   0.78943   0.71592   0.00000  Uiso   1.00
N971   N     0.48029   0.81883   0.73739   0.00000  Uiso   1.00
N972   N     0.51971   0.84784   0.76260   0.00000  Uiso   1.00
O973   O     0.63052   0.91298   0.75309   0.00000  Uiso   1.00
O974   O     0.43430   0.74000   0.93121   0.00000  Uiso   1.00
O975   O     0.42276   0.75378   0.55940   0.00000  Uiso   1.00
O976   O     0.58838   0.90521   0.87757   0.00000  Uiso   1.00
O977   O     0.36948   0.75369   0.74690   0.00000  Uiso   1.00
O978   O     0.39155   0.90368   0.74501   0.00000  Uiso   1.00
O979   O     0.60845   0.76298   0.75498   0.00000  Uiso   1.00
O980   O     0.63662   0.84063   0.82247   0.00000  Uiso   1.00
O981   O     0.36338   0.82603   0.67753   0.00000  Uiso   1.00
O982   O     0.39764   0.83134   0.81439   0.00000  Uiso   1.00
O983   O     0.60236   0.83533   0.68561   0.00000  Uiso   1.00
O984   O     0.52296   0.76570   0.63041   0.00000  Uiso   1.00
Zn985  Zn    0.60366   0.83954   0.75539   0.00000  Uiso   1.00
Zn986  Zn    0.39634   0.82713   0.74460   0.00000  Uiso   1.00
C987   C     0.68174   0.93157   0.74890   0.00000  Uiso   1.00
C988   C     0.97797   0.82503   0.65860   0.00000  Uiso   1.00
C989   C     0.69940   0.85205   0.89359   0.00000  Uiso   1.00
C990   C     0.96542   0.81470   0.60499   0.00000  Uiso   1.00
C991   C     0.70289   0.91454   0.96405   0.00000  Uiso   1.00
C992   C     0.98878   0.79020   0.52140   0.00000  Uiso   1.00
C993   C     0.67809   0.89638   0.91818   0.00000  Uiso   1.00
C994   C     0.67073   0.79383   0.57198   0.00000  Uiso   1.00
C995   C     0.74243   0.82567   0.91663   0.00000  Uiso   1.00
C996   C     0.91067   0.82489   0.58639   0.00000  Uiso   1.00
C997   C     0.77502   0.85169   0.95652   0.00000  Uiso   1.00
C998   C     0.98497   0.73512   0.75136   0.00000  Uiso   1.00
C999   C     0.90142   0.83147   0.53646   0.00000  Uiso   1.00
C1000  C     0.75165   0.89328   0.98297   0.00000  Uiso   1.00
C1001  C     0.93763   0.80839   0.50360   0.00000  Uiso   1.00
C1002  C     0.83042   0.83845   0.97065   0.00000  Uiso   1.00
C1003  C     0.85259   0.85393   0.51829   0.00000  Uiso   1.00
C1004  C     0.86000   0.80888   0.61385   0.00000  Uiso   1.00
C1005  C     0.74705   0.76903   0.90243   0.00000  Uiso   1.00
C1006  C     0.72225   0.76822   0.58871   0.00000  Uiso   1.00
C1007  C     0.96540   0.92669   0.89780   0.00000  Uiso   1.00
C1008  C     0.82721   0.89314   0.54580   0.00000  Uiso   1.00
C1009  C     0.86591   0.81368   0.93790   0.00000  Uiso   1.00
C1010  C     0.77815   0.91386   0.52747   0.00000  Uiso   1.00
C1011  C     0.91990   0.80044   0.95399   0.00000  Uiso   1.00
C1012  C     0.68961   0.98617   0.74841   0.00000  Uiso   1.00
C1013  C     0.97718   0.68055   0.75230   0.00000  Uiso   1.00
C1014  C     0.68797   0.83982   0.84110   0.00000  Uiso   1.00
H1015  H     0.76058   0.94543   0.54835   0.00000  Uiso   1.00
H1016  H     0.83772   0.87643   0.78514   0.00000  Uiso   1.00
H1017  H     0.82558   0.83403   0.61899   0.00000  Uiso   1.00
H1018  H     0.72922   0.75188   0.86729   0.00000  Uiso   1.00
H1019  H     0.72992   0.75975   0.62660   0.00000  Uiso   1.00
H1020  H     0.96878   0.96899   0.90387   0.00000  Uiso   1.00
H1021  H     0.94644   0.78169   0.92817   0.00000  Uiso   1.00
H1022  H     0.68593   0.94725   0.98387   0.00000  Uiso   1.00
H1023  H     0.68246   0.77163   0.99586   0.00000  Uiso   1.00
H1024  H     0.84687   0.90959   0.58051   0.00000  Uiso   1.00
H1025  H     0.85314   0.80630   0.89943   0.00000  Uiso   1.00
H1026  H     0.73271   0.67001   0.74472   0.00000  Uiso   1.00
H1027  H     0.93409   0.99672   0.75604   0.00000  Uiso   1.00
H1028  H     0.82886   0.78943   0.71592   0.00000  Uiso   1.00
N1029  N     0.81362   0.81883   0.73739   0.00000  Uiso   1.00
N1030  N     0.85305   0.84784   0.76260   0.00000  Uiso   1.00
O1031  O     0.96386   0.91298   0.75309   0.00000  Uiso   1.00
O1032  O     0.76764   0.74000   0.93121   0.00000  Uiso   1.00
O1033  O     0.75609   0.75378   0.55940   0.00000  Uiso   1.00
O1034  O     0.92171   0.90521   0.87757   0.00000  Uiso   1.00
O1035  O     0.70281   0.75369   0.74690   0.00000  Uiso   1.00
O1036  O     0.72488   0.90368   0.74501   0.00000  Uiso   1.00
O1037  O     0.94178   0.76298   0.75498   0.00000  Uiso   1.00
O1038  O     0.96995   0.84063   0.82247   0.00000  Uiso   1.00
O1039  O     0.69672   0.82603   0.67753   0.00000  Uiso   1.00
O1040  O     0.73098   0.83134   0.81439   0.00000  Uiso   1.00
O1041  O     0.93569   0.83533   0.68561   0.00000  Uiso   1.00
O1042  O     0.85629   0.76570   0.63041   0.00000  Uiso   1.00
Zn1043 Zn    0.93700   0.83954   0.75539   0.00000  Uiso   1.00
Zn1044 Zn    0.72967   0.82713   0.74460   0.00000  Uiso   1.00
loop_
_geom_bond_atom_site_label_1
_geom_bond_atom_site_label_2
_geom_bond_distance
_geom_bond_site_symmetry_2
_ccdc_geom_bond_type
C1     O50     1.290   .     A
C1     C26     1.402   .     S
C1     O161    1.276   1_455 S
C2     C4      1.486   .     S
C2     O55     1.304   .     A
C2     O111    1.302   .     S
C3     C9      1.401   .     A
C3     C7      1.425   .     A
C3     C28     1.460   .     S
C4     C10     1.408   .     A
C4     C66     1.426   .     S
C5     C14     1.394   .     A
C5     H36     1.086   .     S
C5     C7      1.396   .     A
C6     C15     1.396   .     A
C6     C66     1.408   .     S
C6     H617    1.083   1_554 S
C7     C137    1.483   1_455 S
C8     C20     1.484   .     S
C8     C120    1.426   1_455 S
C8     C122    1.408   1_455 S
C9     C11     1.406   .     A
C9     C19     1.497   .     S
C10    C18     1.488   .     S
C10    C13     1.395   .     A
C11    C14     1.416   .     A
C11    C16     1.410   .     A
C12    O51     1.289   .     A
C12    C27     1.402   .     S
C12    O107    1.276   .     S
C13    C17     1.403   .     A
C13    C15     1.407   .     A
C14    C546    1.396   .     S
C15    C547    1.398   1_554 S
C16    C23     1.413   .     A
C16    C539    1.403   .     S
C17    C22     1.409   .     A
C17    C538    1.403   1_554 S
C18    O56     1.221   .     D
C18    H31     1.082   .     S
C19    O46     1.221   .     D
C19    H32     1.084   .     S
C20    H33     1.081   .     S
C20    O47     1.222   .     D
C21    H34     1.086   .     S
C21    O48     1.219   .     D
C21    C65     1.483   .     S
C22    C24     1.388   .     A
C22    H38     1.083   .     S
C23    H39     1.082   .     S
C23    C25     1.394   .     A
C24    H29     1.084   .     S
C24    C536    1.396   1_554 S
C25    H35     1.083   .     S
C25    C537    1.398   .     S
C26    C317    1.339   1_455 S
C26    H214    1.088   .     S
C27    C432    1.339   1_545 S
C27    H389    1.088   1_545 S
C28    O54     1.303   .     A
C28    O168    1.288   1_455 S
H30    N44     1.029   .     S
H37    C644    1.083   1_455 S
H40    C374    1.088   1_545 S
H41    C201    1.088   .     S
H42    N43     1.027   .     S
N43    N44     1.289   .     D
N43    Zn58    2.020   .     S
N44    Zn57    2.020   .     S
O45    Zn57    1.950   .     S
O45    C59     1.276   .     S
O49    Zn58    1.950   .     S
O49    C128    1.276   1_455 S
O50    Zn58    1.977   .     S
O51    Zn57    1.977   .     S
O52    Zn57    1.953   .     S
O52    C86     1.288   .     S
O53    Zn58    1.953   .     S
O53    C118    1.302   1_455 S
O54    Zn58    1.906   .     S
O55    Zn57    1.906   .     S
C59    O108    1.290   .     A
C59    C84     1.402   .     S
C60    C62     1.486   .     S
C60    O113    1.304   .     A
C60    O169    1.302   .     S
C61    C67     1.401   .     A
C61    C65     1.425   .     A
C61    C86     1.460   .     S
C62    C68     1.408   .     A
C62    C124    1.426   .     S
C63    C72     1.394   .     A
C63    H94     1.086   .     S
C63    C65     1.396   .     A
C64    C73     1.396   .     A
C64    C124    1.408   .     S
C64    H675    1.083   1_554 S
C66    C78     1.484   .     S
C67    C69     1.406   .     A
C67    C77     1.497   .     S
C68    C76     1.488   .     S
C68    C71     1.395   .     A
C69    C72     1.416   .     A
C69    C74     1.410   .     A
C70    O109    1.289   .     A
C70    C85     1.402   .     S
C70    O165    1.276   .     S
C71    C75     1.403   .     A
C71    C73     1.407   .     A
C72    C604    1.396   .     S
C73    C605    1.398   1_554 S
C74    C81     1.413   .     A
C74    C597    1.403   .     S
C75    C80     1.409   .     A
C75    C596    1.403   1_554 S
C76    O114    1.221   .     D
C76    H89     1.082   .     S
C77    O104    1.221   .     D
C77    H90     1.084   .     S
C78    H91     1.081   .     S
C78    O105    1.222   .     D
C79    H92     1.086   .     S
C79    O106    1.219   .     D
C79    C123    1.483   .     S
C80    C82     1.388   .     A
C80    H96     1.083   .     S
C81    H97     1.082   .     S
C81    C83     1.394   .     A
C82    H87     1.084   .     S
C82    C594    1.396   1_554 S
C83    H93     1.083   .     S
C83    C595    1.398   .     S
C84    C201    1.339   .     S
C84    H272    1.088   .     S
C85    C490    1.339   1_545 S
C85    H447    1.088   1_545 S
C86    O112    1.303   .     A
H88    N102    1.029   .     S
H95    C528    1.083   .     S
H98    C432    1.088   1_545 S
H99    C259    1.088   .     S
H100   N101    1.027   .     S
N101   N102    1.289   .     D
N101   Zn116   2.020   .     S
N102   Zn115   2.020   .     S
O103   Zn115   1.950   .     S
O103   C117    1.276   .     S
O107   Zn116   1.950   .     S
O108   Zn116   1.977   .     S
O109   Zn115   1.977   .     S
O110   Zn115   1.953   .     S
O110   C144    1.288   .     S
O111   Zn116   1.953   .     S
O112   Zn116   1.906   .     S
O113   Zn115   1.906   .     S
C117   O166    1.290   .     A
C117   C142    1.402   .     S
C118   C120    1.486   .     S
C118   O171    1.304   .     A
C118   O53     1.302   1_655 S
C119   C125    1.401   .     A
C119   C123    1.425   .     A
C119   C144    1.460   .     S
C120   C126    1.408   .     A
C120   C8      1.426   1_655 S
C121   C130    1.394   .     A
C121   H152    1.086   .     S
C121   C123    1.396   .     A
C122   C131    1.396   .     A
C122   C8      1.408   1_655 S
C122   H559    1.083   1_654 S
C124   C136    1.484   .     S
C125   C127    1.406   .     A
C125   C135    1.497   .     S
C126   C134    1.488   .     S
C126   C129    1.395   .     A
C127   C130    1.416   .     A
C127   C132    1.410   .     A
C128   O167    1.289   .     A
C128   C143    1.402   .     S
C128   O49     1.276   1_655 S
C129   C133    1.403   .     A
C129   C131    1.407   .     A
C130   C662    1.396   .     S
C131   C663    1.398   1_554 S
C132   C139    1.413   .     A
C132   C655    1.403   .     S
C133   C138    1.409   .     A
C133   C654    1.403   1_554 S
C134   O172    1.221   .     D
C134   H147    1.082   .     S
C135   O162    1.221   .     D
C135   H148    1.084   .     S
C136   H149    1.081   .     S
C136   O163    1.222   .     D
C137   H150    1.086   .     S
C137   O164    1.219   .     D
C137   C7      1.483   1_655 S
C138   C140    1.388   .     A
C138   H154    1.083   .     S
C139   H155    1.082   .     S
C139   C141    1.394   .     A
C140   H145    1.084   .     S
C140   C652    1.396   1_554 S
C141   H151    1.083   .     S
C141   C653    1.398   .     S
C142   C259    1.339   .     S
C142   H330    1.088   .     S
C143   C374    1.339   1_645 S
C143   H505    1.088   1_545 S
C144   O170    1.303   .     A
H146   N160    1.029   .     S
H153   C586    1.083   .     S
H156   C490    1.088   1_545 S
H157   C317    1.088   .     S
H158   N159    1.027   .     S
N159   N160    1.289   .     D
N159   Zn174   2.020   .     S
N160   Zn173   2.020   .     S
O161   Zn173   1.950   .     S
O161   C1      1.276   1_655 S
O165   Zn174   1.950   .     S
O166   Zn174   1.977   .     S
O167   Zn173   1.977   .     S
O168   Zn173   1.953   .     S
O168   C28     1.288   1_655 S
O169   Zn174   1.953   .     S
O170   Zn174   1.906   .     S
O171   Zn173   1.906   .     S
C175   O224    1.290   .     A
C175   C200    1.402   .     S
C175   O335    1.276   1_455 S
C176   C178    1.486   .     S
C176   O229    1.304   .     A
C176   O285    1.302   .     S
C177   C183    1.401   .     A
C177   C181    1.425   .     A
C177   C202    1.460   .     S
C178   C184    1.408   .     A
C178   C240    1.426   .     S
C179   C188    1.394   .     A
C179   H210    1.086   .     S
C179   C181    1.396   .     A
C180   C189    1.396   .     A
C180   C240    1.408   .     S
C180   H791    1.083   1_554 S
C181   C311    1.483   1_455 S
C182   C194    1.484   .     S
C182   C294    1.426   1_455 S
C182   C296    1.408   1_455 S
C183   C185    1.406   .     A
C183   C193    1.497   .     S
C184   C192    1.488   .     S
C184   C187    1.395   .     A
C185   C188    1.416   .     A
C185   C190    1.410   .     A
C186   O225    1.289   .     A
C186   C201    1.402   .     S
C186   O281    1.276   .     S
C187   C191    1.403   .     A
C187   C189    1.407   .     A
C188   C720    1.396   .     S
C189   C721    1.398   1_554 S
C190   C197    1.413   .     A
C190   C713    1.403   .     S
C191   C196    1.409   .     A
C191   C712    1.403   1_554 S
C192   O230    1.221   .     D
C192   H205    1.082   .     S
C193   O220    1.221   .     D
C193   H206    1.084   .     S
C194   H207    1.081   .     S
C194   O221    1.222   .     D
C195   H208    1.086   .     S
C195   O222    1.219   .     D
C195   C239    1.483   .     S
C196   C198    1.388   .     A
C196   H212    1.083   .     S
C197   H213    1.082   .     S
C197   C199    1.394   .     A
C198   H203    1.084   .     S
C198   C710    1.396   1_554 S
C199   H209    1.083   .     S
C199   C711    1.398   .     S
C200   C491    1.339   1_455 S
C200   H388    1.088   .     S
C202   O228    1.303   .     A
C202   O342    1.288   1_455 S
H204   N218    1.029   .     S
H211   C818    1.083   1_455 S
H215   C375    1.088   .     S
H216   N217    1.027   .     S
N217   N218    1.289   .     D
N217   Zn232   2.020   .     S
N218   Zn231   2.020   .     S
O219   Zn231   1.950   .     S
O219   C233    1.276   .     S
O223   Zn232   1.950   .     S
O223   C302    1.276   1_455 S
O224   Zn232   1.977   .     S
O225   Zn231   1.977   .     S
O226   Zn231   1.953   .     S
O226   C260    1.288   .     S
O227   Zn232   1.953   .     S
O227   C292    1.302   1_455 S
O228   Zn232   1.906   .     S
O229   Zn231   1.906   .     S
C233   O282    1.290   .     A
C233   C258    1.402   .     S
C234   C236    1.486   .     S
C234   O287    1.304   .     A
C234   O343    1.302   .     S
C235   C241    1.401   .     A
C235   C239    1.425   .     A
C235   C260    1.460   .     S
C236   C242    1.408   .     A
C236   C298    1.426   .     S
C237   C246    1.394   .     A
C237   H268    1.086   .     S
C237   C239    1.396   .     A
C238   C247    1.396   .     A
C238   C298    1.408   .     S
C238   H849    1.083   1_554 S
C240   C252    1.484   .     S
C241   C243    1.406   .     A
C241   C251    1.497   .     S
C242   C250    1.488   .     S
C242   C245    1.395   .     A
C243   C246    1.416   .     A
C243   C248    1.410   .     A
C244   O283    1.289   .     A
C244   C259    1.402   .     S
C244   O339    1.276   .     S
C245   C249    1.403   .     A
C245   C247    1.407   .     A
C246   C778    1.396   .     S
C247   C779    1.398   1_554 S
C248   C255    1.413   .     A
C248   C771    1.403   .     S
C249   C254    1.409   .     A
C249   C770    1.403   1_554 S
C250   O288    1.221   .     D
C250   H263    1.082   .     S
C251   O278    1.221   .     D
C251   H264    1.084   .     S
C252   H265    1.081   .     S
C252   O279    1.222   .     D
C253   H266    1.086   .     S
C253   O280    1.219   .     D
C253   C297    1.483   .     S
C254   C256    1.388   .     A
C254   H270    1.083   .     S
C255   H271    1.082   .     S
C255   C257    1.394   .     A
C256   H261    1.084   .     S
C256   C768    1.396   1_554 S
C257   H267    1.083   .     S
C257   C769    1.398   .     S
C258   C375    1.339   .     S
C258   H446    1.088   .     S
C260   O286    1.303   .     A
H262   N276    1.029   .     S
H269   C702    1.083   .     S
H273   C433    1.088   .     S
H274   N275    1.027   .     S
N275   N276    1.289   .     D
N275   Zn290   2.020   .     S
N276   Zn289   2.020   .     S
O277   Zn289   1.950   .     S
O277   C291    1.276   .     S
O281   Zn290   1.950   .     S
O282   Zn290   1.977   .     S
O283   Zn289   1.977   .     S
O284   Zn289   1.953   .     S
O284   C318    1.288   .     S
O285   Zn290   1.953   .     S
O286   Zn290   1.906   .     S
O287   Zn289   1.906   .     S
C291   O340    1.290   .     A
C291   C316    1.402   .     S
C292   C294    1.486   .     S
C292   O345    1.304   .     A
C292   O227    1.302   1_655 S
C293   C299    1.401   .     A
C293   C297    1.425   .     A
C293   C318    1.460   .     S
C294   C300    1.408   .     A
C294   C182    1.426   1_655 S
C295   C304    1.394   .     A
C295   H326    1.086   .     S
C295   C297    1.396   .     A
C296   C305    1.396   .     A
C296   C182    1.408   1_655 S
C296   H733    1.083   1_654 S
C298   C310    1.484   .     S
C299   C301    1.406   .     A
C299   C309    1.497   .     S
C300   C308    1.488   .     S
C300   C303    1.395   .     A
C301   C304    1.416   .     A
C301   C306    1.410   .     A
C302   O341    1.289   .     A
C302   C317    1.402   .     S
C302   O223    1.276   1_655 S
C303   C307    1.403   .     A
C303   C305    1.407   .     A
C304   C836    1.396   .     S
C305   C837    1.398   1_554 S
C306   C313    1.413   .     A
C306   C829    1.403   .     S
C307   C312    1.409   .     A
C307   C828    1.403   1_554 S
C308   O346    1.221   .     D
C308   H321    1.082   .     S
C309   O336    1.221   .     D
C309   H322    1.084   .     S
C310   H323    1.081   .     S
C310   O337    1.222   .     D
C311   H324    1.086   .     S
C311   O338    1.219   .     D
C311   C181    1.483   1_655 S
C312   C314    1.388   .     A
C312   H328    1.083   .     S
C313   H329    1.082   .     S
C313   C315    1.394   .     A
C314   H319    1.084   .     S
C314   C826    1.396   1_554 S
C315   H325    1.083   .     S
C315   C827    1.398   .     S
C316   C433    1.339   .     S
C316   H504    1.088   .     S
C317   C26     1.339   1_655 S
C318   O344    1.303   .     A
H320   N334    1.029   .     S
H327   C760    1.083   .     S
H331   C491    1.088   .     S
H332   N333    1.027   .     S
N333   N334    1.289   .     D
N333   Zn348   2.020   .     S
N334   Zn347   2.020   .     S
O335   Zn347   1.950   .     S
O335   C175    1.276   1_655 S
O339   Zn348   1.950   .     S
O340   Zn348   1.977   .     S
O341   Zn347   1.977   .     S
O342   Zn347   1.953   .     S
O342   C202    1.288   1_655 S
O343   Zn348   1.953   .     S
O344   Zn348   1.906   .     S
O345   Zn347   1.906   .     S
C349   O398    1.290   .     A
C349   C374    1.402   .     S
C349   O509    1.276   1_455 S
C350   C352    1.486   .     S
C350   O403    1.304   .     A
C350   O459    1.302   .     S
C351   C357    1.401   .     A
C351   C355    1.425   .     A
C351   C376    1.460   .     S
C352   C358    1.408   .     A
C352   C414    1.426   .     S
C353   C362    1.394   .     A
C353   H384    1.086   .     S
C353   C355    1.396   .     A
C354   C363    1.396   .     A
C354   C414    1.408   .     S
C354   H965    1.083   1_554 S
C355   C485    1.483   1_455 S
C356   C368    1.484   .     S
C356   C468    1.426   1_455 S
C356   C470    1.408   1_455 S
C357   C359    1.406   .     A
C357   C367    1.497   .     S
C358   C366    1.488   .     S
C358   C361    1.395   .     A
C359   C362    1.416   .     A
C359   C364    1.410   .     A
C360   O399    1.289   .     A
C360   C375    1.402   .     S
C360   O455    1.276   .     S
C361   C365    1.403   .     A
C361   C363    1.407   .     A
C362   C894    1.396   .     S
C363   C895    1.398   1_554 S
C364   C371    1.413   .     A
C364   C887    1.403   .     S
C365   C370    1.409   .     A
C365   C886    1.403   1_554 S
C366   O404    1.221   .     D
C366   H379    1.082   .     S
C367   O394    1.221   .     D
C367   H380    1.084   .     S
C368   H381    1.081   .     S
C368   O395    1.222   .     D
C369   H382    1.086   .     S
C369   O396    1.219   .     D
C369   C413    1.483   .     S
C370   C372    1.388   .     A
C370   H386    1.083   .     S
C371   H387    1.082   .     S
C371   C373    1.394   .     A
C372   H377    1.084   .     S
C372   C884    1.396   1_554 S
C373   H383    1.083   .     S
C373   C885    1.398   .     S
C374   C143    1.339   1_465 S
C374   H40     1.088   1_565 S
C376   O402    1.303   .     A
C376   O516    1.288   1_455 S
H378   N392    1.029   .     S
H385   C992    1.083   1_455 S
H389   C27     1.088   1_565 S
H390   N391    1.027   .     S
N391   N392    1.289   .     D
N391   Zn406   2.020   .     S
N392   Zn405   2.020   .     S
O393   Zn405   1.950   .     S
O393   C407    1.276   .     S
O397   Zn406   1.950   .     S
O397   C476    1.276   1_455 S
O398   Zn406   1.977   .     S
O399   Zn405   1.977   .     S
O400   Zn405   1.953   .     S
O400   C434    1.288   .     S
O401   Zn406   1.953   .     S
O401   C466    1.302   1_455 S
O402   Zn406   1.906   .     S
O403   Zn405   1.906   .     S
C407   O456    1.290   .     A
C407   C432    1.402   .     S
C408   C410    1.486   .     S
C408   O461    1.304   .     A
C408   O517    1.302   .     S
C409   C415    1.401   .     A
C409   C413    1.425   .     A
C409   C434    1.460   .     S
C410   C416    1.408   .     A
C410   C472    1.426   .     S
C411   C420    1.394   .     A
C411   H442    1.086   .     S
C411   C413    1.396   .     A
C412   C421    1.396   .     A
C412   C472    1.408   .     S
C412   H1023   1.083   1_554 S
C414   C426    1.484   .     S
C415   C417    1.406   .     A
C415   C425    1.497   .     S
C416   C424    1.488   .     S
C416   C419    1.395   .     A
C417   C420    1.416   .     A
C417   C422    1.410   .     A
C418   O457    1.289   .     A
C418   C433    1.402   .     S
C418   O513    1.276   .     S
C419   C423    1.403   .     A
C419   C421    1.407   .     A
C420   C952    1.396   .     S
C421   C953    1.398   1_554 S
C422   C429    1.413   .     A
C422   C945    1.403   .     S
C423   C428    1.409   .     A
C423   C944    1.403   1_554 S
C424   O462    1.221   .     D
C424   H437    1.082   .     S
C425   O452    1.221   .     D
C425   H438    1.084   .     S
C426   H439    1.081   .     S
C426   O453    1.222   .     D
C427   H440    1.086   .     S
C427   O454    1.219   .     D
C427   C471    1.483   .     S
C428   C430    1.388   .     A
C428   H444    1.083   .     S
C429   H445    1.082   .     S
C429   C431    1.394   .     A
C430   H435    1.084   .     S
C430   C942    1.396   1_554 S
C431   H441    1.083   .     S
C431   C943    1.398   .     S
C432   C27     1.339   1_565 S
C432   H98     1.088   1_565 S
C434   O460    1.303   .     A
H436   N450    1.029   .     S
H443   C876    1.083   .     S
H447   C85     1.088   1_565 S
H448   N449    1.027   .     S
N449   N450    1.289   .     D
N449   Zn464   2.020   .     S
N450   Zn463   2.020   .     S
O451   Zn463   1.950   .     S
O451   C465    1.276   .     S
O455   Zn464   1.950   .     S
O456   Zn464   1.977   .     S
O457   Zn463   1.977   .     S
O458   Zn463   1.953   .     S
O458   C492    1.288   .     S
O459   Zn464   1.953   .     S
O460   Zn464   1.906   .     S
O461   Zn463   1.906   .     S
C465   O514    1.290   .     A
C465   C490    1.402   .     S
C466   C468    1.486   .     S
C466   O519    1.304   .     A
C466   O401    1.302   1_655 S
C467   C473    1.401   .     A
C467   C471    1.425   .     A
C467   C492    1.460   .     S
C468   C474    1.408   .     A
C468   C356    1.426   1_655 S
C469   C478    1.394   .     A
C469   H500    1.086   .     S
C469   C471    1.396   .     A
C470   C479    1.396   .     A
C470   C356    1.408   1_655 S
C470   H907    1.083   1_654 S
C472   C484    1.484   .     S
C473   C475    1.406   .     A
C473   C483    1.497   .     S
C474   C482    1.488   .     S
C474   C477    1.395   .     A
C475   C478    1.416   .     A
C475   C480    1.410   .     A
C476   O515    1.289   .     A
C476   C491    1.402   .     S
C476   O397    1.276   1_655 S
C477   C481    1.403   .     A
C477   C479    1.407   .     A
C478   C1010   1.396   .     S
C479   C1011   1.398   1_554 S
C480   C487    1.413   .     A
C480   C1003   1.403   .     S
C481   C486    1.409   .     A
C481   C1002   1.403   1_554 S
C482   O520    1.221   .     D
C482   H495    1.082   .     S
C483   O510    1.221   .     D
C483   H496    1.084   .     S
C484   H497    1.081   .     S
C484   O511    1.222   .     D
C485   H498    1.086   .     S
C485   O512    1.219   .     D
C485   C355    1.483   1_655 S
C486   C488    1.388   .     A
C486   H502    1.083   .     S
C487   H503    1.082   .     S
C487   C489    1.394   .     A
C488   H493    1.084   .     S
C488   C1000   1.396   1_554 S
C489   H499    1.083   .     S
C489   C1001   1.398   .     S
C490   C85     1.339   1_565 S
C490   H156    1.088   1_565 S
C491   C200    1.339   1_655 S
C492   O518    1.303   .     A
H494   N508    1.029   .     S
H501   C934    1.083   .     S
H505   C143    1.088   1_565 S
H506   N507    1.027   .     S
N507   N508    1.289   .     D
N507   Zn522   2.020   .     S
N508   Zn521   2.020   .     S
O509   Zn521   1.950   .     S
O509   C349    1.276   1_655 S
O513   Zn522   1.950   .     S
O514   Zn522   1.977   .     S
O515   Zn521   1.977   .     S
O516   Zn521   1.953   .     S
O516   C376    1.288   1_655 S
O517   Zn522   1.953   .     S
O518   Zn522   1.906   .     S
O519   Zn521   1.906   .     S
C523   O572    1.290   .     A
C523   C548    1.402   .     S
C523   O683    1.276   1_455 S
C524   C526    1.486   .     S
C524   O577    1.304   .     A
C524   O633    1.302   .     S
C525   C531    1.401   .     A
C525   C529    1.425   .     A
C525   C550    1.460   .     S
C526   C532    1.408   .     A
C526   C588    1.426   .     S
C527   C536    1.394   .     A
C527   H558    1.086   .     S
C527   C529    1.396   .     A
C528   C537    1.396   .     A
C528   C588    1.408   .     S
C529   C659    1.483   1_455 S
C530   C542    1.484   .     S
C530   C642    1.426   1_455 S
C530   C644    1.408   1_455 S
C531   C533    1.406   .     A
C531   C541    1.497   .     S
C532   C540    1.488   .     S
C532   C535    1.395   .     A
C533   C536    1.416   .     A
C533   C538    1.410   .     A
C534   O573    1.289   .     A
C534   C549    1.402   .     S
C534   O629    1.276   .     S
C535   C539    1.403   .     A
C535   C537    1.407   .     A
C536   C24     1.396   1_556 S
C538   C545    1.413   .     A
C538   C17     1.403   1_556 S
C539   C544    1.409   .     A
C540   O578    1.221   .     D
C540   H553    1.082   .     S
C541   O568    1.221   .     D
C541   H554    1.084   .     S
C542   H555    1.081   .     S
C542   O569    1.222   .     D
C543   H556    1.086   .     S
C543   O570    1.219   .     D
C543   C587    1.483   .     S
C544   C546    1.388   .     A
C544   H560    1.083   .     S
C545   H561    1.082   .     S
C545   C547    1.394   .     A
C546   H551    1.084   .     S
C547   H557    1.083   .     S
C547   C15     1.398   1_556 S
C548   C839    1.339   1_455 S
C548   H736    1.088   .     S
C549   C954    1.339   1_545 S
C549   H911    1.088   1_545 S
C550   O576    1.303   .     A
C550   O690    1.288   1_455 S
H552   N566    1.029   .     S
H559   C122    1.083   1_456 S
H562   C896    1.088   1_545 S
H563   C723    1.088   .     S
H564   N565    1.027   .     S
N565   N566    1.289   .     D
N565   Zn580   2.020   .     S
N566   Zn579   2.020   .     S
O567   Zn579   1.950   .     S
O567   C581    1.276   .     S
O571   Zn580   1.950   .     S
O571   C650    1.276   1_455 S
O572   Zn580   1.977   .     S
O573   Zn579   1.977   .     S
O574   Zn579   1.953   .     S
O574   C608    1.288   .     S
O575   Zn580   1.953   .     S
O575   C640    1.302   1_455 S
O576   Zn580   1.906   .     S
O577   Zn579   1.906   .     S
C581   O630    1.290   .     A
C581   C606    1.402   .     S
C582   C584    1.486   .     S
C582   O635    1.304   .     A
C582   O691    1.302   .     S
C583   C589    1.401   .     A
C583   C587    1.425   .     A
C583   C608    1.460   .     S
C584   C590    1.408   .     A
C584   C646    1.426   .     S
C585   C594    1.394   .     A
C585   H616    1.086   .     S
C585   C587    1.396   .     A
C586   C595    1.396   .     A
C586   C646    1.408   .     S
C588   C600    1.484   .     S
C589   C591    1.406   .     A
C589   C599    1.497   .     S
C590   C598    1.488   .     S
C590   C593    1.395   .     A
C591   C594    1.416   .     A
C591   C596    1.410   .     A
C592   O631    1.289   .     A
C592   C607    1.402   .     S
C592   O687    1.276   .     S
C593   C597    1.403   .     A
C593   C595    1.407   .     A
C594   C82     1.396   1_556 S
C596   C603    1.413   .     A
C596   C75     1.403   1_556 S
C597   C602    1.409   .     A
C598   O636    1.221   .     D
C598   H611    1.082   .     S
C599   O626    1.221   .     D
C599   H612    1.084   .     S
C600   H613    1.081   .     S
C600   O627    1.222   .     D
C601   H614    1.086   .     S
C601   O628    1.219   .     D
C601   C645    1.483   .     S
C602   C604    1.388   .     A
C602   H618    1.083   .     S
C603   H619    1.082   .     S
C603   C605    1.394   .     A
C604   H609    1.084   .     S
C605   H615    1.083   .     S
C605   C73     1.398   1_556 S
C606   C723    1.339   .     S
C606   H794    1.088   .     S
C607   C1012   1.339   1_545 S
C607   H969    1.088   1_545 S
C608   O634    1.303   .     A
H610   N624    1.029   .     S
H617   C6      1.083   1_556 S
H620   C954    1.088   1_545 S
H621   C781    1.088   .     S
H622   N623    1.027   .     S
N623   N624    1.289   .     D
N623   Zn638   2.020   .     S
N624   Zn637   2.020   .     S
O625   Zn637   1.950   .     S
O625   C639    1.276   .     S
O629   Zn638   1.950   .     S
O630   Zn638   1.977   .     S
O631   Zn637   1.977   .     S
O632   Zn637   1.953   .     S
O632   C666    1.288   .     S
O633   Zn638   1.953   .     S
O634   Zn638   1.906   .     S
O635   Zn637   1.906   .     S
C639   O688    1.290   .     A
C639   C664    1.402   .     S
C640   C642    1.486   .     S
C640   O693    1.304   .     A
C640   O575    1.302   1_655 S
C641   C647    1.401   .     A
C641   C645    1.425   .     A
C641   C666    1.460   .     S
C642   C648    1.408   .     A
C642   C530    1.426   1_655 S
C643   C652    1.394   .     A
C643   H674    1.086   .     S
C643   C645    1.396   .     A
C644   C653    1.396   .     A
C644   C530    1.408   1_655 S
C644   H37     1.083   1_655 S
C646   C658    1.484   .     S
C647   C649    1.406   .     A
C647   C657    1.497   .     S
C648   C656    1.488   .     S
C648   C651    1.395   .     A
C649   C652    1.416   .     A
C649   C654    1.410   .     A
C650   O689    1.289   .     A
C650   C665    1.402   .     S
C650   O571    1.276   1_655 S
C651   C655    1.403   .     A
C651   C653    1.407   .     A
C652   C140    1.396   1_556 S
C654   C661    1.413   .     A
C654   C133    1.403   1_556 S
C655   C660    1.409   .     A
C656   O694    1.221   .     D
C656   H669    1.082   .     S
C657   O684    1.221   .     D
C657   H670    1.084   .     S
C658   H671    1.081   .     S
C658   O685    1.222   .     D
C659   H672    1.086   .     S
C659   O686    1.219   .     D
C659   C529    1.483   1_655 S
C660   C662    1.388   .     A
C660   H676    1.083   .     S
C661   H677    1.082   .     S
C661   C663    1.394   .     A
C662   H667    1.084   .     S
C663   H673    1.083   .     S
C663   C131    1.398   1_556 S
C664   C781    1.339   .     S
C664   H852    1.088   .     S
C665   C896    1.339   1_645 S
C665   H1027   1.088   1_545 S
C666   O692    1.303   .     A
H668   N682    1.029   .     S
H675   C64     1.083   1_556 S
H678   C1012   1.088   1_545 S
H679   C839    1.088   .     S
H680   N681    1.027   .     S
N681   N682    1.289   .     D
N681   Zn696   2.020   .     S
N682   Zn695   2.020   .     S
O683   Zn695   1.950   .     S
O683   C523    1.276   1_655 S
O687   Zn696   1.950   .     S
O688   Zn696   1.977   .     S
O689   Zn695   1.977   .     S
O690   Zn695   1.953   .     S
O690   C550    1.288   1_655 S
O691   Zn696   1.953   .     S
O692   Zn696   1.906   .     S
O693   Zn695   1.906   .     S
C697   O746    1.290   .     A
C697   C722    1.402   .     S
C697   O857    1.276   1_455 S
C698   C700    1.486   .     S
C698   O751    1.304   .     A
C698   O807    1.302   .     S
C699   C705    1.401   .     A
C699   C703    1.425   .     A
C699   C724    1.460   .     S
C700   C706    1.408   .     A
C700   C762    1.426   .     S
C701   C710    1.394   .     A
C701   H732    1.086   .     S
C701   C703    1.396   .     A
C702   C711    1.396   .     A
C702   C762    1.408   .     S
C703   C833    1.483   1_455 S
C704   C716    1.484   .     S
C704   C816    1.426   1_455 S
C704   C818    1.408   1_455 S
C705   C707    1.406   .     A
C705   C715    1.497   .     S
C706   C714    1.488   .     S
C706   C709    1.395   .     A
C707   C710    1.416   .     A
C707   C712    1.410   .     A
C708   O747    1.289   .     A
C708   C723    1.402   .     S
C708   O803    1.276   .     S
C709   C713    1.403   .     A
C709   C711    1.407   .     A
C710   C198    1.396   1_556 S
C712   C719    1.413   .     A
C712   C191    1.403   1_556 S
C713   C718    1.409   .     A
C714   O752    1.221   .     D
C714   H727    1.082   .     S
C715   O742    1.221   .     D
C715   H728    1.084   .     S
C716   H729    1.081   .     S
C716   O743    1.222   .     D
C717   H730    1.086   .     S
C717   O744    1.219   .     D
C717   C761    1.483   .     S
C718   C720    1.388   .     A
C718   H734    1.083   .     S
C719   H735    1.082   .     S
C719   C721    1.394   .     A
C720   H725    1.084   .     S
C721   H731    1.083   .     S
C721   C189    1.398   1_556 S
C722   C1013   1.339   1_455 S
C722   H910    1.088   .     S
C724   O750    1.303   .     A
C724   O864    1.288   1_455 S
H726   N740    1.029   .     S
H733   C296    1.083   1_456 S
H737   C897    1.088   .     S
H738   N739    1.027   .     S
N739   N740    1.289   .     D
N739   Zn754   2.020   .     S
N740   Zn753   2.020   .     S
O741   Zn753   1.950   .     S
O741   C755    1.276   .     S
O745   Zn754   1.950   .     S
O745   C824    1.276   1_455 S
O746   Zn754   1.977   .     S
O747   Zn753   1.977   .     S
O748   Zn753   1.953   .     S
O748   C782    1.288   .     S
O749   Zn754   1.953   .     S
O749   C814    1.302   1_455 S
O750   Zn754   1.906   .     S
O751   Zn753   1.906   .     S
C755   O804    1.290   .     A
C755   C780    1.402   .     S
C756   C758    1.486   .     S
C756   O809    1.304   .     A
C756   O865    1.302   .     S
C757   C763    1.401   .     A
C757   C761    1.425   .     A
C757   C782    1.460   .     S
C758   C764    1.408   .     A
C758   C820    1.426   .     S
C759   C768    1.394   .     A
C759   H790    1.086   .     S
C759   C761    1.396   .     A
C760   C769    1.396   .     A
C760   C820    1.408   .     S
C762   C774    1.484   .     S
C763   C765    1.406   .     A
C763   C773    1.497   .     S
C764   C772    1.488   .     S
C764   C767    1.395   .     A
C765   C768    1.416   .     A
C765   C770    1.410   .     A
C766   O805    1.289   .     A
C766   C781    1.402   .     S
C766   O861    1.276   .     S
C767   C771    1.403   .     A
C767   C769    1.407   .     A
C768   C256    1.396   1_556 S
C770   C777    1.413   .     A
C770   C249    1.403   1_556 S
C771   C776    1.409   .     A
C772   O810    1.221   .     D
C772   H785    1.082   .     S
C773   O800    1.221   .     D
C773   H786    1.084   .     S
C774   H787    1.081   .     S
C774   O801    1.222   .     D
C775   H788    1.086   .     S
C775   O802    1.219   .     D
C775   C819    1.483   .     S
C776   C778    1.388   .     A
C776   H792    1.083   .     S
C777   H793    1.082   .     S
C777   C779    1.394   .     A
C778   H783    1.084   .     S
C779   H789    1.083   .     S
C779   C247    1.398   1_556 S
C780   C897    1.339   .     S
C780   H968    1.088   .     S
C782   O808    1.303   .     A
H784   N798    1.029   .     S
H791   C180    1.083   1_556 S
H795   C955    1.088   .     S
H796   N797    1.027   .     S
N797   N798    1.289   .     D
N797   Zn812   2.020   .     S
N798   Zn811   2.020   .     S
O799   Zn811   1.950   .     S
O799   C813    1.276   .     S
O803   Zn812   1.950   .     S
O804   Zn812   1.977   .     S
O805   Zn811   1.977   .     S
O806   Zn811   1.953   .     S
O806   C840    1.288   .     S
O807   Zn812   1.953   .     S
O808   Zn812   1.906   .     S
O809   Zn811   1.906   .     S
C813   O862    1.290   .     A
C813   C838    1.402   .     S
C814   C816    1.486   .     S
C814   O867    1.304   .     A
C814   O749    1.302   1_655 S
C815   C821    1.401   .     A
C815   C819    1.425   .     A
C815   C840    1.460   .     S
C816   C822    1.408   .     A
C816   C704    1.426   1_655 S
C817   C826    1.394   .     A
C817   H848    1.086   .     S
C817   C819    1.396   .     A
C818   C827    1.396   .     A
C818   C704    1.408   1_655 S
C818   H211    1.083   1_655 S
C820   C832    1.484   .     S
C821   C823    1.406   .     A
C821   C831    1.497   .     S
C822   C830    1.488   .     S
C822   C825    1.395   .     A
C823   C826    1.416   .     A
C823   C828    1.410   .     A
C824   O863    1.289   .     A
C824   C839    1.402   .     S
C824   O745    1.276   1_655 S
C825   C829    1.403   .     A
C825   C827    1.407   .     A
C826   C314    1.396   1_556 S
C828   C835    1.413   .     A
C828   C307    1.403   1_556 S
C829   C834    1.409   .     A
C830   O868    1.221   .     D
C830   H843    1.082   .     S
C831   O858    1.221   .     D
C831   H844    1.084   .     S
C832   H845    1.081   .     S
C832   O859    1.222   .     D
C833   H846    1.086   .     S
C833   O860    1.219   .     D
C833   C703    1.483   1_655 S
C834   C836    1.388   .     A
C834   H850    1.083   .     S
C835   H851    1.082   .     S
C835   C837    1.394   .     A
C836   H841    1.084   .     S
C837   H847    1.083   .     S
C837   C305    1.398   1_556 S
C838   C955    1.339   .     S
C838   H1026   1.088   .     S
C839   C548    1.339   1_655 S
C840   O866    1.303   .     A
H842   N856    1.029   .     S
H849   C238    1.083   1_556 S
H853   C1013   1.088   .     S
H854   N855    1.027   .     S
N855   N856    1.289   .     D
N855   Zn870   2.020   .     S
N856   Zn869   2.020   .     S
O857   Zn869   1.950   .     S
O857   C697    1.276   1_655 S
O861   Zn870   1.950   .     S
O862   Zn870   1.977   .     S
O863   Zn869   1.977   .     S
O864   Zn869   1.953   .     S
O864   C724    1.288   1_655 S
O865   Zn870   1.953   .     S
O866   Zn870   1.906   .     S
O867   Zn869   1.906   .     S
C871   O920    1.290   .     A
C871   C896    1.402   .     S
C871   O1031   1.276   1_455 S
C872   C874    1.486   .     S
C872   O925    1.304   .     A
C872   O981    1.302   .     S
C873   C879    1.401   .     A
C873   C877    1.425   .     A
C873   C898    1.460   .     S
C874   C880    1.408   .     A
C874   C936    1.426   .     S
C875   C884    1.394   .     A
C875   H906    1.086   .     S
C875   C877    1.396   .     A
C876   C885    1.396   .     A
C876   C936    1.408   .     S
C877   C1007   1.483   1_455 S
C878   C890    1.484   .     S
C878   C990    1.426   1_455 S
C878   C992    1.408   1_455 S
C879   C881    1.406   .     A
C879   C889    1.497   .     S
C880   C888    1.488   .     S
C880   C883    1.395   .     A
C881   C884    1.416   .     A
C881   C886    1.410   .     A
C882   O921    1.289   .     A
C882   C897    1.402   .     S
C882   O977    1.276   .     S
C883   C887    1.403   .     A
C883   C885    1.407   .     A
C884   C372    1.396   1_556 S
C886   C893    1.413   .     A
C886   C365    1.403   1_556 S
C887   C892    1.409   .     A
C888   O926    1.221   .     D
C888   H901    1.082   .     S
C889   O916    1.221   .     D
C889   H902    1.084   .     S
C890   H903    1.081   .     S
C890   O917    1.222   .     D
C891   H904    1.086   .     S
C891   O918    1.219   .     D
C891   C935    1.483   .     S
C892   C894    1.388   .     A
C892   H908    1.083   .     S
C893   H909    1.082   .     S
C893   C895    1.394   .     A
C894   H899    1.084   .     S
C895   H905    1.083   .     S
C895   C363    1.398   1_556 S
C896   C665    1.339   1_465 S
C896   H562    1.088   1_565 S
C898   O924    1.303   .     A
C898   O1038   1.288   1_455 S
H900   N914    1.029   .     S
H907   C470    1.083   1_456 S
H911   C549    1.088   1_565 S
H912   N913    1.027   .     S
N913   N914    1.289   .     D
N913   Zn928   2.020   .     S
N914   Zn927   2.020   .     S
O915   Zn927   1.950   .     S
O915   C929    1.276   .     S
O919   Zn928   1.950   .     S
O919   C998    1.276   1_455 S
O920   Zn928   1.977   .     S
O921   Zn927   1.977   .     S
O922   Zn927   1.953   .     S
O922   C956    1.288   .     S
O923   Zn928   1.953   .     S
O923   C988    1.302   1_455 S
O924   Zn928   1.906   .     S
O925   Zn927   1.906   .     S
C929   O978    1.290   .     A
C929   C954    1.402   .     S
C930   C932    1.486   .     S
C930   O983    1.304   .     A
C930   O1039   1.302   .     S
C931   C937    1.401   .     A
C931   C935    1.425   .     A
C931   C956    1.460   .     S
C932   C938    1.408   .     A
C932   C994    1.426   .     S
C933   C942    1.394   .     A
C933   H964    1.086   .     S
C933   C935    1.396   .     A
C934   C943    1.396   .     A
C934   C994    1.408   .     S
C936   C948    1.484   .     S
C937   C939    1.406   .     A
C937   C947    1.497   .     S
C938   C946    1.488   .     S
C938   C941    1.395   .     A
C939   C942    1.416   .     A
C939   C944    1.410   .     A
C940   O979    1.289   .     A
C940   C955    1.402   .     S
C940   O1035   1.276   .     S
C941   C945    1.403   .     A
C941   C943    1.407   .     A
C942   C430    1.396   1_556 S
C944   C951    1.413   .     A
C944   C423    1.403   1_556 S
C945   C950    1.409   .     A
C946   O984    1.221   .     D
C946   H959    1.082   .     S
C947   O974    1.221   .     D
C947   H960    1.084   .     S
C948   H961    1.081   .     S
C948   O975    1.222   .     D
C949   H962    1.086   .     S
C949   O976    1.219   .     D
C949   C993    1.483   .     S
C950   C952    1.388   .     A
C950   H966    1.083   .     S
C951   H967    1.082   .     S
C951   C953    1.394   .     A
C952   H957    1.084   .     S
C953   H963    1.083   .     S
C953   C421    1.398   1_556 S
C954   C549    1.339   1_565 S
C954   H620    1.088   1_565 S
C956   O982    1.303   .     A
H958   N972    1.029   .     S
H965   C354    1.083   1_556 S
H969   C607    1.088   1_565 S
H970   N971    1.027   .     S
N971   N972    1.289   .     D
N971   Zn986   2.020   .     S
N972   Zn985   2.020   .     S
O973   Zn985   1.950   .     S
O973   C987    1.276   .     S
O977   Zn986   1.950   .     S
O978   Zn986   1.977   .     S
O979   Zn985   1.977   .     S
O980   Zn985   1.953   .     S
O980   C1014   1.288   .     S
O981   Zn986   1.953   .     S
O982   Zn986   1.906   .     S
O983   Zn985   1.906   .     S
C987   O1036   1.290   .     A
C987   C1012   1.402   .     S
C988   C990    1.486   .     S
C988   O1041   1.304   .     A
C988   O923    1.302   1_655 S
C989   C995    1.401   .     A
C989   C993    1.425   .     A
C989   C1014   1.460   .     S
C990   C996    1.408   .     A
C990   C878    1.426   1_655 S
C991   C1000   1.394   .     A
C991   H1022   1.086   .     S
C991   C993    1.396   .     A
C992   C1001   1.396   .     A
C992   C878    1.408   1_655 S
C992   H385    1.083   1_655 S
C994   C1006   1.484   .     S
C995   C997    1.406   .     A
C995   C1005   1.497   .     S
C996   C1004   1.488   .     S
C996   C999    1.395   .     A
C997   C1000   1.416   .     A
C997   C1002   1.410   .     A
C998   O1037   1.289   .     A
C998   C1013   1.402   .     S
C998   O919    1.276   1_655 S
C999   C1003   1.403   .     A
C999   C1001   1.407   .     A
C1000  C488    1.396   1_556 S
C1002  C1009   1.413   .     A
C1002  C481    1.403   1_556 S
C1003  C1008   1.409   .     A
C1004  O1042   1.221   .     D
C1004  H1017   1.082   .     S
C1005  O1032   1.221   .     D
C1005  H1018   1.084   .     S
C1006  H1019   1.081   .     S
C1006  O1033   1.222   .     D
C1007  H1020   1.086   .     S
C1007  O1034   1.219   .     D
C1007  C877    1.483   1_655 S
C1008  C1010   1.388   .     A
C1008  H1024   1.083   .     S
C1009  H1025   1.082   .     S
C1009  C1011   1.394   .     A
C1010  H1015   1.084   .     S
C1011  H1021   1.083   .     S
C1011  C479    1.398   1_556 S
C1012  C607    1.339   1_565 S
C1012  H678    1.088   1_565 S
C1013  C722    1.339   1_655 S
C1014  O1040   1.303   .     A
H1016  N1030   1.029   .     S
H1023  C412    1.083   1_556 S
H1027  C665    1.088   1_565 S
H1028  N1029   1.027   .     S
N1029  N1030   1.289   .     D
N1029  Zn1044  2.020   .     S
N1030  Zn1043  2.020   .     S
O1031  Zn1043  1.950   .     S
O1031  C871    1.276   1_655 S
O1035  Zn1044  1.950   .     S
O1036  Zn1044  1.977   .     S
O1037  Zn1043  1.977   .     S
O1038  Zn1043  1.953   .     S
O1038  C898    1.288   1_655 S
O1039  Zn1044  1.953   .     S
O1040  Zn1044  1.906   .     S
O1041  Zn1043  1.906   .     S
