data_str_m2_o10_o18_pcu_sym.150
_audit_creation_date              2020-01-03
_audit_creation_method            'Materials Studio'
_symmetry_space_group_name_H-M    'P1'
_symmetry_Int_Tables_number       1
_symmetry_cell_setting            triclinic
loop_
_symmetry_equiv_pos_as_xyz
  x,y,z
_cell_length_a                    22.4383
_cell_length_b                    26.1342
_cell_length_c                    31.5824
_cell_angle_alpha                 95.5372
_cell_angle_beta                  75.1615
_cell_angle_gamma                 103.2833
loop_
_atom_site_label
_atom_site_type_symbol
_atom_site_fract_x
_atom_site_fract_y
_atom_site_fract_z
_atom_site_U_iso_or_equiv
_atom_site_adp_type
_atom_site_occupancy
C1     C     0.18121   0.26652   0.25173   0.00000  Uiso   1.00
C2     C     0.15222   0.06681   0.24811   0.00000  Uiso   1.00
C3     C     0.09877   0.12293   0.03660   0.00000  Uiso   1.00
C4     C     0.24147   0.19587   0.45989   0.00000  Uiso   1.00
C5     C     0.05557   0.11005   0.01081   0.00000  Uiso   1.00
C6     C     0.28466   0.20810   0.48575   0.00000  Uiso   1.00
C7     C     0.18490   0.32177   0.25835   0.00000  Uiso   1.00
C8     C     0.14880   0.01161   0.24123   0.00000  Uiso   1.00
C9     C     0.12819   0.16258   0.33304   0.00000  Uiso   1.00
C10    C     0.20516   0.17044   0.16692   0.00000  Uiso   1.00
C11    C     0.10512   0.15499   0.38034   0.00000  Uiso   1.00
C12    C     0.22870   0.17544   0.11931   0.00000  Uiso   1.00
C13    C     0.02669   0.11287   0.44215   0.00000  Uiso   1.00
C14    C     0.31175   0.20895   0.05574   0.00000  Uiso   1.00
C15    C     0.04370   0.12819   0.39855   0.00000  Uiso   1.00
C16    C     0.29200   0.19688   0.10048   0.00000  Uiso   1.00
C17    C     0.14828   0.17016   0.40649   0.00000  Uiso   1.00
C18    C     0.18566   0.16147   0.09308   0.00000  Uiso   1.00
C19    C     0.13337   0.15571   0.45022   0.00000  Uiso   1.00
C20    C     0.20387   0.16922   0.04790   0.00000  Uiso   1.00
C21    C     0.07151   0.12648   0.46791   0.00000  Uiso   1.00
C22    C     0.26710   0.19515   0.02970   0.00000  Uiso   1.00
C23    C     0.17844   0.16882   0.47652   0.00000  Uiso   1.00
C24    C     0.16005   0.15375   0.02086   0.00000  Uiso   1.00
Cu25   Cu    0.10737   0.16108   0.24517   0.00000  Uiso   1.00
Cu26   Cu    0.22596   0.17225   0.25484   0.00000  Uiso   1.00
H27    H     0.00927   0.08659   0.02480   0.00000  Uiso   1.00
H28    H     0.33232   0.22835   0.47089   0.00000  Uiso   1.00
H29    H     0.13724   0.14627   0.10922   0.00000  Uiso   1.00
H30    H     0.19384   0.19279   0.39122   0.00000  Uiso   1.00
H31    H     0.32504   0.20562   0.12114   0.00000  Uiso   1.00
H32    H     0.00953   0.11770   0.37869   0.00000  Uiso   1.00
H33    H     0.08265   0.10671   0.06862   0.00000  Uiso   1.00
H34    H     0.26016   0.20770   0.42658   0.00000  Uiso   1.00
N35    N     0.31506   0.18068   0.26212   0.00000  Uiso   1.00
N36    N     0.01827   0.15265   0.23788   0.00000  Uiso   1.00
O37    O     0.12815   0.23809   0.24686   0.00000  Uiso   1.00
O38    O     0.20518   0.09524   0.25314   0.00000  Uiso   1.00
O39    O     0.22829   0.24753   0.25503   0.00000  Uiso   1.00
O40    O     0.10504   0.08580   0.24498   0.00000  Uiso   1.00
O41    O     0.08851   0.15930   0.30855   0.00000  Uiso   1.00
O42    O     0.24482   0.17403   0.19146   0.00000  Uiso   1.00
O43    O     0.18866   0.16874   0.31671   0.00000  Uiso   1.00
O44    O     0.14468   0.16460   0.18329   0.00000  Uiso   1.00
O45    O     0.29829   0.08854   0.46112   0.00000  Uiso   1.00
C46    C     0.28058   0.03876   0.44048   0.00000  Uiso   1.00
H47    H     0.27100   0.00835   0.46507   0.00000  Uiso   1.00
H48    H     0.31741   0.02819   0.41191   0.00000  Uiso   1.00
C49    C     0.22014   0.03675   0.42584   0.00000  Uiso   1.00
H50    H     0.18374   0.04810   0.45402   0.00000  Uiso   1.00
H51    H     0.22998   0.06540   0.39981   0.00000  Uiso   1.00
C52    C     0.19444   0.31514   0.40830   0.00000  Uiso   1.00
H53    H     0.18190   0.28625   0.43438   0.00000  Uiso   1.00
H54    H     0.23010   0.30280   0.38015   0.00000  Uiso   1.00
H55    H     0.15137   0.31527   0.39718   0.00000  Uiso   1.00
O56    O     0.04093   0.23117   0.03542   0.00000  Uiso   1.00
C57    C     0.07224   0.26700   0.06330   0.00000  Uiso   1.00
H58    H     0.08973   0.24499   0.08435   0.00000  Uiso   1.00
H59    H     0.04071   0.29193   0.08402   0.00000  Uiso   1.00
C60    C     0.12902   0.30323   0.03524   0.00000  Uiso   1.00
H61    H     0.16127   0.27920   0.01444   0.00000  Uiso   1.00
H62    H     0.11242   0.32499   0.01354   0.00000  Uiso   1.00
C63    C     0.16530   0.00934   0.06351   0.00000  Uiso   1.00
H64    H     0.13393   0.03353   0.08503   0.00000  Uiso   1.00
H65    H     0.20505   0.03598   0.04213   0.00000  Uiso   1.00
H66    H     0.18467   0.32173   0.08410   0.00000  Uiso   1.00
Cl67   Cl    0.23058   0.02006   0.29567   0.00000  Uiso   1.00
Cl68   Cl    0.10396   0.31347   0.20334   0.00000  Uiso   1.00
Cl69   Cl    0.00532   0.22210   0.30354   0.00000  Uiso   1.00
Cl70   Cl    0.32799   0.11124   0.19648   0.00000  Uiso   1.00
C71    C     0.51454   0.26652   0.25173   0.00000  Uiso   1.00
C72    C     0.48556   0.06681   0.24811   0.00000  Uiso   1.00
C73    C     0.43210   0.12293   0.03660   0.00000  Uiso   1.00
C74    C     0.57480   0.19587   0.45989   0.00000  Uiso   1.00
C75    C     0.38890   0.11005   0.01081   0.00000  Uiso   1.00
C76    C     0.61799   0.20810   0.48575   0.00000  Uiso   1.00
C77    C     0.51823   0.32177   0.25835   0.00000  Uiso   1.00
C78    C     0.48213   0.01161   0.24123   0.00000  Uiso   1.00
C79    C     0.46152   0.16258   0.33304   0.00000  Uiso   1.00
C80    C     0.53850   0.17044   0.16692   0.00000  Uiso   1.00
C81    C     0.43846   0.15499   0.38034   0.00000  Uiso   1.00
C82    C     0.56203   0.17544   0.11931   0.00000  Uiso   1.00
C83    C     0.36002   0.11287   0.44215   0.00000  Uiso   1.00
C84    C     0.64508   0.20895   0.05574   0.00000  Uiso   1.00
C85    C     0.37703   0.12819   0.39855   0.00000  Uiso   1.00
C86    C     0.62533   0.19688   0.10048   0.00000  Uiso   1.00
C87    C     0.48161   0.17016   0.40649   0.00000  Uiso   1.00
C88    C     0.51900   0.16147   0.09308   0.00000  Uiso   1.00
C89    C     0.46671   0.15571   0.45022   0.00000  Uiso   1.00
C90    C     0.53720   0.16922   0.04790   0.00000  Uiso   1.00
C91    C     0.40485   0.12648   0.46791   0.00000  Uiso   1.00
C92    C     0.60043   0.19515   0.02970   0.00000  Uiso   1.00
C93    C     0.51177   0.16882   0.47652   0.00000  Uiso   1.00
C94    C     0.49339   0.15375   0.02086   0.00000  Uiso   1.00
Cu95   Cu    0.44071   0.16108   0.24517   0.00000  Uiso   1.00
Cu96   Cu    0.55929   0.17225   0.25484   0.00000  Uiso   1.00
H97    H     0.34261   0.08659   0.02480   0.00000  Uiso   1.00
H98    H     0.66565   0.22835   0.47089   0.00000  Uiso   1.00
H99    H     0.47058   0.14627   0.10922   0.00000  Uiso   1.00
H100   H     0.52717   0.19279   0.39122   0.00000  Uiso   1.00
H101   H     0.65838   0.20562   0.12114   0.00000  Uiso   1.00
H102   H     0.34287   0.11770   0.37869   0.00000  Uiso   1.00
H103   H     0.41599   0.10671   0.06862   0.00000  Uiso   1.00
H104   H     0.59349   0.20770   0.42658   0.00000  Uiso   1.00
N105   N     0.64839   0.18068   0.26212   0.00000  Uiso   1.00
N106   N     0.35161   0.15265   0.23788   0.00000  Uiso   1.00
O107   O     0.46148   0.23809   0.24686   0.00000  Uiso   1.00
O108   O     0.53852   0.09524   0.25314   0.00000  Uiso   1.00
O109   O     0.56163   0.24753   0.25503   0.00000  Uiso   1.00
O110   O     0.43837   0.08580   0.24498   0.00000  Uiso   1.00
O111   O     0.42185   0.15930   0.30855   0.00000  Uiso   1.00
O112   O     0.57815   0.17403   0.19146   0.00000  Uiso   1.00
O113   O     0.52199   0.16874   0.31671   0.00000  Uiso   1.00
O114   O     0.47801   0.16460   0.18329   0.00000  Uiso   1.00
O115   O     0.63162   0.08854   0.46112   0.00000  Uiso   1.00
C116   C     0.61392   0.03876   0.44048   0.00000  Uiso   1.00
H117   H     0.60433   0.00835   0.46507   0.00000  Uiso   1.00
H118   H     0.65074   0.02819   0.41191   0.00000  Uiso   1.00
C119   C     0.55347   0.03675   0.42584   0.00000  Uiso   1.00
H120   H     0.51707   0.04810   0.45402   0.00000  Uiso   1.00
H121   H     0.56331   0.06540   0.39981   0.00000  Uiso   1.00
C122   C     0.52777   0.31514   0.40830   0.00000  Uiso   1.00
H123   H     0.51523   0.28625   0.43438   0.00000  Uiso   1.00
H124   H     0.56343   0.30280   0.38015   0.00000  Uiso   1.00
H125   H     0.48470   0.31527   0.39718   0.00000  Uiso   1.00
O126   O     0.37426   0.23117   0.03542   0.00000  Uiso   1.00
C127   C     0.40557   0.26700   0.06330   0.00000  Uiso   1.00
H128   H     0.42306   0.24499   0.08435   0.00000  Uiso   1.00
H129   H     0.37405   0.29193   0.08402   0.00000  Uiso   1.00
C130   C     0.46235   0.30323   0.03524   0.00000  Uiso   1.00
H131   H     0.49460   0.27920   0.01444   0.00000  Uiso   1.00
H132   H     0.44575   0.32499   0.01354   0.00000  Uiso   1.00
C133   C     0.49863   0.00934   0.06351   0.00000  Uiso   1.00
H134   H     0.46726   0.03353   0.08503   0.00000  Uiso   1.00
H135   H     0.53838   0.03598   0.04213   0.00000  Uiso   1.00
H136   H     0.51800   0.32173   0.08410   0.00000  Uiso   1.00
Cl137  Cl    0.56391   0.02006   0.29567   0.00000  Uiso   1.00
Cl138  Cl    0.43729   0.31347   0.20334   0.00000  Uiso   1.00
Cl139  Cl    0.33866   0.22210   0.30354   0.00000  Uiso   1.00
Cl140  Cl    0.66132   0.11124   0.19648   0.00000  Uiso   1.00
C141   C     0.84787   0.26652   0.25173   0.00000  Uiso   1.00
C142   C     0.81889   0.06681   0.24811   0.00000  Uiso   1.00
C143   C     0.76544   0.12293   0.03660   0.00000  Uiso   1.00
C144   C     0.90813   0.19587   0.45989   0.00000  Uiso   1.00
C145   C     0.72223   0.11005   0.01081   0.00000  Uiso   1.00
C146   C     0.95133   0.20810   0.48575   0.00000  Uiso   1.00
C147   C     0.85157   0.32177   0.25835   0.00000  Uiso   1.00
C148   C     0.81546   0.01161   0.24123   0.00000  Uiso   1.00
C149   C     0.79485   0.16258   0.33304   0.00000  Uiso   1.00
C150   C     0.87183   0.17044   0.16692   0.00000  Uiso   1.00
C151   C     0.77179   0.15499   0.38034   0.00000  Uiso   1.00
C152   C     0.89537   0.17544   0.11931   0.00000  Uiso   1.00
C153   C     0.69335   0.11287   0.44215   0.00000  Uiso   1.00
C154   C     0.97841   0.20895   0.05574   0.00000  Uiso   1.00
C155   C     0.71036   0.12819   0.39855   0.00000  Uiso   1.00
C156   C     0.95867   0.19688   0.10048   0.00000  Uiso   1.00
C157   C     0.81494   0.17016   0.40649   0.00000  Uiso   1.00
C158   C     0.85233   0.16147   0.09308   0.00000  Uiso   1.00
C159   C     0.80004   0.15571   0.45022   0.00000  Uiso   1.00
C160   C     0.87053   0.16922   0.04790   0.00000  Uiso   1.00
C161   C     0.73818   0.12648   0.46791   0.00000  Uiso   1.00
C162   C     0.93376   0.19515   0.02970   0.00000  Uiso   1.00
C163   C     0.84510   0.16882   0.47652   0.00000  Uiso   1.00
C164   C     0.82672   0.15375   0.02086   0.00000  Uiso   1.00
Cu165  Cu    0.77404   0.16108   0.24517   0.00000  Uiso   1.00
Cu166  Cu    0.89263   0.17225   0.25484   0.00000  Uiso   1.00
H167   H     0.67594   0.08659   0.02480   0.00000  Uiso   1.00
H168   H     0.99898   0.22835   0.47089   0.00000  Uiso   1.00
H169   H     0.80391   0.14627   0.10922   0.00000  Uiso   1.00
H170   H     0.86051   0.19279   0.39122   0.00000  Uiso   1.00
H171   H     0.99171   0.20562   0.12114   0.00000  Uiso   1.00
H172   H     0.67620   0.11770   0.37869   0.00000  Uiso   1.00
H173   H     0.74932   0.10671   0.06862   0.00000  Uiso   1.00
H174   H     0.92683   0.20770   0.42658   0.00000  Uiso   1.00
N175   N     0.98173   0.18068   0.26212   0.00000  Uiso   1.00
N176   N     0.68494   0.15265   0.23788   0.00000  Uiso   1.00
O177   O     0.79482   0.23809   0.24686   0.00000  Uiso   1.00
O178   O     0.87185   0.09524   0.25314   0.00000  Uiso   1.00
O179   O     0.89496   0.24753   0.25503   0.00000  Uiso   1.00
O180   O     0.77171   0.08580   0.24498   0.00000  Uiso   1.00
O181   O     0.75518   0.15930   0.30855   0.00000  Uiso   1.00
O182   O     0.91149   0.17403   0.19146   0.00000  Uiso   1.00
O183   O     0.85532   0.16874   0.31671   0.00000  Uiso   1.00
O184   O     0.81134   0.16460   0.18329   0.00000  Uiso   1.00
O185   O     0.96496   0.08854   0.46112   0.00000  Uiso   1.00
C186   C     0.94725   0.03876   0.44048   0.00000  Uiso   1.00
H187   H     0.93766   0.00835   0.46507   0.00000  Uiso   1.00
H188   H     0.98408   0.02819   0.41191   0.00000  Uiso   1.00
C189   C     0.88680   0.03675   0.42584   0.00000  Uiso   1.00
H190   H     0.85040   0.04810   0.45402   0.00000  Uiso   1.00
H191   H     0.89665   0.06540   0.39981   0.00000  Uiso   1.00
C192   C     0.86110   0.31514   0.40830   0.00000  Uiso   1.00
H193   H     0.84856   0.28625   0.43438   0.00000  Uiso   1.00
H194   H     0.89677   0.30280   0.38015   0.00000  Uiso   1.00
H195   H     0.81803   0.31527   0.39718   0.00000  Uiso   1.00
O196   O     0.70760   0.23117   0.03542   0.00000  Uiso   1.00
C197   C     0.73890   0.26700   0.06330   0.00000  Uiso   1.00
H198   H     0.75640   0.24499   0.08435   0.00000  Uiso   1.00
H199   H     0.70738   0.29193   0.08402   0.00000  Uiso   1.00
C200   C     0.79569   0.30323   0.03524   0.00000  Uiso   1.00
H201   H     0.82793   0.27920   0.01444   0.00000  Uiso   1.00
H202   H     0.77909   0.32499   0.01354   0.00000  Uiso   1.00
C203   C     0.83196   0.00934   0.06351   0.00000  Uiso   1.00
H204   H     0.80060   0.03353   0.08503   0.00000  Uiso   1.00
H205   H     0.87171   0.03598   0.04213   0.00000  Uiso   1.00
H206   H     0.85133   0.32173   0.08410   0.00000  Uiso   1.00
Cl207  Cl    0.89725   0.02006   0.29567   0.00000  Uiso   1.00
Cl208  Cl    0.77063   0.31347   0.20334   0.00000  Uiso   1.00
Cl209  Cl    0.67199   0.22210   0.30354   0.00000  Uiso   1.00
Cl210  Cl    0.99466   0.11124   0.19648   0.00000  Uiso   1.00
C211   C     0.18121   0.59985   0.25173   0.00000  Uiso   1.00
C212   C     0.15222   0.40015   0.24811   0.00000  Uiso   1.00
C213   C     0.09877   0.45627   0.03660   0.00000  Uiso   1.00
C214   C     0.24147   0.52920   0.45989   0.00000  Uiso   1.00
C215   C     0.05557   0.44339   0.01081   0.00000  Uiso   1.00
C216   C     0.28466   0.54144   0.48575   0.00000  Uiso   1.00
C217   C     0.18490   0.65510   0.25835   0.00000  Uiso   1.00
C218   C     0.14880   0.34494   0.24123   0.00000  Uiso   1.00
C219   C     0.12819   0.49591   0.33304   0.00000  Uiso   1.00
C220   C     0.20516   0.50377   0.16692   0.00000  Uiso   1.00
C221   C     0.10512   0.48833   0.38034   0.00000  Uiso   1.00
C222   C     0.22870   0.50877   0.11931   0.00000  Uiso   1.00
C223   C     0.02669   0.44620   0.44215   0.00000  Uiso   1.00
C224   C     0.31175   0.54228   0.05574   0.00000  Uiso   1.00
C225   C     0.04370   0.46152   0.39855   0.00000  Uiso   1.00
C226   C     0.29200   0.53021   0.10048   0.00000  Uiso   1.00
C227   C     0.14828   0.50349   0.40649   0.00000  Uiso   1.00
C228   C     0.18566   0.49480   0.09308   0.00000  Uiso   1.00
C229   C     0.13337   0.48904   0.45022   0.00000  Uiso   1.00
C230   C     0.20387   0.50255   0.04790   0.00000  Uiso   1.00
C231   C     0.07151   0.45981   0.46791   0.00000  Uiso   1.00
C232   C     0.26710   0.52849   0.02970   0.00000  Uiso   1.00
C233   C     0.17844   0.50216   0.47652   0.00000  Uiso   1.00
C234   C     0.16005   0.48709   0.02086   0.00000  Uiso   1.00
Cu235  Cu    0.10737   0.49441   0.24517   0.00000  Uiso   1.00
Cu236  Cu    0.22596   0.50559   0.25484   0.00000  Uiso   1.00
H237   H     0.00927   0.41992   0.02480   0.00000  Uiso   1.00
H238   H     0.33232   0.56168   0.47089   0.00000  Uiso   1.00
H239   H     0.13724   0.47960   0.10922   0.00000  Uiso   1.00
H240   H     0.19384   0.52613   0.39122   0.00000  Uiso   1.00
H241   H     0.32504   0.53895   0.12114   0.00000  Uiso   1.00
H242   H     0.00953   0.45103   0.37869   0.00000  Uiso   1.00
H243   H     0.08265   0.44005   0.06862   0.00000  Uiso   1.00
H244   H     0.26016   0.54104   0.42658   0.00000  Uiso   1.00
N245   N     0.31506   0.51401   0.26212   0.00000  Uiso   1.00
N246   N     0.01827   0.48599   0.23788   0.00000  Uiso   1.00
O247   O     0.12815   0.57142   0.24686   0.00000  Uiso   1.00
O248   O     0.20518   0.42858   0.25314   0.00000  Uiso   1.00
O249   O     0.22829   0.58086   0.25503   0.00000  Uiso   1.00
O250   O     0.10504   0.41914   0.24498   0.00000  Uiso   1.00
O251   O     0.08851   0.49263   0.30855   0.00000  Uiso   1.00
O252   O     0.24482   0.50737   0.19146   0.00000  Uiso   1.00
O253   O     0.18866   0.50207   0.31671   0.00000  Uiso   1.00
O254   O     0.14468   0.49793   0.18329   0.00000  Uiso   1.00
O255   O     0.29829   0.42187   0.46112   0.00000  Uiso   1.00
C256   C     0.28058   0.37209   0.44048   0.00000  Uiso   1.00
H257   H     0.27100   0.34169   0.46507   0.00000  Uiso   1.00
H258   H     0.31741   0.36152   0.41191   0.00000  Uiso   1.00
C259   C     0.22014   0.37008   0.42584   0.00000  Uiso   1.00
H260   H     0.18374   0.38144   0.45402   0.00000  Uiso   1.00
H261   H     0.22998   0.39874   0.39981   0.00000  Uiso   1.00
C262   C     0.19444   0.64847   0.40830   0.00000  Uiso   1.00
H263   H     0.18190   0.61958   0.43438   0.00000  Uiso   1.00
H264   H     0.23010   0.63613   0.38015   0.00000  Uiso   1.00
H265   H     0.15137   0.64860   0.39718   0.00000  Uiso   1.00
O266   O     0.04093   0.56451   0.03542   0.00000  Uiso   1.00
C267   C     0.07224   0.60033   0.06330   0.00000  Uiso   1.00
H268   H     0.08973   0.57832   0.08435   0.00000  Uiso   1.00
H269   H     0.04071   0.62526   0.08402   0.00000  Uiso   1.00
C270   C     0.12902   0.63656   0.03524   0.00000  Uiso   1.00
H271   H     0.16127   0.61254   0.01444   0.00000  Uiso   1.00
H272   H     0.11242   0.65832   0.01354   0.00000  Uiso   1.00
C273   C     0.16530   0.34267   0.06351   0.00000  Uiso   1.00
H274   H     0.13393   0.36686   0.08503   0.00000  Uiso   1.00
H275   H     0.20505   0.36932   0.04213   0.00000  Uiso   1.00
H276   H     0.18467   0.65506   0.08410   0.00000  Uiso   1.00
Cl277  Cl    0.23058   0.35340   0.29567   0.00000  Uiso   1.00
Cl278  Cl    0.10396   0.64681   0.20334   0.00000  Uiso   1.00
Cl279  Cl    0.00532   0.55543   0.30354   0.00000  Uiso   1.00
Cl280  Cl    0.32799   0.44457   0.19648   0.00000  Uiso   1.00
C281   C     0.51454   0.59985   0.25173   0.00000  Uiso   1.00
C282   C     0.48556   0.40015   0.24811   0.00000  Uiso   1.00
C283   C     0.43210   0.45627   0.03660   0.00000  Uiso   1.00
C284   C     0.57480   0.52920   0.45989   0.00000  Uiso   1.00
C285   C     0.38890   0.44339   0.01081   0.00000  Uiso   1.00
C286   C     0.61799   0.54144   0.48575   0.00000  Uiso   1.00
C287   C     0.51823   0.65510   0.25835   0.00000  Uiso   1.00
C288   C     0.48213   0.34494   0.24123   0.00000  Uiso   1.00
C289   C     0.46152   0.49591   0.33304   0.00000  Uiso   1.00
C290   C     0.53850   0.50377   0.16692   0.00000  Uiso   1.00
C291   C     0.43846   0.48833   0.38034   0.00000  Uiso   1.00
C292   C     0.56203   0.50877   0.11931   0.00000  Uiso   1.00
C293   C     0.36002   0.44620   0.44215   0.00000  Uiso   1.00
C294   C     0.64508   0.54228   0.05574   0.00000  Uiso   1.00
C295   C     0.37703   0.46152   0.39855   0.00000  Uiso   1.00
C296   C     0.62533   0.53021   0.10048   0.00000  Uiso   1.00
C297   C     0.48161   0.50349   0.40649   0.00000  Uiso   1.00
C298   C     0.51900   0.49480   0.09308   0.00000  Uiso   1.00
C299   C     0.46671   0.48904   0.45022   0.00000  Uiso   1.00
C300   C     0.53720   0.50255   0.04790   0.00000  Uiso   1.00
C301   C     0.40485   0.45981   0.46791   0.00000  Uiso   1.00
C302   C     0.60043   0.52849   0.02970   0.00000  Uiso   1.00
C303   C     0.51177   0.50216   0.47652   0.00000  Uiso   1.00
C304   C     0.49339   0.48709   0.02086   0.00000  Uiso   1.00
Cu305  Cu    0.44071   0.49441   0.24517   0.00000  Uiso   1.00
Cu306  Cu    0.55929   0.50559   0.25484   0.00000  Uiso   1.00
H307   H     0.34261   0.41992   0.02480   0.00000  Uiso   1.00
H308   H     0.66565   0.56168   0.47089   0.00000  Uiso   1.00
H309   H     0.47058   0.47960   0.10922   0.00000  Uiso   1.00
H310   H     0.52717   0.52613   0.39122   0.00000  Uiso   1.00
H311   H     0.65838   0.53895   0.12114   0.00000  Uiso   1.00
H312   H     0.34287   0.45103   0.37869   0.00000  Uiso   1.00
H313   H     0.41599   0.44005   0.06862   0.00000  Uiso   1.00
H314   H     0.59349   0.54104   0.42658   0.00000  Uiso   1.00
N315   N     0.64839   0.51401   0.26212   0.00000  Uiso   1.00
N316   N     0.35161   0.48599   0.23788   0.00000  Uiso   1.00
O317   O     0.46148   0.57142   0.24686   0.00000  Uiso   1.00
O318   O     0.53852   0.42858   0.25314   0.00000  Uiso   1.00
O319   O     0.56163   0.58086   0.25503   0.00000  Uiso   1.00
O320   O     0.43837   0.41914   0.24498   0.00000  Uiso   1.00
O321   O     0.42185   0.49263   0.30855   0.00000  Uiso   1.00
O322   O     0.57815   0.50737   0.19146   0.00000  Uiso   1.00
O323   O     0.52199   0.50207   0.31671   0.00000  Uiso   1.00
O324   O     0.47801   0.49793   0.18329   0.00000  Uiso   1.00
O325   O     0.63162   0.42187   0.46112   0.00000  Uiso   1.00
C326   C     0.61392   0.37209   0.44048   0.00000  Uiso   1.00
H327   H     0.60433   0.34169   0.46507   0.00000  Uiso   1.00
H328   H     0.65074   0.36152   0.41191   0.00000  Uiso   1.00
C329   C     0.55347   0.37008   0.42584   0.00000  Uiso   1.00
H330   H     0.51707   0.38144   0.45402   0.00000  Uiso   1.00
H331   H     0.56331   0.39874   0.39981   0.00000  Uiso   1.00
C332   C     0.52777   0.64847   0.40830   0.00000  Uiso   1.00
H333   H     0.51523   0.61958   0.43438   0.00000  Uiso   1.00
H334   H     0.56343   0.63613   0.38015   0.00000  Uiso   1.00
H335   H     0.48470   0.64860   0.39718   0.00000  Uiso   1.00
O336   O     0.37426   0.56451   0.03542   0.00000  Uiso   1.00
C337   C     0.40557   0.60033   0.06330   0.00000  Uiso   1.00
H338   H     0.42306   0.57832   0.08435   0.00000  Uiso   1.00
H339   H     0.37405   0.62526   0.08402   0.00000  Uiso   1.00
C340   C     0.46235   0.63656   0.03524   0.00000  Uiso   1.00
H341   H     0.49460   0.61254   0.01444   0.00000  Uiso   1.00
H342   H     0.44575   0.65832   0.01354   0.00000  Uiso   1.00
C343   C     0.49863   0.34267   0.06351   0.00000  Uiso   1.00
H344   H     0.46726   0.36686   0.08503   0.00000  Uiso   1.00
H345   H     0.53838   0.36932   0.04213   0.00000  Uiso   1.00
H346   H     0.51800   0.65506   0.08410   0.00000  Uiso   1.00
Cl347  Cl    0.56391   0.35340   0.29567   0.00000  Uiso   1.00
Cl348  Cl    0.43729   0.64681   0.20334   0.00000  Uiso   1.00
Cl349  Cl    0.33866   0.55543   0.30354   0.00000  Uiso   1.00
Cl350  Cl    0.66132   0.44457   0.19648   0.00000  Uiso   1.00
C351   C     0.84787   0.59985   0.25173   0.00000  Uiso   1.00
C352   C     0.81889   0.40015   0.24811   0.00000  Uiso   1.00
C353   C     0.76544   0.45627   0.03660   0.00000  Uiso   1.00
C354   C     0.90813   0.52920   0.45989   0.00000  Uiso   1.00
C355   C     0.72223   0.44339   0.01081   0.00000  Uiso   1.00
C356   C     0.95133   0.54144   0.48575   0.00000  Uiso   1.00
C357   C     0.85157   0.65510   0.25835   0.00000  Uiso   1.00
C358   C     0.81546   0.34494   0.24123   0.00000  Uiso   1.00
C359   C     0.79485   0.49591   0.33304   0.00000  Uiso   1.00
C360   C     0.87183   0.50377   0.16692   0.00000  Uiso   1.00
C361   C     0.77179   0.48833   0.38034   0.00000  Uiso   1.00
C362   C     0.89537   0.50877   0.11931   0.00000  Uiso   1.00
C363   C     0.69335   0.44620   0.44215   0.00000  Uiso   1.00
C364   C     0.97841   0.54228   0.05574   0.00000  Uiso   1.00
C365   C     0.71036   0.46152   0.39855   0.00000  Uiso   1.00
C366   C     0.95867   0.53021   0.10048   0.00000  Uiso   1.00
C367   C     0.81494   0.50349   0.40649   0.00000  Uiso   1.00
C368   C     0.85233   0.49480   0.09308   0.00000  Uiso   1.00
C369   C     0.80004   0.48904   0.45022   0.00000  Uiso   1.00
C370   C     0.87053   0.50255   0.04790   0.00000  Uiso   1.00
C371   C     0.73818   0.45981   0.46791   0.00000  Uiso   1.00
C372   C     0.93376   0.52849   0.02970   0.00000  Uiso   1.00
C373   C     0.84510   0.50216   0.47652   0.00000  Uiso   1.00
C374   C     0.82672   0.48709   0.02086   0.00000  Uiso   1.00
Cu375  Cu    0.77404   0.49441   0.24517   0.00000  Uiso   1.00
Cu376  Cu    0.89263   0.50559   0.25484   0.00000  Uiso   1.00
H377   H     0.67594   0.41992   0.02480   0.00000  Uiso   1.00
H378   H     0.99898   0.56168   0.47089   0.00000  Uiso   1.00
H379   H     0.80391   0.47960   0.10922   0.00000  Uiso   1.00
H380   H     0.86051   0.52613   0.39122   0.00000  Uiso   1.00
H381   H     0.99171   0.53895   0.12114   0.00000  Uiso   1.00
H382   H     0.67620   0.45103   0.37869   0.00000  Uiso   1.00
H383   H     0.74932   0.44005   0.06862   0.00000  Uiso   1.00
H384   H     0.92683   0.54104   0.42658   0.00000  Uiso   1.00
N385   N     0.98173   0.51401   0.26212   0.00000  Uiso   1.00
N386   N     0.68494   0.48599   0.23788   0.00000  Uiso   1.00
O387   O     0.79482   0.57142   0.24686   0.00000  Uiso   1.00
O388   O     0.87185   0.42858   0.25314   0.00000  Uiso   1.00
O389   O     0.89496   0.58086   0.25503   0.00000  Uiso   1.00
O390   O     0.77171   0.41914   0.24498   0.00000  Uiso   1.00
O391   O     0.75518   0.49263   0.30855   0.00000  Uiso   1.00
O392   O     0.91149   0.50737   0.19146   0.00000  Uiso   1.00
O393   O     0.85532   0.50207   0.31671   0.00000  Uiso   1.00
O394   O     0.81134   0.49793   0.18329   0.00000  Uiso   1.00
O395   O     0.96496   0.42187   0.46112   0.00000  Uiso   1.00
C396   C     0.94725   0.37209   0.44048   0.00000  Uiso   1.00
H397   H     0.93766   0.34169   0.46507   0.00000  Uiso   1.00
H398   H     0.98408   0.36152   0.41191   0.00000  Uiso   1.00
C399   C     0.88680   0.37008   0.42584   0.00000  Uiso   1.00
H400   H     0.85040   0.38144   0.45402   0.00000  Uiso   1.00
H401   H     0.89665   0.39874   0.39981   0.00000  Uiso   1.00
C402   C     0.86110   0.64847   0.40830   0.00000  Uiso   1.00
H403   H     0.84856   0.61958   0.43438   0.00000  Uiso   1.00
H404   H     0.89677   0.63613   0.38015   0.00000  Uiso   1.00
H405   H     0.81803   0.64860   0.39718   0.00000  Uiso   1.00
O406   O     0.70760   0.56451   0.03542   0.00000  Uiso   1.00
C407   C     0.73890   0.60033   0.06330   0.00000  Uiso   1.00
H408   H     0.75640   0.57832   0.08435   0.00000  Uiso   1.00
H409   H     0.70738   0.62526   0.08402   0.00000  Uiso   1.00
C410   C     0.79569   0.63656   0.03524   0.00000  Uiso   1.00
H411   H     0.82793   0.61254   0.01444   0.00000  Uiso   1.00
H412   H     0.77909   0.65832   0.01354   0.00000  Uiso   1.00
C413   C     0.83196   0.34267   0.06351   0.00000  Uiso   1.00
H414   H     0.80060   0.36686   0.08503   0.00000  Uiso   1.00
H415   H     0.87171   0.36932   0.04213   0.00000  Uiso   1.00
H416   H     0.85133   0.65506   0.08410   0.00000  Uiso   1.00
Cl417  Cl    0.89725   0.35340   0.29567   0.00000  Uiso   1.00
Cl418  Cl    0.77063   0.64681   0.20334   0.00000  Uiso   1.00
Cl419  Cl    0.67199   0.55543   0.30354   0.00000  Uiso   1.00
Cl420  Cl    0.99466   0.44457   0.19648   0.00000  Uiso   1.00
C421   C     0.18121   0.93319   0.25173   0.00000  Uiso   1.00
C422   C     0.15222   0.73348   0.24811   0.00000  Uiso   1.00
C423   C     0.09877   0.78960   0.03660   0.00000  Uiso   1.00
C424   C     0.24147   0.86254   0.45989   0.00000  Uiso   1.00
C425   C     0.05557   0.77672   0.01081   0.00000  Uiso   1.00
C426   C     0.28466   0.87477   0.48575   0.00000  Uiso   1.00
C427   C     0.18490   0.98843   0.25835   0.00000  Uiso   1.00
C428   C     0.14880   0.67827   0.24123   0.00000  Uiso   1.00
C429   C     0.12819   0.82924   0.33304   0.00000  Uiso   1.00
C430   C     0.20516   0.83710   0.16692   0.00000  Uiso   1.00
C431   C     0.10512   0.82166   0.38034   0.00000  Uiso   1.00
C432   C     0.22870   0.84211   0.11931   0.00000  Uiso   1.00
C433   C     0.02669   0.77953   0.44215   0.00000  Uiso   1.00
C434   C     0.31175   0.87561   0.05574   0.00000  Uiso   1.00
C435   C     0.04370   0.79486   0.39855   0.00000  Uiso   1.00
C436   C     0.29200   0.86355   0.10048   0.00000  Uiso   1.00
C437   C     0.14828   0.83683   0.40649   0.00000  Uiso   1.00
C438   C     0.18566   0.82813   0.09308   0.00000  Uiso   1.00
C439   C     0.13337   0.82237   0.45022   0.00000  Uiso   1.00
C440   C     0.20387   0.83588   0.04790   0.00000  Uiso   1.00
C441   C     0.07151   0.79315   0.46791   0.00000  Uiso   1.00
C442   C     0.26710   0.86182   0.02970   0.00000  Uiso   1.00
C443   C     0.17844   0.83549   0.47652   0.00000  Uiso   1.00
C444   C     0.16005   0.82042   0.02086   0.00000  Uiso   1.00
Cu445  Cu    0.10737   0.82775   0.24517   0.00000  Uiso   1.00
Cu446  Cu    0.22596   0.83892   0.25484   0.00000  Uiso   1.00
H447   H     0.00927   0.75325   0.02480   0.00000  Uiso   1.00
H448   H     0.33232   0.89501   0.47089   0.00000  Uiso   1.00
H449   H     0.13724   0.81294   0.10922   0.00000  Uiso   1.00
H450   H     0.19384   0.85946   0.39122   0.00000  Uiso   1.00
H451   H     0.32504   0.87228   0.12114   0.00000  Uiso   1.00
H452   H     0.00953   0.78437   0.37869   0.00000  Uiso   1.00
H453   H     0.08265   0.77338   0.06862   0.00000  Uiso   1.00
H454   H     0.26016   0.87437   0.42658   0.00000  Uiso   1.00
N455   N     0.31506   0.84735   0.26212   0.00000  Uiso   1.00
N456   N     0.01827   0.81932   0.23788   0.00000  Uiso   1.00
O457   O     0.12815   0.90476   0.24686   0.00000  Uiso   1.00
O458   O     0.20518   0.76191   0.25314   0.00000  Uiso   1.00
O459   O     0.22829   0.91420   0.25503   0.00000  Uiso   1.00
O460   O     0.10504   0.75247   0.24498   0.00000  Uiso   1.00
O461   O     0.08851   0.82597   0.30855   0.00000  Uiso   1.00
O462   O     0.24482   0.84070   0.19146   0.00000  Uiso   1.00
O463   O     0.18866   0.83540   0.31671   0.00000  Uiso   1.00
O464   O     0.14468   0.83126   0.18329   0.00000  Uiso   1.00
O465   O     0.29829   0.75521   0.46112   0.00000  Uiso   1.00
C466   C     0.28058   0.70543   0.44048   0.00000  Uiso   1.00
H467   H     0.27100   0.67502   0.46507   0.00000  Uiso   1.00
H468   H     0.31741   0.69485   0.41191   0.00000  Uiso   1.00
C469   C     0.22014   0.70342   0.42584   0.00000  Uiso   1.00
H470   H     0.18374   0.71477   0.45402   0.00000  Uiso   1.00
H471   H     0.22998   0.73207   0.39981   0.00000  Uiso   1.00
C472   C     0.19444   0.98181   0.40830   0.00000  Uiso   1.00
H473   H     0.18190   0.95291   0.43438   0.00000  Uiso   1.00
H474   H     0.23010   0.96947   0.38015   0.00000  Uiso   1.00
H475   H     0.15137   0.98194   0.39718   0.00000  Uiso   1.00
O476   O     0.04093   0.89784   0.03542   0.00000  Uiso   1.00
C477   C     0.07224   0.93367   0.06330   0.00000  Uiso   1.00
H478   H     0.08973   0.91166   0.08435   0.00000  Uiso   1.00
H479   H     0.04071   0.95860   0.08402   0.00000  Uiso   1.00
C480   C     0.12902   0.96989   0.03524   0.00000  Uiso   1.00
H481   H     0.16127   0.94587   0.01444   0.00000  Uiso   1.00
H482   H     0.11242   0.99165   0.01354   0.00000  Uiso   1.00
C483   C     0.16530   0.67601   0.06351   0.00000  Uiso   1.00
H484   H     0.13393   0.70019   0.08503   0.00000  Uiso   1.00
H485   H     0.20505   0.70265   0.04213   0.00000  Uiso   1.00
H486   H     0.18467   0.98839   0.08410   0.00000  Uiso   1.00
Cl487  Cl    0.23058   0.68673   0.29567   0.00000  Uiso   1.00
Cl488  Cl    0.10396   0.98014   0.20334   0.00000  Uiso   1.00
Cl489  Cl    0.00532   0.88876   0.30354   0.00000  Uiso   1.00
Cl490  Cl    0.32799   0.77790   0.19648   0.00000  Uiso   1.00
C491   C     0.51454   0.93319   0.25173   0.00000  Uiso   1.00
C492   C     0.48556   0.73348   0.24811   0.00000  Uiso   1.00
C493   C     0.43210   0.78960   0.03660   0.00000  Uiso   1.00
C494   C     0.57480   0.86254   0.45989   0.00000  Uiso   1.00
C495   C     0.38890   0.77672   0.01081   0.00000  Uiso   1.00
C496   C     0.61799   0.87477   0.48575   0.00000  Uiso   1.00
C497   C     0.51823   0.98843   0.25835   0.00000  Uiso   1.00
C498   C     0.48213   0.67827   0.24123   0.00000  Uiso   1.00
C499   C     0.46152   0.82924   0.33304   0.00000  Uiso   1.00
C500   C     0.53850   0.83710   0.16692   0.00000  Uiso   1.00
C501   C     0.43846   0.82166   0.38034   0.00000  Uiso   1.00
C502   C     0.56203   0.84211   0.11931   0.00000  Uiso   1.00
C503   C     0.36002   0.77953   0.44215   0.00000  Uiso   1.00
C504   C     0.64508   0.87561   0.05574   0.00000  Uiso   1.00
C505   C     0.37703   0.79486   0.39855   0.00000  Uiso   1.00
C506   C     0.62533   0.86355   0.10048   0.00000  Uiso   1.00
C507   C     0.48161   0.83683   0.40649   0.00000  Uiso   1.00
C508   C     0.51900   0.82813   0.09308   0.00000  Uiso   1.00
C509   C     0.46671   0.82237   0.45022   0.00000  Uiso   1.00
C510   C     0.53720   0.83588   0.04790   0.00000  Uiso   1.00
C511   C     0.40485   0.79315   0.46791   0.00000  Uiso   1.00
C512   C     0.60043   0.86182   0.02970   0.00000  Uiso   1.00
C513   C     0.51177   0.83549   0.47652   0.00000  Uiso   1.00
C514   C     0.49339   0.82042   0.02086   0.00000  Uiso   1.00
Cu515  Cu    0.44071   0.82775   0.24517   0.00000  Uiso   1.00
Cu516  Cu    0.55929   0.83892   0.25484   0.00000  Uiso   1.00
H517   H     0.34261   0.75325   0.02480   0.00000  Uiso   1.00
H518   H     0.66565   0.89501   0.47089   0.00000  Uiso   1.00
H519   H     0.47058   0.81294   0.10922   0.00000  Uiso   1.00
H520   H     0.52717   0.85946   0.39122   0.00000  Uiso   1.00
H521   H     0.65838   0.87228   0.12114   0.00000  Uiso   1.00
H522   H     0.34287   0.78437   0.37869   0.00000  Uiso   1.00
H523   H     0.41599   0.77338   0.06862   0.00000  Uiso   1.00
H524   H     0.59349   0.87437   0.42658   0.00000  Uiso   1.00
N525   N     0.64839   0.84735   0.26212   0.00000  Uiso   1.00
N526   N     0.35161   0.81932   0.23788   0.00000  Uiso   1.00
O527   O     0.46148   0.90476   0.24686   0.00000  Uiso   1.00
O528   O     0.53852   0.76191   0.25314   0.00000  Uiso   1.00
O529   O     0.56163   0.91420   0.25503   0.00000  Uiso   1.00
O530   O     0.43837   0.75247   0.24498   0.00000  Uiso   1.00
O531   O     0.42185   0.82597   0.30855   0.00000  Uiso   1.00
O532   O     0.57815   0.84070   0.19146   0.00000  Uiso   1.00
O533   O     0.52199   0.83540   0.31671   0.00000  Uiso   1.00
O534   O     0.47801   0.83126   0.18329   0.00000  Uiso   1.00
O535   O     0.63162   0.75521   0.46112   0.00000  Uiso   1.00
C536   C     0.61392   0.70543   0.44048   0.00000  Uiso   1.00
H537   H     0.60433   0.67502   0.46507   0.00000  Uiso   1.00
H538   H     0.65074   0.69485   0.41191   0.00000  Uiso   1.00
C539   C     0.55347   0.70342   0.42584   0.00000  Uiso   1.00
H540   H     0.51707   0.71477   0.45402   0.00000  Uiso   1.00
H541   H     0.56331   0.73207   0.39981   0.00000  Uiso   1.00
C542   C     0.52777   0.98181   0.40830   0.00000  Uiso   1.00
H543   H     0.51523   0.95291   0.43438   0.00000  Uiso   1.00
H544   H     0.56343   0.96947   0.38015   0.00000  Uiso   1.00
H545   H     0.48470   0.98194   0.39718   0.00000  Uiso   1.00
O546   O     0.37426   0.89784   0.03542   0.00000  Uiso   1.00
C547   C     0.40557   0.93367   0.06330   0.00000  Uiso   1.00
H548   H     0.42306   0.91166   0.08435   0.00000  Uiso   1.00
H549   H     0.37405   0.95860   0.08402   0.00000  Uiso   1.00
C550   C     0.46235   0.96989   0.03524   0.00000  Uiso   1.00
H551   H     0.49460   0.94587   0.01444   0.00000  Uiso   1.00
H552   H     0.44575   0.99165   0.01354   0.00000  Uiso   1.00
C553   C     0.49863   0.67601   0.06351   0.00000  Uiso   1.00
H554   H     0.46726   0.70019   0.08503   0.00000  Uiso   1.00
H555   H     0.53838   0.70265   0.04213   0.00000  Uiso   1.00
H556   H     0.51800   0.98839   0.08410   0.00000  Uiso   1.00
Cl557  Cl    0.56391   0.68673   0.29567   0.00000  Uiso   1.00
Cl558  Cl    0.43729   0.98014   0.20334   0.00000  Uiso   1.00
Cl559  Cl    0.33866   0.88876   0.30354   0.00000  Uiso   1.00
Cl560  Cl    0.66132   0.77790   0.19648   0.00000  Uiso   1.00
C561   C     0.84787   0.93319   0.25173   0.00000  Uiso   1.00
C562   C     0.81889   0.73348   0.24811   0.00000  Uiso   1.00
C563   C     0.76544   0.78960   0.03660   0.00000  Uiso   1.00
C564   C     0.90813   0.86254   0.45989   0.00000  Uiso   1.00
C565   C     0.72223   0.77672   0.01081   0.00000  Uiso   1.00
C566   C     0.95133   0.87477   0.48575   0.00000  Uiso   1.00
C567   C     0.85157   0.98843   0.25835   0.00000  Uiso   1.00
C568   C     0.81546   0.67827   0.24123   0.00000  Uiso   1.00
C569   C     0.79485   0.82924   0.33304   0.00000  Uiso   1.00
C570   C     0.87183   0.83710   0.16692   0.00000  Uiso   1.00
C571   C     0.77179   0.82166   0.38034   0.00000  Uiso   1.00
C572   C     0.89537   0.84211   0.11931   0.00000  Uiso   1.00
C573   C     0.69335   0.77953   0.44215   0.00000  Uiso   1.00
C574   C     0.97841   0.87561   0.05574   0.00000  Uiso   1.00
C575   C     0.71036   0.79486   0.39855   0.00000  Uiso   1.00
C576   C     0.95867   0.86355   0.10048   0.00000  Uiso   1.00
C577   C     0.81494   0.83683   0.40649   0.00000  Uiso   1.00
C578   C     0.85233   0.82813   0.09308   0.00000  Uiso   1.00
C579   C     0.80004   0.82237   0.45022   0.00000  Uiso   1.00
C580   C     0.87053   0.83588   0.04790   0.00000  Uiso   1.00
C581   C     0.73818   0.79315   0.46791   0.00000  Uiso   1.00
C582   C     0.93376   0.86182   0.02970   0.00000  Uiso   1.00
C583   C     0.84510   0.83549   0.47652   0.00000  Uiso   1.00
C584   C     0.82672   0.82042   0.02086   0.00000  Uiso   1.00
Cu585  Cu    0.77404   0.82775   0.24517   0.00000  Uiso   1.00
Cu586  Cu    0.89263   0.83892   0.25484   0.00000  Uiso   1.00
H587   H     0.67594   0.75325   0.02480   0.00000  Uiso   1.00
H588   H     0.99898   0.89501   0.47089   0.00000  Uiso   1.00
H589   H     0.80391   0.81294   0.10922   0.00000  Uiso   1.00
H590   H     0.86051   0.85946   0.39122   0.00000  Uiso   1.00
H591   H     0.99171   0.87228   0.12114   0.00000  Uiso   1.00
H592   H     0.67620   0.78437   0.37869   0.00000  Uiso   1.00
H593   H     0.74932   0.77338   0.06862   0.00000  Uiso   1.00
H594   H     0.92683   0.87437   0.42658   0.00000  Uiso   1.00
N595   N     0.98173   0.84735   0.26212   0.00000  Uiso   1.00
N596   N     0.68494   0.81932   0.23788   0.00000  Uiso   1.00
O597   O     0.79482   0.90476   0.24686   0.00000  Uiso   1.00
O598   O     0.87185   0.76191   0.25314   0.00000  Uiso   1.00
O599   O     0.89496   0.91420   0.25503   0.00000  Uiso   1.00
O600   O     0.77171   0.75247   0.24498   0.00000  Uiso   1.00
O601   O     0.75518   0.82597   0.30855   0.00000  Uiso   1.00
O602   O     0.91149   0.84070   0.19146   0.00000  Uiso   1.00
O603   O     0.85532   0.83540   0.31671   0.00000  Uiso   1.00
O604   O     0.81134   0.83126   0.18329   0.00000  Uiso   1.00
O605   O     0.96496   0.75521   0.46112   0.00000  Uiso   1.00
C606   C     0.94725   0.70543   0.44048   0.00000  Uiso   1.00
H607   H     0.93766   0.67502   0.46507   0.00000  Uiso   1.00
H608   H     0.98408   0.69485   0.41191   0.00000  Uiso   1.00
C609   C     0.88680   0.70342   0.42584   0.00000  Uiso   1.00
H610   H     0.85040   0.71477   0.45402   0.00000  Uiso   1.00
H611   H     0.89665   0.73207   0.39981   0.00000  Uiso   1.00
C612   C     0.86110   0.98181   0.40830   0.00000  Uiso   1.00
H613   H     0.84856   0.95291   0.43438   0.00000  Uiso   1.00
H614   H     0.89677   0.96947   0.38015   0.00000  Uiso   1.00
H615   H     0.81803   0.98194   0.39718   0.00000  Uiso   1.00
O616   O     0.70760   0.89784   0.03542   0.00000  Uiso   1.00
C617   C     0.73890   0.93367   0.06330   0.00000  Uiso   1.00
H618   H     0.75640   0.91166   0.08435   0.00000  Uiso   1.00
H619   H     0.70738   0.95860   0.08402   0.00000  Uiso   1.00
C620   C     0.79569   0.96989   0.03524   0.00000  Uiso   1.00
H621   H     0.82793   0.94587   0.01444   0.00000  Uiso   1.00
H622   H     0.77909   0.99165   0.01354   0.00000  Uiso   1.00
C623   C     0.83196   0.67601   0.06351   0.00000  Uiso   1.00
H624   H     0.80060   0.70019   0.08503   0.00000  Uiso   1.00
H625   H     0.87171   0.70265   0.04213   0.00000  Uiso   1.00
H626   H     0.85133   0.98839   0.08410   0.00000  Uiso   1.00
Cl627  Cl    0.89725   0.68673   0.29567   0.00000  Uiso   1.00
Cl628  Cl    0.77063   0.98014   0.20334   0.00000  Uiso   1.00
Cl629  Cl    0.67199   0.88876   0.30354   0.00000  Uiso   1.00
Cl630  Cl    0.99466   0.77790   0.19648   0.00000  Uiso   1.00
C631   C     0.18121   0.26652   0.75173   0.00000  Uiso   1.00
C632   C     0.15222   0.06681   0.74811   0.00000  Uiso   1.00
C633   C     0.09877   0.12293   0.53660   0.00000  Uiso   1.00
C634   C     0.24147   0.19587   0.95989   0.00000  Uiso   1.00
C635   C     0.05557   0.11005   0.51081   0.00000  Uiso   1.00
C636   C     0.28466   0.20810   0.98575   0.00000  Uiso   1.00
C637   C     0.18490   0.32177   0.75835   0.00000  Uiso   1.00
C638   C     0.14880   0.01161   0.74123   0.00000  Uiso   1.00
C639   C     0.12819   0.16258   0.83304   0.00000  Uiso   1.00
C640   C     0.20516   0.17044   0.66692   0.00000  Uiso   1.00
C641   C     0.10512   0.15499   0.88034   0.00000  Uiso   1.00
C642   C     0.22870   0.17544   0.61931   0.00000  Uiso   1.00
C643   C     0.02669   0.11287   0.94215   0.00000  Uiso   1.00
C644   C     0.31175   0.20895   0.55574   0.00000  Uiso   1.00
C645   C     0.04370   0.12819   0.89855   0.00000  Uiso   1.00
C646   C     0.29200   0.19688   0.60048   0.00000  Uiso   1.00
C647   C     0.14828   0.17016   0.90649   0.00000  Uiso   1.00
C648   C     0.18566   0.16147   0.59308   0.00000  Uiso   1.00
C649   C     0.13337   0.15571   0.95022   0.00000  Uiso   1.00
C650   C     0.20387   0.16922   0.54790   0.00000  Uiso   1.00
C651   C     0.07151   0.12648   0.96791   0.00000  Uiso   1.00
C652   C     0.26710   0.19515   0.52970   0.00000  Uiso   1.00
C653   C     0.17844   0.16882   0.97652   0.00000  Uiso   1.00
C654   C     0.16005   0.15375   0.52086   0.00000  Uiso   1.00
Cu655  Cu    0.10737   0.16108   0.74517   0.00000  Uiso   1.00
Cu656  Cu    0.22596   0.17225   0.75484   0.00000  Uiso   1.00
H657   H     0.00927   0.08659   0.52480   0.00000  Uiso   1.00
H658   H     0.33232   0.22835   0.97089   0.00000  Uiso   1.00
H659   H     0.13724   0.14627   0.60922   0.00000  Uiso   1.00
H660   H     0.19384   0.19279   0.89122   0.00000  Uiso   1.00
H661   H     0.32504   0.20562   0.62114   0.00000  Uiso   1.00
H662   H     0.00953   0.11770   0.87869   0.00000  Uiso   1.00
H663   H     0.08265   0.10671   0.56862   0.00000  Uiso   1.00
H664   H     0.26016   0.20770   0.92658   0.00000  Uiso   1.00
N665   N     0.31506   0.18068   0.76212   0.00000  Uiso   1.00
N666   N     0.01827   0.15265   0.73788   0.00000  Uiso   1.00
O667   O     0.12815   0.23809   0.74686   0.00000  Uiso   1.00
O668   O     0.20518   0.09524   0.75314   0.00000  Uiso   1.00
O669   O     0.22829   0.24753   0.75503   0.00000  Uiso   1.00
O670   O     0.10504   0.08580   0.74498   0.00000  Uiso   1.00
O671   O     0.08851   0.15930   0.80855   0.00000  Uiso   1.00
O672   O     0.24482   0.17403   0.69146   0.00000  Uiso   1.00
O673   O     0.18866   0.16874   0.81671   0.00000  Uiso   1.00
O674   O     0.14468   0.16460   0.68329   0.00000  Uiso   1.00
O675   O     0.29829   0.08854   0.96112   0.00000  Uiso   1.00
C676   C     0.28058   0.03876   0.94048   0.00000  Uiso   1.00
H677   H     0.27100   0.00835   0.96507   0.00000  Uiso   1.00
H678   H     0.31741   0.02819   0.91191   0.00000  Uiso   1.00
C679   C     0.22014   0.03675   0.92584   0.00000  Uiso   1.00
H680   H     0.18374   0.04810   0.95402   0.00000  Uiso   1.00
H681   H     0.22998   0.06540   0.89981   0.00000  Uiso   1.00
C682   C     0.19444   0.31514   0.90830   0.00000  Uiso   1.00
H683   H     0.18190   0.28625   0.93438   0.00000  Uiso   1.00
H684   H     0.23010   0.30280   0.88015   0.00000  Uiso   1.00
H685   H     0.15137   0.31527   0.89718   0.00000  Uiso   1.00
O686   O     0.04093   0.23117   0.53542   0.00000  Uiso   1.00
C687   C     0.07224   0.26700   0.56330   0.00000  Uiso   1.00
H688   H     0.08973   0.24499   0.58435   0.00000  Uiso   1.00
H689   H     0.04071   0.29193   0.58402   0.00000  Uiso   1.00
C690   C     0.12902   0.30323   0.53524   0.00000  Uiso   1.00
H691   H     0.16127   0.27920   0.51444   0.00000  Uiso   1.00
H692   H     0.11242   0.32499   0.51354   0.00000  Uiso   1.00
C693   C     0.16530   0.00934   0.56351   0.00000  Uiso   1.00
H694   H     0.13393   0.03353   0.58503   0.00000  Uiso   1.00
H695   H     0.20505   0.03598   0.54213   0.00000  Uiso   1.00
H696   H     0.18467   0.32173   0.58410   0.00000  Uiso   1.00
Cl697  Cl    0.23058   0.02006   0.79567   0.00000  Uiso   1.00
Cl698  Cl    0.10396   0.31347   0.70334   0.00000  Uiso   1.00
Cl699  Cl    0.00532   0.22210   0.80354   0.00000  Uiso   1.00
Cl700  Cl    0.32799   0.11124   0.69648   0.00000  Uiso   1.00
C701   C     0.51454   0.26652   0.75173   0.00000  Uiso   1.00
C702   C     0.48556   0.06681   0.74811   0.00000  Uiso   1.00
C703   C     0.43210   0.12293   0.53660   0.00000  Uiso   1.00
C704   C     0.57480   0.19587   0.95989   0.00000  Uiso   1.00
C705   C     0.38890   0.11005   0.51081   0.00000  Uiso   1.00
C706   C     0.61799   0.20810   0.98575   0.00000  Uiso   1.00
C707   C     0.51823   0.32177   0.75835   0.00000  Uiso   1.00
C708   C     0.48213   0.01161   0.74123   0.00000  Uiso   1.00
C709   C     0.46152   0.16258   0.83304   0.00000  Uiso   1.00
C710   C     0.53850   0.17044   0.66692   0.00000  Uiso   1.00
C711   C     0.43846   0.15499   0.88034   0.00000  Uiso   1.00
C712   C     0.56203   0.17544   0.61931   0.00000  Uiso   1.00
C713   C     0.36002   0.11287   0.94215   0.00000  Uiso   1.00
C714   C     0.64508   0.20895   0.55574   0.00000  Uiso   1.00
C715   C     0.37703   0.12819   0.89855   0.00000  Uiso   1.00
C716   C     0.62533   0.19688   0.60048   0.00000  Uiso   1.00
C717   C     0.48161   0.17016   0.90649   0.00000  Uiso   1.00
C718   C     0.51900   0.16147   0.59308   0.00000  Uiso   1.00
C719   C     0.46671   0.15571   0.95022   0.00000  Uiso   1.00
C720   C     0.53720   0.16922   0.54790   0.00000  Uiso   1.00
C721   C     0.40485   0.12648   0.96791   0.00000  Uiso   1.00
C722   C     0.60043   0.19515   0.52970   0.00000  Uiso   1.00
C723   C     0.51177   0.16882   0.97652   0.00000  Uiso   1.00
C724   C     0.49339   0.15375   0.52086   0.00000  Uiso   1.00
Cu725  Cu    0.44071   0.16108   0.74517   0.00000  Uiso   1.00
Cu726  Cu    0.55929   0.17225   0.75484   0.00000  Uiso   1.00
H727   H     0.34261   0.08659   0.52480   0.00000  Uiso   1.00
H728   H     0.66565   0.22835   0.97089   0.00000  Uiso   1.00
H729   H     0.47058   0.14627   0.60922   0.00000  Uiso   1.00
H730   H     0.52717   0.19279   0.89122   0.00000  Uiso   1.00
H731   H     0.65838   0.20562   0.62114   0.00000  Uiso   1.00
H732   H     0.34287   0.11770   0.87869   0.00000  Uiso   1.00
H733   H     0.41599   0.10671   0.56862   0.00000  Uiso   1.00
H734   H     0.59349   0.20770   0.92658   0.00000  Uiso   1.00
N735   N     0.64839   0.18068   0.76212   0.00000  Uiso   1.00
N736   N     0.35161   0.15265   0.73788   0.00000  Uiso   1.00
O737   O     0.46148   0.23809   0.74686   0.00000  Uiso   1.00
O738   O     0.53852   0.09524   0.75314   0.00000  Uiso   1.00
O739   O     0.56163   0.24753   0.75503   0.00000  Uiso   1.00
O740   O     0.43837   0.08580   0.74498   0.00000  Uiso   1.00
O741   O     0.42185   0.15930   0.80855   0.00000  Uiso   1.00
O742   O     0.57815   0.17403   0.69146   0.00000  Uiso   1.00
O743   O     0.52199   0.16874   0.81671   0.00000  Uiso   1.00
O744   O     0.47801   0.16460   0.68329   0.00000  Uiso   1.00
O745   O     0.63162   0.08854   0.96112   0.00000  Uiso   1.00
C746   C     0.61392   0.03876   0.94048   0.00000  Uiso   1.00
H747   H     0.60433   0.00835   0.96507   0.00000  Uiso   1.00
H748   H     0.65074   0.02819   0.91191   0.00000  Uiso   1.00
C749   C     0.55347   0.03675   0.92584   0.00000  Uiso   1.00
H750   H     0.51707   0.04810   0.95402   0.00000  Uiso   1.00
H751   H     0.56331   0.06540   0.89981   0.00000  Uiso   1.00
C752   C     0.52777   0.31514   0.90830   0.00000  Uiso   1.00
H753   H     0.51523   0.28625   0.93438   0.00000  Uiso   1.00
H754   H     0.56343   0.30280   0.88015   0.00000  Uiso   1.00
H755   H     0.48470   0.31527   0.89718   0.00000  Uiso   1.00
O756   O     0.37426   0.23117   0.53542   0.00000  Uiso   1.00
C757   C     0.40557   0.26700   0.56330   0.00000  Uiso   1.00
H758   H     0.42306   0.24499   0.58435   0.00000  Uiso   1.00
H759   H     0.37405   0.29193   0.58402   0.00000  Uiso   1.00
C760   C     0.46235   0.30323   0.53524   0.00000  Uiso   1.00
H761   H     0.49460   0.27920   0.51444   0.00000  Uiso   1.00
H762   H     0.44575   0.32499   0.51354   0.00000  Uiso   1.00
C763   C     0.49863   0.00934   0.56351   0.00000  Uiso   1.00
H764   H     0.46726   0.03353   0.58503   0.00000  Uiso   1.00
H765   H     0.53838   0.03598   0.54213   0.00000  Uiso   1.00
H766   H     0.51800   0.32173   0.58410   0.00000  Uiso   1.00
Cl767  Cl    0.56391   0.02006   0.79567   0.00000  Uiso   1.00
Cl768  Cl    0.43729   0.31347   0.70334   0.00000  Uiso   1.00
Cl769  Cl    0.33866   0.22210   0.80354   0.00000  Uiso   1.00
Cl770  Cl    0.66132   0.11124   0.69648   0.00000  Uiso   1.00
C771   C     0.84787   0.26652   0.75173   0.00000  Uiso   1.00
C772   C     0.81889   0.06681   0.74811   0.00000  Uiso   1.00
C773   C     0.76544   0.12293   0.53660   0.00000  Uiso   1.00
C774   C     0.90813   0.19587   0.95989   0.00000  Uiso   1.00
C775   C     0.72223   0.11005   0.51081   0.00000  Uiso   1.00
C776   C     0.95133   0.20810   0.98575   0.00000  Uiso   1.00
C777   C     0.85157   0.32177   0.75835   0.00000  Uiso   1.00
C778   C     0.81546   0.01161   0.74123   0.00000  Uiso   1.00
C779   C     0.79485   0.16258   0.83304   0.00000  Uiso   1.00
C780   C     0.87183   0.17044   0.66692   0.00000  Uiso   1.00
C781   C     0.77179   0.15499   0.88034   0.00000  Uiso   1.00
C782   C     0.89537   0.17544   0.61931   0.00000  Uiso   1.00
C783   C     0.69335   0.11287   0.94215   0.00000  Uiso   1.00
C784   C     0.97841   0.20895   0.55574   0.00000  Uiso   1.00
C785   C     0.71036   0.12819   0.89855   0.00000  Uiso   1.00
C786   C     0.95867   0.19688   0.60048   0.00000  Uiso   1.00
C787   C     0.81494   0.17016   0.90649   0.00000  Uiso   1.00
C788   C     0.85233   0.16147   0.59308   0.00000  Uiso   1.00
C789   C     0.80004   0.15571   0.95022   0.00000  Uiso   1.00
C790   C     0.87053   0.16922   0.54790   0.00000  Uiso   1.00
C791   C     0.73818   0.12648   0.96791   0.00000  Uiso   1.00
C792   C     0.93376   0.19515   0.52970   0.00000  Uiso   1.00
C793   C     0.84510   0.16882   0.97652   0.00000  Uiso   1.00
C794   C     0.82672   0.15375   0.52086   0.00000  Uiso   1.00
Cu795  Cu    0.77404   0.16108   0.74517   0.00000  Uiso   1.00
Cu796  Cu    0.89263   0.17225   0.75484   0.00000  Uiso   1.00
H797   H     0.67594   0.08659   0.52480   0.00000  Uiso   1.00
H798   H     0.99898   0.22835   0.97089   0.00000  Uiso   1.00
H799   H     0.80391   0.14627   0.60922   0.00000  Uiso   1.00
H800   H     0.86051   0.19279   0.89122   0.00000  Uiso   1.00
H801   H     0.99171   0.20562   0.62114   0.00000  Uiso   1.00
H802   H     0.67620   0.11770   0.87869   0.00000  Uiso   1.00
H803   H     0.74932   0.10671   0.56862   0.00000  Uiso   1.00
H804   H     0.92683   0.20770   0.92658   0.00000  Uiso   1.00
N805   N     0.98173   0.18068   0.76212   0.00000  Uiso   1.00
N806   N     0.68494   0.15265   0.73788   0.00000  Uiso   1.00
O807   O     0.79482   0.23809   0.74686   0.00000  Uiso   1.00
O808   O     0.87185   0.09524   0.75314   0.00000  Uiso   1.00
O809   O     0.89496   0.24753   0.75503   0.00000  Uiso   1.00
O810   O     0.77171   0.08580   0.74498   0.00000  Uiso   1.00
O811   O     0.75518   0.15930   0.80855   0.00000  Uiso   1.00
O812   O     0.91149   0.17403   0.69146   0.00000  Uiso   1.00
O813   O     0.85532   0.16874   0.81671   0.00000  Uiso   1.00
O814   O     0.81134   0.16460   0.68329   0.00000  Uiso   1.00
O815   O     0.96496   0.08854   0.96112   0.00000  Uiso   1.00
C816   C     0.94725   0.03876   0.94048   0.00000  Uiso   1.00
H817   H     0.93766   0.00835   0.96507   0.00000  Uiso   1.00
H818   H     0.98408   0.02819   0.91191   0.00000  Uiso   1.00
C819   C     0.88680   0.03675   0.92584   0.00000  Uiso   1.00
H820   H     0.85040   0.04810   0.95402   0.00000  Uiso   1.00
H821   H     0.89665   0.06540   0.89981   0.00000  Uiso   1.00
C822   C     0.86110   0.31514   0.90830   0.00000  Uiso   1.00
H823   H     0.84856   0.28625   0.93438   0.00000  Uiso   1.00
H824   H     0.89677   0.30280   0.88015   0.00000  Uiso   1.00
H825   H     0.81803   0.31527   0.89718   0.00000  Uiso   1.00
O826   O     0.70760   0.23117   0.53542   0.00000  Uiso   1.00
C827   C     0.73890   0.26700   0.56330   0.00000  Uiso   1.00
H828   H     0.75640   0.24499   0.58435   0.00000  Uiso   1.00
H829   H     0.70738   0.29193   0.58402   0.00000  Uiso   1.00
C830   C     0.79569   0.30323   0.53524   0.00000  Uiso   1.00
H831   H     0.82793   0.27920   0.51444   0.00000  Uiso   1.00
H832   H     0.77909   0.32499   0.51354   0.00000  Uiso   1.00
C833   C     0.83196   0.00934   0.56351   0.00000  Uiso   1.00
H834   H     0.80060   0.03353   0.58503   0.00000  Uiso   1.00
H835   H     0.87171   0.03598   0.54213   0.00000  Uiso   1.00
H836   H     0.85133   0.32173   0.58410   0.00000  Uiso   1.00
Cl837  Cl    0.89725   0.02006   0.79567   0.00000  Uiso   1.00
Cl838  Cl    0.77063   0.31347   0.70334   0.00000  Uiso   1.00
Cl839  Cl    0.67199   0.22210   0.80354   0.00000  Uiso   1.00
Cl840  Cl    0.99466   0.11124   0.69648   0.00000  Uiso   1.00
C841   C     0.18121   0.59985   0.75173   0.00000  Uiso   1.00
C842   C     0.15222   0.40015   0.74811   0.00000  Uiso   1.00
C843   C     0.09877   0.45627   0.53660   0.00000  Uiso   1.00
C844   C     0.24147   0.52920   0.95989   0.00000  Uiso   1.00
C845   C     0.05557   0.44339   0.51081   0.00000  Uiso   1.00
C846   C     0.28466   0.54144   0.98575   0.00000  Uiso   1.00
C847   C     0.18490   0.65510   0.75835   0.00000  Uiso   1.00
C848   C     0.14880   0.34494   0.74123   0.00000  Uiso   1.00
C849   C     0.12819   0.49591   0.83304   0.00000  Uiso   1.00
C850   C     0.20516   0.50377   0.66692   0.00000  Uiso   1.00
C851   C     0.10512   0.48833   0.88034   0.00000  Uiso   1.00
C852   C     0.22870   0.50877   0.61931   0.00000  Uiso   1.00
C853   C     0.02669   0.44620   0.94215   0.00000  Uiso   1.00
C854   C     0.31175   0.54228   0.55574   0.00000  Uiso   1.00
C855   C     0.04370   0.46152   0.89855   0.00000  Uiso   1.00
C856   C     0.29200   0.53021   0.60048   0.00000  Uiso   1.00
C857   C     0.14828   0.50349   0.90649   0.00000  Uiso   1.00
C858   C     0.18566   0.49480   0.59308   0.00000  Uiso   1.00
C859   C     0.13337   0.48904   0.95022   0.00000  Uiso   1.00
C860   C     0.20387   0.50255   0.54790   0.00000  Uiso   1.00
C861   C     0.07151   0.45981   0.96791   0.00000  Uiso   1.00
C862   C     0.26710   0.52849   0.52970   0.00000  Uiso   1.00
C863   C     0.17844   0.50216   0.97652   0.00000  Uiso   1.00
C864   C     0.16005   0.48709   0.52086   0.00000  Uiso   1.00
Cu865  Cu    0.10737   0.49441   0.74517   0.00000  Uiso   1.00
Cu866  Cu    0.22596   0.50559   0.75484   0.00000  Uiso   1.00
H867   H     0.00927   0.41992   0.52480   0.00000  Uiso   1.00
H868   H     0.33232   0.56168   0.97089   0.00000  Uiso   1.00
H869   H     0.13724   0.47960   0.60922   0.00000  Uiso   1.00
H870   H     0.19384   0.52613   0.89122   0.00000  Uiso   1.00
H871   H     0.32504   0.53895   0.62114   0.00000  Uiso   1.00
H872   H     0.00953   0.45103   0.87869   0.00000  Uiso   1.00
H873   H     0.08265   0.44005   0.56862   0.00000  Uiso   1.00
H874   H     0.26016   0.54104   0.92658   0.00000  Uiso   1.00
N875   N     0.31506   0.51401   0.76212   0.00000  Uiso   1.00
N876   N     0.01827   0.48599   0.73788   0.00000  Uiso   1.00
O877   O     0.12815   0.57142   0.74686   0.00000  Uiso   1.00
O878   O     0.20518   0.42858   0.75314   0.00000  Uiso   1.00
O879   O     0.22829   0.58086   0.75503   0.00000  Uiso   1.00
O880   O     0.10504   0.41914   0.74498   0.00000  Uiso   1.00
O881   O     0.08851   0.49263   0.80855   0.00000  Uiso   1.00
O882   O     0.24482   0.50737   0.69146   0.00000  Uiso   1.00
O883   O     0.18866   0.50207   0.81671   0.00000  Uiso   1.00
O884   O     0.14468   0.49793   0.68329   0.00000  Uiso   1.00
O885   O     0.29829   0.42187   0.96112   0.00000  Uiso   1.00
C886   C     0.28058   0.37209   0.94048   0.00000  Uiso   1.00
H887   H     0.27100   0.34169   0.96507   0.00000  Uiso   1.00
H888   H     0.31741   0.36152   0.91191   0.00000  Uiso   1.00
C889   C     0.22014   0.37008   0.92584   0.00000  Uiso   1.00
H890   H     0.18374   0.38144   0.95402   0.00000  Uiso   1.00
H891   H     0.22998   0.39874   0.89981   0.00000  Uiso   1.00
C892   C     0.19444   0.64847   0.90830   0.00000  Uiso   1.00
H893   H     0.18190   0.61958   0.93438   0.00000  Uiso   1.00
H894   H     0.23010   0.63613   0.88015   0.00000  Uiso   1.00
H895   H     0.15137   0.64860   0.89718   0.00000  Uiso   1.00
O896   O     0.04093   0.56451   0.53542   0.00000  Uiso   1.00
C897   C     0.07224   0.60033   0.56330   0.00000  Uiso   1.00
H898   H     0.08973   0.57832   0.58435   0.00000  Uiso   1.00
H899   H     0.04071   0.62526   0.58402   0.00000  Uiso   1.00
C900   C     0.12902   0.63656   0.53524   0.00000  Uiso   1.00
H901   H     0.16127   0.61254   0.51444   0.00000  Uiso   1.00
H902   H     0.11242   0.65832   0.51354   0.00000  Uiso   1.00
C903   C     0.16530   0.34267   0.56351   0.00000  Uiso   1.00
H904   H     0.13393   0.36686   0.58503   0.00000  Uiso   1.00
H905   H     0.20505   0.36932   0.54213   0.00000  Uiso   1.00
H906   H     0.18467   0.65506   0.58410   0.00000  Uiso   1.00
Cl907  Cl    0.23058   0.35340   0.79567   0.00000  Uiso   1.00
Cl908  Cl    0.10396   0.64681   0.70334   0.00000  Uiso   1.00
Cl909  Cl    0.00532   0.55543   0.80354   0.00000  Uiso   1.00
Cl910  Cl    0.32799   0.44457   0.69648   0.00000  Uiso   1.00
C911   C     0.51454   0.59985   0.75173   0.00000  Uiso   1.00
C912   C     0.48556   0.40015   0.74811   0.00000  Uiso   1.00
C913   C     0.43210   0.45627   0.53660   0.00000  Uiso   1.00
C914   C     0.57480   0.52920   0.95989   0.00000  Uiso   1.00
C915   C     0.38890   0.44339   0.51081   0.00000  Uiso   1.00
C916   C     0.61799   0.54144   0.98575   0.00000  Uiso   1.00
C917   C     0.51823   0.65510   0.75835   0.00000  Uiso   1.00
C918   C     0.48213   0.34494   0.74123   0.00000  Uiso   1.00
C919   C     0.46152   0.49591   0.83304   0.00000  Uiso   1.00
C920   C     0.53850   0.50377   0.66692   0.00000  Uiso   1.00
C921   C     0.43846   0.48833   0.88034   0.00000  Uiso   1.00
C922   C     0.56203   0.50877   0.61931   0.00000  Uiso   1.00
C923   C     0.36002   0.44620   0.94215   0.00000  Uiso   1.00
C924   C     0.64508   0.54228   0.55574   0.00000  Uiso   1.00
C925   C     0.37703   0.46152   0.89855   0.00000  Uiso   1.00
C926   C     0.62533   0.53021   0.60048   0.00000  Uiso   1.00
C927   C     0.48161   0.50349   0.90649   0.00000  Uiso   1.00
C928   C     0.51900   0.49480   0.59308   0.00000  Uiso   1.00
C929   C     0.46671   0.48904   0.95022   0.00000  Uiso   1.00
C930   C     0.53720   0.50255   0.54790   0.00000  Uiso   1.00
C931   C     0.40485   0.45981   0.96791   0.00000  Uiso   1.00
C932   C     0.60043   0.52849   0.52970   0.00000  Uiso   1.00
C933   C     0.51177   0.50216   0.97652   0.00000  Uiso   1.00
C934   C     0.49339   0.48709   0.52086   0.00000  Uiso   1.00
Cu935  Cu    0.44071   0.49441   0.74517   0.00000  Uiso   1.00
Cu936  Cu    0.55929   0.50559   0.75484   0.00000  Uiso   1.00
H937   H     0.34261   0.41992   0.52480   0.00000  Uiso   1.00
H938   H     0.66565   0.56168   0.97089   0.00000  Uiso   1.00
H939   H     0.47058   0.47960   0.60922   0.00000  Uiso   1.00
H940   H     0.52717   0.52613   0.89122   0.00000  Uiso   1.00
H941   H     0.65838   0.53895   0.62114   0.00000  Uiso   1.00
H942   H     0.34287   0.45103   0.87869   0.00000  Uiso   1.00
H943   H     0.41599   0.44005   0.56862   0.00000  Uiso   1.00
H944   H     0.59349   0.54104   0.92658   0.00000  Uiso   1.00
N945   N     0.64839   0.51401   0.76212   0.00000  Uiso   1.00
N946   N     0.35161   0.48599   0.73788   0.00000  Uiso   1.00
O947   O     0.46148   0.57142   0.74686   0.00000  Uiso   1.00
O948   O     0.53852   0.42858   0.75314   0.00000  Uiso   1.00
O949   O     0.56163   0.58086   0.75503   0.00000  Uiso   1.00
O950   O     0.43837   0.41914   0.74498   0.00000  Uiso   1.00
O951   O     0.42185   0.49263   0.80855   0.00000  Uiso   1.00
O952   O     0.57815   0.50737   0.69146   0.00000  Uiso   1.00
O953   O     0.52199   0.50207   0.81671   0.00000  Uiso   1.00
O954   O     0.47801   0.49793   0.68329   0.00000  Uiso   1.00
O955   O     0.63162   0.42187   0.96112   0.00000  Uiso   1.00
C956   C     0.61392   0.37209   0.94048   0.00000  Uiso   1.00
H957   H     0.60433   0.34169   0.96507   0.00000  Uiso   1.00
H958   H     0.65074   0.36152   0.91191   0.00000  Uiso   1.00
C959   C     0.55347   0.37008   0.92584   0.00000  Uiso   1.00
H960   H     0.51707   0.38144   0.95402   0.00000  Uiso   1.00
H961   H     0.56331   0.39874   0.89981   0.00000  Uiso   1.00
C962   C     0.52777   0.64847   0.90830   0.00000  Uiso   1.00
H963   H     0.51523   0.61958   0.93438   0.00000  Uiso   1.00
H964   H     0.56343   0.63613   0.88015   0.00000  Uiso   1.00
H965   H     0.48470   0.64860   0.89718   0.00000  Uiso   1.00
O966   O     0.37426   0.56451   0.53542   0.00000  Uiso   1.00
C967   C     0.40557   0.60033   0.56330   0.00000  Uiso   1.00
H968   H     0.42306   0.57832   0.58435   0.00000  Uiso   1.00
H969   H     0.37405   0.62526   0.58402   0.00000  Uiso   1.00
C970   C     0.46235   0.63656   0.53524   0.00000  Uiso   1.00
H971   H     0.49460   0.61254   0.51444   0.00000  Uiso   1.00
H972   H     0.44575   0.65832   0.51354   0.00000  Uiso   1.00
C973   C     0.49863   0.34267   0.56351   0.00000  Uiso   1.00
H974   H     0.46726   0.36686   0.58503   0.00000  Uiso   1.00
H975   H     0.53838   0.36932   0.54213   0.00000  Uiso   1.00
H976   H     0.51800   0.65506   0.58410   0.00000  Uiso   1.00
Cl977  Cl    0.56391   0.35340   0.79567   0.00000  Uiso   1.00
Cl978  Cl    0.43729   0.64681   0.70334   0.00000  Uiso   1.00
Cl979  Cl    0.33866   0.55543   0.80354   0.00000  Uiso   1.00
Cl980  Cl    0.66132   0.44457   0.69648   0.00000  Uiso   1.00
C981   C     0.84787   0.59985   0.75173   0.00000  Uiso   1.00
C982   C     0.81889   0.40015   0.74811   0.00000  Uiso   1.00
C983   C     0.76544   0.45627   0.53660   0.00000  Uiso   1.00
C984   C     0.90813   0.52920   0.95989   0.00000  Uiso   1.00
C985   C     0.72223   0.44339   0.51081   0.00000  Uiso   1.00
C986   C     0.95133   0.54144   0.98575   0.00000  Uiso   1.00
C987   C     0.85157   0.65510   0.75835   0.00000  Uiso   1.00
C988   C     0.81546   0.34494   0.74123   0.00000  Uiso   1.00
C989   C     0.79485   0.49591   0.83304   0.00000  Uiso   1.00
C990   C     0.87183   0.50377   0.66692   0.00000  Uiso   1.00
C991   C     0.77179   0.48833   0.88034   0.00000  Uiso   1.00
C992   C     0.89537   0.50877   0.61931   0.00000  Uiso   1.00
C993   C     0.69335   0.44620   0.94215   0.00000  Uiso   1.00
C994   C     0.97841   0.54228   0.55574   0.00000  Uiso   1.00
C995   C     0.71036   0.46152   0.89855   0.00000  Uiso   1.00
C996   C     0.95867   0.53021   0.60048   0.00000  Uiso   1.00
C997   C     0.81494   0.50349   0.90649   0.00000  Uiso   1.00
C998   C     0.85233   0.49480   0.59308   0.00000  Uiso   1.00
C999   C     0.80004   0.48904   0.95022   0.00000  Uiso   1.00
C1000  C     0.87053   0.50255   0.54790   0.00000  Uiso   1.00
C1001  C     0.73818   0.45981   0.96791   0.00000  Uiso   1.00
C1002  C     0.93376   0.52849   0.52970   0.00000  Uiso   1.00
C1003  C     0.84510   0.50216   0.97652   0.00000  Uiso   1.00
C1004  C     0.82672   0.48709   0.52086   0.00000  Uiso   1.00
Cu1005 Cu    0.77404   0.49441   0.74517   0.00000  Uiso   1.00
Cu1006 Cu    0.89263   0.50559   0.75484   0.00000  Uiso   1.00
H1007  H     0.67594   0.41992   0.52480   0.00000  Uiso   1.00
H1008  H     0.99898   0.56168   0.97089   0.00000  Uiso   1.00
H1009  H     0.80391   0.47960   0.60922   0.00000  Uiso   1.00
H1010  H     0.86051   0.52613   0.89122   0.00000  Uiso   1.00
H1011  H     0.99171   0.53895   0.62114   0.00000  Uiso   1.00
H1012  H     0.67620   0.45103   0.87869   0.00000  Uiso   1.00
H1013  H     0.74932   0.44005   0.56862   0.00000  Uiso   1.00
H1014  H     0.92683   0.54104   0.92658   0.00000  Uiso   1.00
N1015  N     0.98173   0.51401   0.76212   0.00000  Uiso   1.00
N1016  N     0.68494   0.48599   0.73788   0.00000  Uiso   1.00
O1017  O     0.79482   0.57142   0.74686   0.00000  Uiso   1.00
O1018  O     0.87185   0.42858   0.75314   0.00000  Uiso   1.00
O1019  O     0.89496   0.58086   0.75503   0.00000  Uiso   1.00
O1020  O     0.77171   0.41914   0.74498   0.00000  Uiso   1.00
O1021  O     0.75518   0.49263   0.80855   0.00000  Uiso   1.00
O1022  O     0.91149   0.50737   0.69146   0.00000  Uiso   1.00
O1023  O     0.85532   0.50207   0.81671   0.00000  Uiso   1.00
O1024  O     0.81134   0.49793   0.68329   0.00000  Uiso   1.00
O1025  O     0.96496   0.42187   0.96112   0.00000  Uiso   1.00
C1026  C     0.94725   0.37209   0.94048   0.00000  Uiso   1.00
H1027  H     0.93766   0.34169   0.96507   0.00000  Uiso   1.00
H1028  H     0.98408   0.36152   0.91191   0.00000  Uiso   1.00
C1029  C     0.88680   0.37008   0.92584   0.00000  Uiso   1.00
H1030  H     0.85040   0.38144   0.95402   0.00000  Uiso   1.00
H1031  H     0.89665   0.39874   0.89981   0.00000  Uiso   1.00
C1032  C     0.86110   0.64847   0.90830   0.00000  Uiso   1.00
H1033  H     0.84856   0.61958   0.93438   0.00000  Uiso   1.00
H1034  H     0.89677   0.63613   0.88015   0.00000  Uiso   1.00
H1035  H     0.81803   0.64860   0.89718   0.00000  Uiso   1.00
O1036  O     0.70760   0.56451   0.53542   0.00000  Uiso   1.00
C1037  C     0.73890   0.60033   0.56330   0.00000  Uiso   1.00
H1038  H     0.75640   0.57832   0.58435   0.00000  Uiso   1.00
H1039  H     0.70738   0.62526   0.58402   0.00000  Uiso   1.00
C1040  C     0.79569   0.63656   0.53524   0.00000  Uiso   1.00
H1041  H     0.82793   0.61254   0.51444   0.00000  Uiso   1.00
H1042  H     0.77909   0.65832   0.51354   0.00000  Uiso   1.00
C1043  C     0.83196   0.34267   0.56351   0.00000  Uiso   1.00
H1044  H     0.80060   0.36686   0.58503   0.00000  Uiso   1.00
H1045  H     0.87171   0.36932   0.54213   0.00000  Uiso   1.00
H1046  H     0.85133   0.65506   0.58410   0.00000  Uiso   1.00
Cl1047 Cl    0.89725   0.35340   0.79567   0.00000  Uiso   1.00
Cl1048 Cl    0.77063   0.64681   0.70334   0.00000  Uiso   1.00
Cl1049 Cl    0.67199   0.55543   0.80354   0.00000  Uiso   1.00
Cl1050 Cl    0.99466   0.44457   0.69648   0.00000  Uiso   1.00
C1051  C     0.18121   0.93319   0.75173   0.00000  Uiso   1.00
C1052  C     0.15222   0.73348   0.74811   0.00000  Uiso   1.00
C1053  C     0.09877   0.78960   0.53660   0.00000  Uiso   1.00
C1054  C     0.24147   0.86254   0.95989   0.00000  Uiso   1.00
C1055  C     0.05557   0.77672   0.51081   0.00000  Uiso   1.00
C1056  C     0.28466   0.87477   0.98575   0.00000  Uiso   1.00
C1057  C     0.18490   0.98843   0.75835   0.00000  Uiso   1.00
C1058  C     0.14880   0.67827   0.74123   0.00000  Uiso   1.00
C1059  C     0.12819   0.82924   0.83304   0.00000  Uiso   1.00
C1060  C     0.20516   0.83710   0.66692   0.00000  Uiso   1.00
C1061  C     0.10512   0.82166   0.88034   0.00000  Uiso   1.00
C1062  C     0.22870   0.84211   0.61931   0.00000  Uiso   1.00
C1063  C     0.02669   0.77953   0.94215   0.00000  Uiso   1.00
C1064  C     0.31175   0.87561   0.55574   0.00000  Uiso   1.00
C1065  C     0.04370   0.79486   0.89855   0.00000  Uiso   1.00
C1066  C     0.29200   0.86355   0.60048   0.00000  Uiso   1.00
C1067  C     0.14828   0.83683   0.90649   0.00000  Uiso   1.00
C1068  C     0.18566   0.82813   0.59308   0.00000  Uiso   1.00
C1069  C     0.13337   0.82237   0.95022   0.00000  Uiso   1.00
C1070  C     0.20387   0.83588   0.54790   0.00000  Uiso   1.00
C1071  C     0.07151   0.79315   0.96791   0.00000  Uiso   1.00
C1072  C     0.26710   0.86182   0.52970   0.00000  Uiso   1.00
C1073  C     0.17844   0.83549   0.97652   0.00000  Uiso   1.00
C1074  C     0.16005   0.82042   0.52086   0.00000  Uiso   1.00
Cu1075 Cu    0.10737   0.82775   0.74517   0.00000  Uiso   1.00
Cu1076 Cu    0.22596   0.83892   0.75484   0.00000  Uiso   1.00
H1077  H     0.00927   0.75325   0.52480   0.00000  Uiso   1.00
H1078  H     0.33232   0.89501   0.97089   0.00000  Uiso   1.00
H1079  H     0.13724   0.81294   0.60922   0.00000  Uiso   1.00
H1080  H     0.19384   0.85946   0.89122   0.00000  Uiso   1.00
H1081  H     0.32504   0.87228   0.62114   0.00000  Uiso   1.00
H1082  H     0.00953   0.78437   0.87869   0.00000  Uiso   1.00
H1083  H     0.08265   0.77338   0.56862   0.00000  Uiso   1.00
H1084  H     0.26016   0.87437   0.92658   0.00000  Uiso   1.00
N1085  N     0.31506   0.84735   0.76212   0.00000  Uiso   1.00
N1086  N     0.01827   0.81932   0.73788   0.00000  Uiso   1.00
O1087  O     0.12815   0.90476   0.74686   0.00000  Uiso   1.00
O1088  O     0.20518   0.76191   0.75314   0.00000  Uiso   1.00
O1089  O     0.22829   0.91420   0.75503   0.00000  Uiso   1.00
O1090  O     0.10504   0.75247   0.74498   0.00000  Uiso   1.00
O1091  O     0.08851   0.82597   0.80855   0.00000  Uiso   1.00
O1092  O     0.24482   0.84070   0.69146   0.00000  Uiso   1.00
O1093  O     0.18866   0.83540   0.81671   0.00000  Uiso   1.00
O1094  O     0.14468   0.83126   0.68329   0.00000  Uiso   1.00
O1095  O     0.29829   0.75521   0.96112   0.00000  Uiso   1.00
C1096  C     0.28058   0.70543   0.94048   0.00000  Uiso   1.00
H1097  H     0.27100   0.67502   0.96507   0.00000  Uiso   1.00
H1098  H     0.31741   0.69485   0.91191   0.00000  Uiso   1.00
C1099  C     0.22014   0.70342   0.92584   0.00000  Uiso   1.00
H1100  H     0.18374   0.71477   0.95402   0.00000  Uiso   1.00
H1101  H     0.22998   0.73207   0.89981   0.00000  Uiso   1.00
C1102  C     0.19444   0.98181   0.90830   0.00000  Uiso   1.00
H1103  H     0.18190   0.95291   0.93438   0.00000  Uiso   1.00
H1104  H     0.23010   0.96947   0.88015   0.00000  Uiso   1.00
H1105  H     0.15137   0.98194   0.89718   0.00000  Uiso   1.00
O1106  O     0.04093   0.89784   0.53542   0.00000  Uiso   1.00
C1107  C     0.07224   0.93367   0.56330   0.00000  Uiso   1.00
H1108  H     0.08973   0.91166   0.58435   0.00000  Uiso   1.00
H1109  H     0.04071   0.95860   0.58402   0.00000  Uiso   1.00
C1110  C     0.12902   0.96989   0.53524   0.00000  Uiso   1.00
H1111  H     0.16127   0.94587   0.51444   0.00000  Uiso   1.00
H1112  H     0.11242   0.99165   0.51354   0.00000  Uiso   1.00
C1113  C     0.16530   0.67601   0.56351   0.00000  Uiso   1.00
H1114  H     0.13393   0.70019   0.58503   0.00000  Uiso   1.00
H1115  H     0.20505   0.70265   0.54213   0.00000  Uiso   1.00
H1116  H     0.18467   0.98839   0.58410   0.00000  Uiso   1.00
Cl1117 Cl    0.23058   0.68673   0.79567   0.00000  Uiso   1.00
Cl1118 Cl    0.10396   0.98014   0.70334   0.00000  Uiso   1.00
Cl1119 Cl    0.00532   0.88876   0.80354   0.00000  Uiso   1.00
Cl1120 Cl    0.32799   0.77790   0.69648   0.00000  Uiso   1.00
C1121  C     0.51454   0.93319   0.75173   0.00000  Uiso   1.00
C1122  C     0.48556   0.73348   0.74811   0.00000  Uiso   1.00
C1123  C     0.43210   0.78960   0.53660   0.00000  Uiso   1.00
C1124  C     0.57480   0.86254   0.95989   0.00000  Uiso   1.00
C1125  C     0.38890   0.77672   0.51081   0.00000  Uiso   1.00
C1126  C     0.61799   0.87477   0.98575   0.00000  Uiso   1.00
C1127  C     0.51823   0.98843   0.75835   0.00000  Uiso   1.00
C1128  C     0.48213   0.67827   0.74123   0.00000  Uiso   1.00
C1129  C     0.46152   0.82924   0.83304   0.00000  Uiso   1.00
C1130  C     0.53850   0.83710   0.66692   0.00000  Uiso   1.00
C1131  C     0.43846   0.82166   0.88034   0.00000  Uiso   1.00
C1132  C     0.56203   0.84211   0.61931   0.00000  Uiso   1.00
C1133  C     0.36002   0.77953   0.94215   0.00000  Uiso   1.00
C1134  C     0.64508   0.87561   0.55574   0.00000  Uiso   1.00
C1135  C     0.37703   0.79486   0.89855   0.00000  Uiso   1.00
C1136  C     0.62533   0.86355   0.60048   0.00000  Uiso   1.00
C1137  C     0.48161   0.83683   0.90649   0.00000  Uiso   1.00
C1138  C     0.51900   0.82813   0.59308   0.00000  Uiso   1.00
C1139  C     0.46671   0.82237   0.95022   0.00000  Uiso   1.00
C1140  C     0.53720   0.83588   0.54790   0.00000  Uiso   1.00
C1141  C     0.40485   0.79315   0.96791   0.00000  Uiso   1.00
C1142  C     0.60043   0.86182   0.52970   0.00000  Uiso   1.00
C1143  C     0.51177   0.83549   0.97652   0.00000  Uiso   1.00
C1144  C     0.49339   0.82042   0.52086   0.00000  Uiso   1.00
Cu1145 Cu    0.44071   0.82775   0.74517   0.00000  Uiso   1.00
Cu1146 Cu    0.55929   0.83892   0.75484   0.00000  Uiso   1.00
H1147  H     0.34261   0.75325   0.52480   0.00000  Uiso   1.00
H1148  H     0.66565   0.89501   0.97089   0.00000  Uiso   1.00
H1149  H     0.47058   0.81294   0.60922   0.00000  Uiso   1.00
H1150  H     0.52717   0.85946   0.89122   0.00000  Uiso   1.00
H1151  H     0.65838   0.87228   0.62114   0.00000  Uiso   1.00
H1152  H     0.34287   0.78437   0.87869   0.00000  Uiso   1.00
H1153  H     0.41599   0.77338   0.56862   0.00000  Uiso   1.00
H1154  H     0.59349   0.87437   0.92658   0.00000  Uiso   1.00
N1155  N     0.64839   0.84735   0.76212   0.00000  Uiso   1.00
N1156  N     0.35161   0.81932   0.73788   0.00000  Uiso   1.00
O1157  O     0.46148   0.90476   0.74686   0.00000  Uiso   1.00
O1158  O     0.53852   0.76191   0.75314   0.00000  Uiso   1.00
O1159  O     0.56163   0.91420   0.75503   0.00000  Uiso   1.00
O1160  O     0.43837   0.75247   0.74498   0.00000  Uiso   1.00
O1161  O     0.42185   0.82597   0.80855   0.00000  Uiso   1.00
O1162  O     0.57815   0.84070   0.69146   0.00000  Uiso   1.00
O1163  O     0.52199   0.83540   0.81671   0.00000  Uiso   1.00
O1164  O     0.47801   0.83126   0.68329   0.00000  Uiso   1.00
O1165  O     0.63162   0.75521   0.96112   0.00000  Uiso   1.00
C1166  C     0.61392   0.70543   0.94048   0.00000  Uiso   1.00
H1167  H     0.60433   0.67502   0.96507   0.00000  Uiso   1.00
H1168  H     0.65074   0.69485   0.91191   0.00000  Uiso   1.00
C1169  C     0.55347   0.70342   0.92584   0.00000  Uiso   1.00
H1170  H     0.51707   0.71477   0.95402   0.00000  Uiso   1.00
H1171  H     0.56331   0.73207   0.89981   0.00000  Uiso   1.00
C1172  C     0.52777   0.98181   0.90830   0.00000  Uiso   1.00
H1173  H     0.51523   0.95291   0.93438   0.00000  Uiso   1.00
H1174  H     0.56343   0.96947   0.88015   0.00000  Uiso   1.00
H1175  H     0.48470   0.98194   0.89718   0.00000  Uiso   1.00
O1176  O     0.37426   0.89784   0.53542   0.00000  Uiso   1.00
C1177  C     0.40557   0.93367   0.56330   0.00000  Uiso   1.00
H1178  H     0.42306   0.91166   0.58435   0.00000  Uiso   1.00
H1179  H     0.37405   0.95860   0.58402   0.00000  Uiso   1.00
C1180  C     0.46235   0.96989   0.53524   0.00000  Uiso   1.00
H1181  H     0.49460   0.94587   0.51444   0.00000  Uiso   1.00
H1182  H     0.44575   0.99165   0.51354   0.00000  Uiso   1.00
C1183  C     0.49863   0.67601   0.56351   0.00000  Uiso   1.00
H1184  H     0.46726   0.70019   0.58503   0.00000  Uiso   1.00
H1185  H     0.53838   0.70265   0.54213   0.00000  Uiso   1.00
H1186  H     0.51800   0.98839   0.58410   0.00000  Uiso   1.00
Cl1187 Cl    0.56391   0.68673   0.79567   0.00000  Uiso   1.00
Cl1188 Cl    0.43729   0.98014   0.70334   0.00000  Uiso   1.00
Cl1189 Cl    0.33866   0.88876   0.80354   0.00000  Uiso   1.00
Cl1190 Cl    0.66132   0.77790   0.69648   0.00000  Uiso   1.00
C1191  C     0.84787   0.93319   0.75173   0.00000  Uiso   1.00
C1192  C     0.81889   0.73348   0.74811   0.00000  Uiso   1.00
C1193  C     0.76544   0.78960   0.53660   0.00000  Uiso   1.00
C1194  C     0.90813   0.86254   0.95989   0.00000  Uiso   1.00
C1195  C     0.72223   0.77672   0.51081   0.00000  Uiso   1.00
C1196  C     0.95133   0.87477   0.98575   0.00000  Uiso   1.00
C1197  C     0.85157   0.98843   0.75835   0.00000  Uiso   1.00
C1198  C     0.81546   0.67827   0.74123   0.00000  Uiso   1.00
C1199  C     0.79485   0.82924   0.83304   0.00000  Uiso   1.00
C1200  C     0.87183   0.83710   0.66692   0.00000  Uiso   1.00
C1201  C     0.77179   0.82166   0.88034   0.00000  Uiso   1.00
C1202  C     0.89537   0.84211   0.61931   0.00000  Uiso   1.00
C1203  C     0.69335   0.77953   0.94215   0.00000  Uiso   1.00
C1204  C     0.97841   0.87561   0.55574   0.00000  Uiso   1.00
C1205  C     0.71036   0.79486   0.89855   0.00000  Uiso   1.00
C1206  C     0.95867   0.86355   0.60048   0.00000  Uiso   1.00
C1207  C     0.81494   0.83683   0.90649   0.00000  Uiso   1.00
C1208  C     0.85233   0.82813   0.59308   0.00000  Uiso   1.00
C1209  C     0.80004   0.82237   0.95022   0.00000  Uiso   1.00
C1210  C     0.87053   0.83588   0.54790   0.00000  Uiso   1.00
C1211  C     0.73818   0.79315   0.96791   0.00000  Uiso   1.00
C1212  C     0.93376   0.86182   0.52970   0.00000  Uiso   1.00
C1213  C     0.84510   0.83549   0.97652   0.00000  Uiso   1.00
C1214  C     0.82672   0.82042   0.52086   0.00000  Uiso   1.00
Cu1215 Cu    0.77404   0.82775   0.74517   0.00000  Uiso   1.00
Cu1216 Cu    0.89263   0.83892   0.75484   0.00000  Uiso   1.00
H1217  H     0.67594   0.75325   0.52480   0.00000  Uiso   1.00
H1218  H     0.99898   0.89501   0.97089   0.00000  Uiso   1.00
H1219  H     0.80391   0.81294   0.60922   0.00000  Uiso   1.00
H1220  H     0.86051   0.85946   0.89122   0.00000  Uiso   1.00
H1221  H     0.99171   0.87228   0.62114   0.00000  Uiso   1.00
H1222  H     0.67620   0.78437   0.87869   0.00000  Uiso   1.00
H1223  H     0.74932   0.77338   0.56862   0.00000  Uiso   1.00
H1224  H     0.92683   0.87437   0.92658   0.00000  Uiso   1.00
N1225  N     0.98173   0.84735   0.76212   0.00000  Uiso   1.00
N1226  N     0.68494   0.81932   0.73788   0.00000  Uiso   1.00
O1227  O     0.79482   0.90476   0.74686   0.00000  Uiso   1.00
O1228  O     0.87185   0.76191   0.75314   0.00000  Uiso   1.00
O1229  O     0.89496   0.91420   0.75503   0.00000  Uiso   1.00
O1230  O     0.77171   0.75247   0.74498   0.00000  Uiso   1.00
O1231  O     0.75518   0.82597   0.80855   0.00000  Uiso   1.00
O1232  O     0.91149   0.84070   0.69146   0.00000  Uiso   1.00
O1233  O     0.85532   0.83540   0.81671   0.00000  Uiso   1.00
O1234  O     0.81134   0.83126   0.68329   0.00000  Uiso   1.00
O1235  O     0.96496   0.75521   0.96112   0.00000  Uiso   1.00
C1236  C     0.94725   0.70543   0.94048   0.00000  Uiso   1.00
H1237  H     0.93766   0.67502   0.96507   0.00000  Uiso   1.00
H1238  H     0.98408   0.69485   0.91191   0.00000  Uiso   1.00
C1239  C     0.88680   0.70342   0.92584   0.00000  Uiso   1.00
H1240  H     0.85040   0.71477   0.95402   0.00000  Uiso   1.00
H1241  H     0.89665   0.73207   0.89981   0.00000  Uiso   1.00
C1242  C     0.86110   0.98181   0.90830   0.00000  Uiso   1.00
H1243  H     0.84856   0.95291   0.93438   0.00000  Uiso   1.00
H1244  H     0.89677   0.96947   0.88015   0.00000  Uiso   1.00
H1245  H     0.81803   0.98194   0.89718   0.00000  Uiso   1.00
O1246  O     0.70760   0.89784   0.53542   0.00000  Uiso   1.00
C1247  C     0.73890   0.93367   0.56330   0.00000  Uiso   1.00
H1248  H     0.75640   0.91166   0.58435   0.00000  Uiso   1.00
H1249  H     0.70738   0.95860   0.58402   0.00000  Uiso   1.00
C1250  C     0.79569   0.96989   0.53524   0.00000  Uiso   1.00
H1251  H     0.82793   0.94587   0.51444   0.00000  Uiso   1.00
H1252  H     0.77909   0.99165   0.51354   0.00000  Uiso   1.00
C1253  C     0.83196   0.67601   0.56351   0.00000  Uiso   1.00
H1254  H     0.80060   0.70019   0.58503   0.00000  Uiso   1.00
H1255  H     0.87171   0.70265   0.54213   0.00000  Uiso   1.00
H1256  H     0.85133   0.98839   0.58410   0.00000  Uiso   1.00
Cl1257 Cl    0.89725   0.68673   0.79567   0.00000  Uiso   1.00
Cl1258 Cl    0.77063   0.98014   0.70334   0.00000  Uiso   1.00
Cl1259 Cl    0.67199   0.88876   0.80354   0.00000  Uiso   1.00
Cl1260 Cl    0.99466   0.77790   0.69648   0.00000  Uiso   1.00
loop_
_geom_bond_atom_site_label_1
_geom_bond_atom_site_label_2
_geom_bond_distance
_geom_bond_site_symmetry_2
_ccdc_geom_bond_type
C1     O37     1.288   .     A
C1     C7      1.425   .     S
C1     O39     1.296   .     A
C2     O38     1.287   .     A
C2     O40     1.297   .     A
C2     C8      1.425   .     S
C3     C5      1.385   .     A
C3     C24     1.416   .     A
C3     H33     1.076   .     S
C4     C6      1.386   .     A
C4     H34     1.075   .     S
C4     C23     1.417   .     A
C5     H27     1.084   .     S
C5     C651    1.393   1_554 S
C6     H28     1.084   .     S
C6     C652    1.395   .     S
C7     C218    1.352   .     S
C7     Cl277   1.779   .     S
C8     C427    1.352   1_545 S
C8     Cl488   1.779   1_545 S
C9     O41     1.305   .     A
C9     C11     1.467   .     S
C9     O43     1.300   .     A
C10    O42     1.304   .     A
C10    C12     1.469   .     S
C10    O44     1.301   .     A
C11    C15     1.396   .     A
C11    C17     1.395   .     A
C12    C18     1.393   .     A
C12    C16     1.397   .     A
C13    C21     1.414   .     A
C13    C15     1.403   .     A
C13    O185    1.388   1_455 S
C14    C16     1.412   .     A
C14    C22     1.417   .     A
C14    O126    1.398   .     S
C15    H32     1.083   .     S
C16    H31     1.081   .     S
C17    H30     1.073   .     S
C17    C19     1.403   .     A
C18    H29     1.075   .     S
C18    C20     1.401   .     A
C19    C23     1.430   .     A
C19    C21     1.421   .     A
C20    C22     1.421   .     A
C20    C24     1.428   .     A
C21    C635    1.393   .     S
C22    C636    1.395   1_554 S
C23    C654    1.422   .     S
C24    C653    1.422   1_554 S
Cu25   O37     1.957   .     S
Cu25   O44     1.921   .     S
Cu25   O40     1.955   .     S
Cu25   N36     2.030   .     S
Cu25   O41     1.940   .     S
Cu25   Cu26    2.702   .     S
Cu26   O42     1.940   .     S
Cu26   O43     1.921   .     S
Cu26   O39     1.955   .     S
Cu26   N35     2.030   .     S
Cu26   O38     1.957   .     S
N35    N106    1.281   .     S
N35    Cl139   1.727   .     S
N36    N175    1.281   1_455 S
N36    Cl210   1.726   1_455 S
O45    C46     1.417   .     S
O45    C83     1.388   .     S
C46    C49     1.530   .     S
C46    H48     1.117   .     S
C46    H47     1.112   .     S
C49    H50     1.111   .     S
C49    H51     1.111   .     S
C49    C472    1.527   1_545 S
C52    H55     1.110   .     S
C52    H53     1.110   .     S
C52    H54     1.111   .     S
C52    C259    1.527   .     S
O56    C57     1.415   .     S
O56    C154    1.398   1_455 S
C57    H58     1.113   .     S
C57    H59     1.116   .     S
C57    C60     1.528   .     S
C60    H62     1.111   .     S
C60    H61     1.111   .     S
C60    C273    1.527   .     S
C63    H65     1.110   .     S
C63    H64     1.111   .     S
C63    C480    1.527   1_545 S
C63    H486    1.111   1_545 S
H66    C273    1.111   .     S
Cl67   C427    1.779   1_545 S
Cl68   C218    1.779   .     S
Cl69   N175    1.727   1_455 S
Cl70   N106    1.726   .     S
C71    O107    1.288   .     A
C71    C77     1.425   .     S
C71    O109    1.296   .     A
C72    O108    1.287   .     A
C72    O110    1.297   .     A
C72    C78     1.425   .     S
C73    C75     1.385   .     A
C73    C94     1.416   .     A
C73    H103    1.076   .     S
C74    C76     1.386   .     A
C74    H104    1.075   .     S
C74    C93     1.417   .     A
C75    H97     1.084   .     S
C75    C721    1.393   1_554 S
C76    H98     1.084   .     S
C76    C722    1.395   .     S
C77    C288    1.352   .     S
C77    Cl347   1.779   .     S
C78    C497    1.352   1_545 S
C78    Cl558   1.779   1_545 S
C79    O111    1.305   .     A
C79    C81     1.467   .     S
C79    O113    1.300   .     A
C80    O112    1.304   .     A
C80    C82     1.469   .     S
C80    O114    1.301   .     A
C81    C85     1.396   .     A
C81    C87     1.395   .     A
C82    C88     1.393   .     A
C82    C86     1.397   .     A
C83    C91     1.414   .     A
C83    C85     1.403   .     A
C84    C86     1.412   .     A
C84    C92     1.417   .     A
C84    O196    1.398   .     S
C85    H102    1.083   .     S
C86    H101    1.081   .     S
C87    H100    1.073   .     S
C87    C89     1.403   .     A
C88    H99     1.075   .     S
C88    C90     1.401   .     A
C89    C93     1.430   .     A
C89    C91     1.421   .     A
C90    C92     1.421   .     A
C90    C94     1.428   .     A
C91    C705    1.393   .     S
C92    C706    1.395   1_554 S
C93    C724    1.422   .     S
C94    C723    1.422   1_554 S
Cu95   O107    1.957   .     S
Cu95   O114    1.921   .     S
Cu95   O110    1.955   .     S
Cu95   N106    2.030   .     S
Cu95   O111    1.940   .     S
Cu95   Cu96    2.702   .     S
Cu96   O112    1.940   .     S
Cu96   O113    1.921   .     S
Cu96   O109    1.955   .     S
Cu96   N105    2.030   .     S
Cu96   O108    1.957   .     S
N105   N176    1.281   .     S
N105   Cl209   1.727   .     S
O115   C116    1.417   .     S
O115   C153    1.388   .     S
C116   C119    1.530   .     S
C116   H118    1.117   .     S
C116   H117    1.112   .     S
C119   H120    1.111   .     S
C119   H121    1.111   .     S
C119   C542    1.527   1_545 S
C122   H125    1.110   .     S
C122   H123    1.110   .     S
C122   H124    1.111   .     S
C122   C329    1.527   .     S
O126   C127    1.415   .     S
C127   H128    1.113   .     S
C127   H129    1.116   .     S
C127   C130    1.528   .     S
C130   H132    1.111   .     S
C130   H131    1.111   .     S
C130   C343    1.527   .     S
C133   H135    1.110   .     S
C133   H134    1.111   .     S
C133   C550    1.527   1_545 S
C133   H556    1.111   1_545 S
H136   C343    1.111   .     S
Cl137  C497    1.779   1_545 S
Cl138  C288    1.779   .     S
Cl140  N176    1.726   .     S
C141   O177    1.288   .     A
C141   C147    1.425   .     S
C141   O179    1.296   .     A
C142   O178    1.287   .     A
C142   O180    1.297   .     A
C142   C148    1.425   .     S
C143   C145    1.385   .     A
C143   C164    1.416   .     A
C143   H173    1.076   .     S
C144   C146    1.386   .     A
C144   H174    1.075   .     S
C144   C163    1.417   .     A
C145   H167    1.084   .     S
C145   C791    1.393   1_554 S
C146   H168    1.084   .     S
C146   C792    1.395   .     S
C147   C358    1.352   .     S
C147   Cl417   1.779   .     S
C148   C567    1.352   1_545 S
C148   Cl628   1.779   1_545 S
C149   O181    1.305   .     A
C149   C151    1.467   .     S
C149   O183    1.300   .     A
C150   O182    1.304   .     A
C150   C152    1.469   .     S
C150   O184    1.301   .     A
C151   C155    1.396   .     A
C151   C157    1.395   .     A
C152   C158    1.393   .     A
C152   C156    1.397   .     A
C153   C161    1.414   .     A
C153   C155    1.403   .     A
C154   C156    1.412   .     A
C154   C162    1.417   .     A
C154   O56     1.398   1_655 S
C155   H172    1.083   .     S
C156   H171    1.081   .     S
C157   H170    1.073   .     S
C157   C159    1.403   .     A
C158   H169    1.075   .     S
C158   C160    1.401   .     A
C159   C163    1.430   .     A
C159   C161    1.421   .     A
C160   C162    1.421   .     A
C160   C164    1.428   .     A
C161   C775    1.393   .     S
C162   C776    1.395   1_554 S
C163   C794    1.422   .     S
C164   C793    1.422   1_554 S
Cu165  O177    1.957   .     S
Cu165  O184    1.921   .     S
Cu165  O180    1.955   .     S
Cu165  N176    2.030   .     S
Cu165  O181    1.940   .     S
Cu165  Cu166   2.702   .     S
Cu166  O182    1.940   .     S
Cu166  O183    1.921   .     S
Cu166  O179    1.955   .     S
Cu166  N175    2.030   .     S
Cu166  O178    1.957   .     S
N175   N36     1.281   1_655 S
N175   Cl69    1.727   1_655 S
O185   C186    1.417   .     S
O185   C13     1.388   1_655 S
C186   C189    1.530   .     S
C186   H188    1.117   .     S
C186   H187    1.112   .     S
C189   H190    1.111   .     S
C189   H191    1.111   .     S
C189   C612    1.527   1_545 S
C192   H195    1.110   .     S
C192   H193    1.110   .     S
C192   H194    1.111   .     S
C192   C399    1.527   .     S
O196   C197    1.415   .     S
C197   H198    1.113   .     S
C197   H199    1.116   .     S
C197   C200    1.528   .     S
C200   H202    1.111   .     S
C200   H201    1.111   .     S
C200   C413    1.527   .     S
C203   H205    1.110   .     S
C203   H204    1.111   .     S
C203   C620    1.527   1_545 S
C203   H626    1.111   1_545 S
H206   C413    1.111   .     S
Cl207  C567    1.779   1_545 S
Cl208  C358    1.779   .     S
Cl210  N36     1.726   1_655 S
C211   O247    1.288   .     A
C211   C217    1.425   .     S
C211   O249    1.296   .     A
C212   O248    1.287   .     A
C212   O250    1.297   .     A
C212   C218    1.425   .     S
C213   C215    1.385   .     A
C213   C234    1.416   .     A
C213   H243    1.076   .     S
C214   C216    1.386   .     A
C214   H244    1.075   .     S
C214   C233    1.417   .     A
C215   H237    1.084   .     S
C215   C861    1.393   1_554 S
C216   H238    1.084   .     S
C216   C862    1.395   .     S
C217   C428    1.352   .     S
C217   Cl487   1.779   .     S
C219   O251    1.305   .     A
C219   C221    1.467   .     S
C219   O253    1.300   .     A
C220   O252    1.304   .     A
C220   C222    1.469   .     S
C220   O254    1.301   .     A
C221   C225    1.396   .     A
C221   C227    1.395   .     A
C222   C228    1.393   .     A
C222   C226    1.397   .     A
C223   C231    1.414   .     A
C223   C225    1.403   .     A
C223   O395    1.388   1_455 S
C224   C226    1.412   .     A
C224   C232    1.417   .     A
C224   O336    1.398   .     S
C225   H242    1.083   .     S
C226   H241    1.081   .     S
C227   H240    1.073   .     S
C227   C229    1.403   .     A
C228   H239    1.075   .     S
C228   C230    1.401   .     A
C229   C233    1.430   .     A
C229   C231    1.421   .     A
C230   C232    1.421   .     A
C230   C234    1.428   .     A
C231   C845    1.393   .     S
C232   C846    1.395   1_554 S
C233   C864    1.422   .     S
C234   C863    1.422   1_554 S
Cu235  O247    1.957   .     S
Cu235  O254    1.921   .     S
Cu235  O250    1.955   .     S
Cu235  N246    2.030   .     S
Cu235  O251    1.940   .     S
Cu235  Cu236   2.702   .     S
Cu236  O252    1.940   .     S
Cu236  O253    1.921   .     S
Cu236  O249    1.955   .     S
Cu236  N245    2.030   .     S
Cu236  O248    1.957   .     S
N245   N316    1.281   .     S
N245   Cl349   1.727   .     S
N246   N385    1.281   1_455 S
N246   Cl420   1.726   1_455 S
O255   C256    1.417   .     S
O255   C293    1.388   .     S
C256   C259    1.530   .     S
C256   H258    1.117   .     S
C256   H257    1.112   .     S
C259   H260    1.111   .     S
C259   H261    1.111   .     S
C262   H265    1.110   .     S
C262   H263    1.110   .     S
C262   H264    1.111   .     S
C262   C469    1.527   .     S
O266   C267    1.415   .     S
O266   C364    1.398   1_455 S
C267   H268    1.113   .     S
C267   H269    1.116   .     S
C267   C270    1.528   .     S
C270   H272    1.111   .     S
C270   H271    1.111   .     S
C270   C483    1.527   .     S
C273   H275    1.110   .     S
C273   H274    1.111   .     S
H276   C483    1.111   .     S
Cl278  C428    1.779   .     S
Cl279  N385    1.727   1_455 S
Cl280  N316    1.726   .     S
C281   O317    1.288   .     A
C281   C287    1.425   .     S
C281   O319    1.296   .     A
C282   O318    1.287   .     A
C282   O320    1.297   .     A
C282   C288    1.425   .     S
C283   C285    1.385   .     A
C283   C304    1.416   .     A
C283   H313    1.076   .     S
C284   C286    1.386   .     A
C284   H314    1.075   .     S
C284   C303    1.417   .     A
C285   H307    1.084   .     S
C285   C931    1.393   1_554 S
C286   H308    1.084   .     S
C286   C932    1.395   .     S
C287   C498    1.352   .     S
C287   Cl557   1.779   .     S
C289   O321    1.305   .     A
C289   C291    1.467   .     S
C289   O323    1.300   .     A
C290   O322    1.304   .     A
C290   C292    1.469   .     S
C290   O324    1.301   .     A
C291   C295    1.396   .     A
C291   C297    1.395   .     A
C292   C298    1.393   .     A
C292   C296    1.397   .     A
C293   C301    1.414   .     A
C293   C295    1.403   .     A
C294   C296    1.412   .     A
C294   C302    1.417   .     A
C294   O406    1.398   .     S
C295   H312    1.083   .     S
C296   H311    1.081   .     S
C297   H310    1.073   .     S
C297   C299    1.403   .     A
C298   H309    1.075   .     S
C298   C300    1.401   .     A
C299   C303    1.430   .     A
C299   C301    1.421   .     A
C300   C302    1.421   .     A
C300   C304    1.428   .     A
C301   C915    1.393   .     S
C302   C916    1.395   1_554 S
C303   C934    1.422   .     S
C304   C933    1.422   1_554 S
Cu305  O317    1.957   .     S
Cu305  O324    1.921   .     S
Cu305  O320    1.955   .     S
Cu305  N316    2.030   .     S
Cu305  O321    1.940   .     S
Cu305  Cu306   2.702   .     S
Cu306  O322    1.940   .     S
Cu306  O323    1.921   .     S
Cu306  O319    1.955   .     S
Cu306  N315    2.030   .     S
Cu306  O318    1.957   .     S
N315   N386    1.281   .     S
N315   Cl419   1.727   .     S
O325   C326    1.417   .     S
O325   C363    1.388   .     S
C326   C329    1.530   .     S
C326   H328    1.117   .     S
C326   H327    1.112   .     S
C329   H330    1.111   .     S
C329   H331    1.111   .     S
C332   H335    1.110   .     S
C332   H333    1.110   .     S
C332   H334    1.111   .     S
C332   C539    1.527   .     S
O336   C337    1.415   .     S
C337   H338    1.113   .     S
C337   H339    1.116   .     S
C337   C340    1.528   .     S
C340   H342    1.111   .     S
C340   H341    1.111   .     S
C340   C553    1.527   .     S
C343   H345    1.110   .     S
C343   H344    1.111   .     S
H346   C553    1.111   .     S
Cl348  C498    1.779   .     S
Cl350  N386    1.726   .     S
C351   O387    1.288   .     A
C351   C357    1.425   .     S
C351   O389    1.296   .     A
C352   O388    1.287   .     A
C352   O390    1.297   .     A
C352   C358    1.425   .     S
C353   C355    1.385   .     A
C353   C374    1.416   .     A
C353   H383    1.076   .     S
C354   C356    1.386   .     A
C354   H384    1.075   .     S
C354   C373    1.417   .     A
C355   H377    1.084   .     S
C355   C1001   1.393   1_554 S
C356   H378    1.084   .     S
C356   C1002   1.395   .     S
C357   C568    1.352   .     S
C357   Cl627   1.779   .     S
C359   O391    1.305   .     A
C359   C361    1.467   .     S
C359   O393    1.300   .     A
C360   O392    1.304   .     A
C360   C362    1.469   .     S
C360   O394    1.301   .     A
C361   C365    1.396   .     A
C361   C367    1.395   .     A
C362   C368    1.393   .     A
C362   C366    1.397   .     A
C363   C371    1.414   .     A
C363   C365    1.403   .     A
C364   C366    1.412   .     A
C364   C372    1.417   .     A
C364   O266    1.398   1_655 S
C365   H382    1.083   .     S
C366   H381    1.081   .     S
C367   H380    1.073   .     S
C367   C369    1.403   .     A
C368   H379    1.075   .     S
C368   C370    1.401   .     A
C369   C373    1.430   .     A
C369   C371    1.421   .     A
C370   C372    1.421   .     A
C370   C374    1.428   .     A
C371   C985    1.393   .     S
C372   C986    1.395   1_554 S
C373   C1004   1.422   .     S
C374   C1003   1.422   1_554 S
Cu375  O387    1.957   .     S
Cu375  O394    1.921   .     S
Cu375  O390    1.955   .     S
Cu375  N386    2.030   .     S
Cu375  O391    1.940   .     S
Cu375  Cu376   2.702   .     S
Cu376  O392    1.940   .     S
Cu376  O393    1.921   .     S
Cu376  O389    1.955   .     S
Cu376  N385    2.030   .     S
Cu376  O388    1.957   .     S
N385   N246    1.281   1_655 S
N385   Cl279   1.727   1_655 S
O395   C396    1.417   .     S
O395   C223    1.388   1_655 S
C396   C399    1.530   .     S
C396   H398    1.117   .     S
C396   H397    1.112   .     S
C399   H400    1.111   .     S
C399   H401    1.111   .     S
C402   H405    1.110   .     S
C402   H403    1.110   .     S
C402   H404    1.111   .     S
C402   C609    1.527   .     S
O406   C407    1.415   .     S
C407   H408    1.113   .     S
C407   H409    1.116   .     S
C407   C410    1.528   .     S
C410   H412    1.111   .     S
C410   H411    1.111   .     S
C410   C623    1.527   .     S
C413   H415    1.110   .     S
C413   H414    1.111   .     S
H416   C623    1.111   .     S
Cl418  C568    1.779   .     S
Cl420  N246    1.726   1_655 S
C421   O457    1.288   .     A
C421   C427    1.425   .     S
C421   O459    1.296   .     A
C422   O458    1.287   .     A
C422   O460    1.297   .     A
C422   C428    1.425   .     S
C423   C425    1.385   .     A
C423   C444    1.416   .     A
C423   H453    1.076   .     S
C424   C426    1.386   .     A
C424   H454    1.075   .     S
C424   C443    1.417   .     A
C425   H447    1.084   .     S
C425   C1071   1.393   1_554 S
C426   H448    1.084   .     S
C426   C1072   1.395   .     S
C427   C8      1.352   1_565 S
C427   Cl67    1.779   1_565 S
C429   O461    1.305   .     A
C429   C431    1.467   .     S
C429   O463    1.300   .     A
C430   O462    1.304   .     A
C430   C432    1.469   .     S
C430   O464    1.301   .     A
C431   C435    1.396   .     A
C431   C437    1.395   .     A
C432   C438    1.393   .     A
C432   C436    1.397   .     A
C433   C441    1.414   .     A
C433   C435    1.403   .     A
C433   O605    1.388   1_455 S
C434   C436    1.412   .     A
C434   C442    1.417   .     A
C434   O546    1.398   .     S
C435   H452    1.083   .     S
C436   H451    1.081   .     S
C437   H450    1.073   .     S
C437   C439    1.403   .     A
C438   H449    1.075   .     S
C438   C440    1.401   .     A
C439   C443    1.430   .     A
C439   C441    1.421   .     A
C440   C442    1.421   .     A
C440   C444    1.428   .     A
C441   C1055   1.393   .     S
C442   C1056   1.395   1_554 S
C443   C1074   1.422   .     S
C444   C1073   1.422   1_554 S
Cu445  O457    1.957   .     S
Cu445  O464    1.921   .     S
Cu445  O460    1.955   .     S
Cu445  N456    2.030   .     S
Cu445  O461    1.940   .     S
Cu445  Cu446   2.702   .     S
Cu446  O462    1.940   .     S
Cu446  O463    1.921   .     S
Cu446  O459    1.955   .     S
Cu446  N455    2.030   .     S
Cu446  O458    1.957   .     S
N455   N526    1.281   .     S
N455   Cl559   1.727   .     S
N456   N595    1.281   1_455 S
N456   Cl630   1.726   1_455 S
O465   C466    1.417   .     S
O465   C503    1.388   .     S
C466   C469    1.530   .     S
C466   H468    1.117   .     S
C466   H467    1.112   .     S
C469   H470    1.111   .     S
C469   H471    1.111   .     S
C472   H475    1.110   .     S
C472   H473    1.110   .     S
C472   H474    1.111   .     S
C472   C49     1.527   1_565 S
O476   C477    1.415   .     S
O476   C574    1.398   1_455 S
C477   H478    1.113   .     S
C477   H479    1.116   .     S
C477   C480    1.528   .     S
C480   H482    1.111   .     S
C480   H481    1.111   .     S
C480   C63     1.527   1_565 S
C483   H485    1.110   .     S
C483   H484    1.111   .     S
H486   C63     1.111   1_565 S
Cl488  C8      1.779   1_565 S
Cl489  N595    1.727   1_455 S
Cl490  N526    1.726   .     S
C491   O527    1.288   .     A
C491   C497    1.425   .     S
C491   O529    1.296   .     A
C492   O528    1.287   .     A
C492   O530    1.297   .     A
C492   C498    1.425   .     S
C493   C495    1.385   .     A
C493   C514    1.416   .     A
C493   H523    1.076   .     S
C494   C496    1.386   .     A
C494   H524    1.075   .     S
C494   C513    1.417   .     A
C495   H517    1.084   .     S
C495   C1141   1.393   1_554 S
C496   H518    1.084   .     S
C496   C1142   1.395   .     S
C497   C78     1.352   1_565 S
C497   Cl137   1.779   1_565 S
C499   O531    1.305   .     A
C499   C501    1.467   .     S
C499   O533    1.300   .     A
C500   O532    1.304   .     A
C500   C502    1.469   .     S
C500   O534    1.301   .     A
C501   C505    1.396   .     A
C501   C507    1.395   .     A
C502   C508    1.393   .     A
C502   C506    1.397   .     A
C503   C511    1.414   .     A
C503   C505    1.403   .     A
C504   C506    1.412   .     A
C504   C512    1.417   .     A
C504   O616    1.398   .     S
C505   H522    1.083   .     S
C506   H521    1.081   .     S
C507   H520    1.073   .     S
C507   C509    1.403   .     A
C508   H519    1.075   .     S
C508   C510    1.401   .     A
C509   C513    1.430   .     A
C509   C511    1.421   .     A
C510   C512    1.421   .     A
C510   C514    1.428   .     A
C511   C1125   1.393   .     S
C512   C1126   1.395   1_554 S
C513   C1144   1.422   .     S
C514   C1143   1.422   1_554 S
Cu515  O527    1.957   .     S
Cu515  O534    1.921   .     S
Cu515  O530    1.955   .     S
Cu515  N526    2.030   .     S
Cu515  O531    1.940   .     S
Cu515  Cu516   2.702   .     S
Cu516  O532    1.940   .     S
Cu516  O533    1.921   .     S
Cu516  O529    1.955   .     S
Cu516  N525    2.030   .     S
Cu516  O528    1.957   .     S
N525   N596    1.281   .     S
N525   Cl629   1.727   .     S
O535   C536    1.417   .     S
O535   C573    1.388   .     S
C536   C539    1.530   .     S
C536   H538    1.117   .     S
C536   H537    1.112   .     S
C539   H540    1.111   .     S
C539   H541    1.111   .     S
C542   H545    1.110   .     S
C542   H543    1.110   .     S
C542   H544    1.111   .     S
C542   C119    1.527   1_565 S
O546   C547    1.415   .     S
C547   H548    1.113   .     S
C547   H549    1.116   .     S
C547   C550    1.528   .     S
C550   H552    1.111   .     S
C550   H551    1.111   .     S
C550   C133    1.527   1_565 S
C553   H555    1.110   .     S
C553   H554    1.111   .     S
H556   C133    1.111   1_565 S
Cl558  C78     1.779   1_565 S
Cl560  N596    1.726   .     S
C561   O597    1.288   .     A
C561   C567    1.425   .     S
C561   O599    1.296   .     A
C562   O598    1.287   .     A
C562   O600    1.297   .     A
C562   C568    1.425   .     S
C563   C565    1.385   .     A
C563   C584    1.416   .     A
C563   H593    1.076   .     S
C564   C566    1.386   .     A
C564   H594    1.075   .     S
C564   C583    1.417   .     A
C565   H587    1.084   .     S
C565   C1211   1.393   1_554 S
C566   H588    1.084   .     S
C566   C1212   1.395   .     S
C567   C148    1.352   1_565 S
C567   Cl207   1.779   1_565 S
C569   O601    1.305   .     A
C569   C571    1.467   .     S
C569   O603    1.300   .     A
C570   O602    1.304   .     A
C570   C572    1.469   .     S
C570   O604    1.301   .     A
C571   C575    1.396   .     A
C571   C577    1.395   .     A
C572   C578    1.393   .     A
C572   C576    1.397   .     A
C573   C581    1.414   .     A
C573   C575    1.403   .     A
C574   C576    1.412   .     A
C574   C582    1.417   .     A
C574   O476    1.398   1_655 S
C575   H592    1.083   .     S
C576   H591    1.081   .     S
C577   H590    1.073   .     S
C577   C579    1.403   .     A
C578   H589    1.075   .     S
C578   C580    1.401   .     A
C579   C583    1.430   .     A
C579   C581    1.421   .     A
C580   C582    1.421   .     A
C580   C584    1.428   .     A
C581   C1195   1.393   .     S
C582   C1196   1.395   1_554 S
C583   C1214   1.422   .     S
C584   C1213   1.422   1_554 S
Cu585  O597    1.957   .     S
Cu585  O604    1.921   .     S
Cu585  O600    1.955   .     S
Cu585  N596    2.030   .     S
Cu585  O601    1.940   .     S
Cu585  Cu586   2.702   .     S
Cu586  O602    1.940   .     S
Cu586  O603    1.921   .     S
Cu586  O599    1.955   .     S
Cu586  N595    2.030   .     S
Cu586  O598    1.957   .     S
N595   N456    1.281   1_655 S
N595   Cl489   1.727   1_655 S
O605   C606    1.417   .     S
O605   C433    1.388   1_655 S
C606   C609    1.530   .     S
C606   H608    1.117   .     S
C606   H607    1.112   .     S
C609   H610    1.111   .     S
C609   H611    1.111   .     S
C612   H615    1.110   .     S
C612   H613    1.110   .     S
C612   H614    1.111   .     S
C612   C189    1.527   1_565 S
O616   C617    1.415   .     S
C617   H618    1.113   .     S
C617   H619    1.116   .     S
C617   C620    1.528   .     S
C620   H622    1.111   .     S
C620   H621    1.111   .     S
C620   C203    1.527   1_565 S
C623   H625    1.110   .     S
C623   H624    1.111   .     S
H626   C203    1.111   1_565 S
Cl628  C148    1.779   1_565 S
Cl630  N456    1.726   1_655 S
C631   O667    1.288   .     A
C631   C637    1.425   .     S
C631   O669    1.296   .     A
C632   O668    1.287   .     A
C632   O670    1.297   .     A
C632   C638    1.425   .     S
C633   C635    1.385   .     A
C633   C654    1.416   .     A
C633   H663    1.076   .     S
C634   C636    1.386   .     A
C634   H664    1.075   .     S
C634   C653    1.417   .     A
C635   H657    1.084   .     S
C636   H658    1.084   .     S
C636   C22     1.395   1_556 S
C637   C848    1.352   .     S
C637   Cl907   1.779   .     S
C638   C1057   1.352   1_545 S
C638   Cl1118  1.779   1_545 S
C639   O671    1.305   .     A
C639   C641    1.467   .     S
C639   O673    1.300   .     A
C640   O672    1.304   .     A
C640   C642    1.469   .     S
C640   O674    1.301   .     A
C641   C645    1.396   .     A
C641   C647    1.395   .     A
C642   C648    1.393   .     A
C642   C646    1.397   .     A
C643   C651    1.414   .     A
C643   C645    1.403   .     A
C643   O815    1.388   1_455 S
C644   C646    1.412   .     A
C644   C652    1.417   .     A
C644   O756    1.398   .     S
C645   H662    1.083   .     S
C646   H661    1.081   .     S
C647   H660    1.073   .     S
C647   C649    1.403   .     A
C648   H659    1.075   .     S
C648   C650    1.401   .     A
C649   C653    1.430   .     A
C649   C651    1.421   .     A
C650   C652    1.421   .     A
C650   C654    1.428   .     A
C651   C5      1.393   1_556 S
C653   C24     1.422   1_556 S
Cu655  O667    1.957   .     S
Cu655  O674    1.921   .     S
Cu655  O670    1.955   .     S
Cu655  N666    2.030   .     S
Cu655  O671    1.940   .     S
Cu655  Cu656   2.702   .     S
Cu656  O672    1.940   .     S
Cu656  O673    1.921   .     S
Cu656  O669    1.955   .     S
Cu656  N665    2.030   .     S
Cu656  O668    1.957   .     S
N665   N736    1.281   .     S
N665   Cl769   1.727   .     S
N666   N805    1.281   1_455 S
N666   Cl840   1.726   1_455 S
O675   C676    1.417   .     S
O675   C713    1.388   .     S
C676   C679    1.530   .     S
C676   H678    1.117   .     S
C676   H677    1.112   .     S
C679   H680    1.111   .     S
C679   H681    1.111   .     S
C679   C1102   1.527   1_545 S
C682   H685    1.110   .     S
C682   H683    1.110   .     S
C682   H684    1.111   .     S
C682   C889    1.527   .     S
O686   C687    1.415   .     S
O686   C784    1.398   1_455 S
C687   H688    1.113   .     S
C687   H689    1.116   .     S
C687   C690    1.528   .     S
C690   H692    1.111   .     S
C690   H691    1.111   .     S
C690   C903    1.527   .     S
C693   H695    1.110   .     S
C693   H694    1.111   .     S
C693   C1110   1.527   1_545 S
C693   H1116   1.111   1_545 S
H696   C903    1.111   .     S
Cl697  C1057   1.779   1_545 S
Cl698  C848    1.779   .     S
Cl699  N805    1.727   1_455 S
Cl700  N736    1.726   .     S
C701   O737    1.288   .     A
C701   C707    1.425   .     S
C701   O739    1.296   .     A
C702   O738    1.287   .     A
C702   O740    1.297   .     A
C702   C708    1.425   .     S
C703   C705    1.385   .     A
C703   C724    1.416   .     A
C703   H733    1.076   .     S
C704   C706    1.386   .     A
C704   H734    1.075   .     S
C704   C723    1.417   .     A
C705   H727    1.084   .     S
C706   H728    1.084   .     S
C706   C92     1.395   1_556 S
C707   C918    1.352   .     S
C707   Cl977   1.779   .     S
C708   C1127   1.352   1_545 S
C708   Cl1188  1.779   1_545 S
C709   O741    1.305   .     A
C709   C711    1.467   .     S
C709   O743    1.300   .     A
C710   O742    1.304   .     A
C710   C712    1.469   .     S
C710   O744    1.301   .     A
C711   C715    1.396   .     A
C711   C717    1.395   .     A
C712   C718    1.393   .     A
C712   C716    1.397   .     A
C713   C721    1.414   .     A
C713   C715    1.403   .     A
C714   C716    1.412   .     A
C714   C722    1.417   .     A
C714   O826    1.398   .     S
C715   H732    1.083   .     S
C716   H731    1.081   .     S
C717   H730    1.073   .     S
C717   C719    1.403   .     A
C718   H729    1.075   .     S
C718   C720    1.401   .     A
C719   C723    1.430   .     A
C719   C721    1.421   .     A
C720   C722    1.421   .     A
C720   C724    1.428   .     A
C721   C75     1.393   1_556 S
C723   C94     1.422   1_556 S
Cu725  O737    1.957   .     S
Cu725  O744    1.921   .     S
Cu725  O740    1.955   .     S
Cu725  N736    2.030   .     S
Cu725  O741    1.940   .     S
Cu725  Cu726   2.702   .     S
Cu726  O742    1.940   .     S
Cu726  O743    1.921   .     S
Cu726  O739    1.955   .     S
Cu726  N735    2.030   .     S
Cu726  O738    1.957   .     S
N735   N806    1.281   .     S
N735   Cl839   1.727   .     S
O745   C746    1.417   .     S
O745   C783    1.388   .     S
C746   C749    1.530   .     S
C746   H748    1.117   .     S
C746   H747    1.112   .     S
C749   H750    1.111   .     S
C749   H751    1.111   .     S
C749   C1172   1.527   1_545 S
C752   H755    1.110   .     S
C752   H753    1.110   .     S
C752   H754    1.111   .     S
C752   C959    1.527   .     S
O756   C757    1.415   .     S
C757   H758    1.113   .     S
C757   H759    1.116   .     S
C757   C760    1.528   .     S
C760   H762    1.111   .     S
C760   H761    1.111   .     S
C760   C973    1.527   .     S
C763   H765    1.110   .     S
C763   H764    1.111   .     S
C763   C1180   1.527   1_545 S
C763   H1186   1.111   1_545 S
H766   C973    1.111   .     S
Cl767  C1127   1.779   1_545 S
Cl768  C918    1.779   .     S
Cl770  N806    1.726   .     S
C771   O807    1.288   .     A
C771   C777    1.425   .     S
C771   O809    1.296   .     A
C772   O808    1.287   .     A
C772   O810    1.297   .     A
C772   C778    1.425   .     S
C773   C775    1.385   .     A
C773   C794    1.416   .     A
C773   H803    1.076   .     S
C774   C776    1.386   .     A
C774   H804    1.075   .     S
C774   C793    1.417   .     A
C775   H797    1.084   .     S
C776   H798    1.084   .     S
C776   C162    1.395   1_556 S
C777   C988    1.352   .     S
C777   Cl1047  1.779   .     S
C778   C1197   1.352   1_545 S
C778   Cl1258  1.779   1_545 S
C779   O811    1.305   .     A
C779   C781    1.467   .     S
C779   O813    1.300   .     A
C780   O812    1.304   .     A
C780   C782    1.469   .     S
C780   O814    1.301   .     A
C781   C785    1.396   .     A
C781   C787    1.395   .     A
C782   C788    1.393   .     A
C782   C786    1.397   .     A
C783   C791    1.414   .     A
C783   C785    1.403   .     A
C784   C786    1.412   .     A
C784   C792    1.417   .     A
C784   O686    1.398   1_655 S
C785   H802    1.083   .     S
C786   H801    1.081   .     S
C787   H800    1.073   .     S
C787   C789    1.403   .     A
C788   H799    1.075   .     S
C788   C790    1.401   .     A
C789   C793    1.430   .     A
C789   C791    1.421   .     A
C790   C792    1.421   .     A
C790   C794    1.428   .     A
C791   C145    1.393   1_556 S
C793   C164    1.422   1_556 S
Cu795  O807    1.957   .     S
Cu795  O814    1.921   .     S
Cu795  O810    1.955   .     S
Cu795  N806    2.030   .     S
Cu795  O811    1.940   .     S
Cu795  Cu796   2.702   .     S
Cu796  O812    1.940   .     S
Cu796  O813    1.921   .     S
Cu796  O809    1.955   .     S
Cu796  N805    2.030   .     S
Cu796  O808    1.957   .     S
N805   N666    1.281   1_655 S
N805   Cl699   1.727   1_655 S
O815   C816    1.417   .     S
O815   C643    1.388   1_655 S
C816   C819    1.530   .     S
C816   H818    1.117   .     S
C816   H817    1.112   .     S
C819   H820    1.111   .     S
C819   H821    1.111   .     S
C819   C1242   1.527   1_545 S
C822   H825    1.110   .     S
C822   H823    1.110   .     S
C822   H824    1.111   .     S
C822   C1029   1.527   .     S
O826   C827    1.415   .     S
C827   H828    1.113   .     S
C827   H829    1.116   .     S
C827   C830    1.528   .     S
C830   H832    1.111   .     S
C830   H831    1.111   .     S
C830   C1043   1.527   .     S
C833   H835    1.110   .     S
C833   H834    1.111   .     S
C833   C1250   1.527   1_545 S
C833   H1256   1.111   1_545 S
H836   C1043   1.111   .     S
Cl837  C1197   1.779   1_545 S
Cl838  C988    1.779   .     S
Cl840  N666    1.726   1_655 S
C841   O877    1.288   .     A
C841   C847    1.425   .     S
C841   O879    1.296   .     A
C842   O878    1.287   .     A
C842   O880    1.297   .     A
C842   C848    1.425   .     S
C843   C845    1.385   .     A
C843   C864    1.416   .     A
C843   H873    1.076   .     S
C844   C846    1.386   .     A
C844   H874    1.075   .     S
C844   C863    1.417   .     A
C845   H867    1.084   .     S
C846   H868    1.084   .     S
C846   C232    1.395   1_556 S
C847   C1058   1.352   .     S
C847   Cl1117  1.779   .     S
C849   O881    1.305   .     A
C849   C851    1.467   .     S
C849   O883    1.300   .     A
C850   O882    1.304   .     A
C850   C852    1.469   .     S
C850   O884    1.301   .     A
C851   C855    1.396   .     A
C851   C857    1.395   .     A
C852   C858    1.393   .     A
C852   C856    1.397   .     A
C853   C861    1.414   .     A
C853   C855    1.403   .     A
C853   O1025   1.388   1_455 S
C854   C856    1.412   .     A
C854   C862    1.417   .     A
C854   O966    1.398   .     S
C855   H872    1.083   .     S
C856   H871    1.081   .     S
C857   H870    1.073   .     S
C857   C859    1.403   .     A
C858   H869    1.075   .     S
C858   C860    1.401   .     A
C859   C863    1.430   .     A
C859   C861    1.421   .     A
C860   C862    1.421   .     A
C860   C864    1.428   .     A
C861   C215    1.393   1_556 S
C863   C234    1.422   1_556 S
Cu865  O877    1.957   .     S
Cu865  O884    1.921   .     S
Cu865  O880    1.955   .     S
Cu865  N876    2.030   .     S
Cu865  O881    1.940   .     S
Cu865  Cu866   2.702   .     S
Cu866  O882    1.940   .     S
Cu866  O883    1.921   .     S
Cu866  O879    1.955   .     S
Cu866  N875    2.030   .     S
Cu866  O878    1.957   .     S
N875   N946    1.281   .     S
N875   Cl979   1.727   .     S
N876   N1015   1.281   1_455 S
N876   Cl1050  1.726   1_455 S
O885   C886    1.417   .     S
O885   C923    1.388   .     S
C886   C889    1.530   .     S
C886   H888    1.117   .     S
C886   H887    1.112   .     S
C889   H890    1.111   .     S
C889   H891    1.111   .     S
C892   H895    1.110   .     S
C892   H893    1.110   .     S
C892   H894    1.111   .     S
C892   C1099   1.527   .     S
O896   C897    1.415   .     S
O896   C994    1.398   1_455 S
C897   H898    1.113   .     S
C897   H899    1.116   .     S
C897   C900    1.528   .     S
C900   H902    1.111   .     S
C900   H901    1.111   .     S
C900   C1113   1.527   .     S
C903   H905    1.110   .     S
C903   H904    1.111   .     S
H906   C1113   1.111   .     S
Cl908  C1058   1.779   .     S
Cl909  N1015   1.727   1_455 S
Cl910  N946    1.726   .     S
C911   O947    1.288   .     A
C911   C917    1.425   .     S
C911   O949    1.296   .     A
C912   O948    1.287   .     A
C912   O950    1.297   .     A
C912   C918    1.425   .     S
C913   C915    1.385   .     A
C913   C934    1.416   .     A
C913   H943    1.076   .     S
C914   C916    1.386   .     A
C914   H944    1.075   .     S
C914   C933    1.417   .     A
C915   H937    1.084   .     S
C916   H938    1.084   .     S
C916   C302    1.395   1_556 S
C917   C1128   1.352   .     S
C917   Cl1187  1.779   .     S
C919   O951    1.305   .     A
C919   C921    1.467   .     S
C919   O953    1.300   .     A
C920   O952    1.304   .     A
C920   C922    1.469   .     S
C920   O954    1.301   .     A
C921   C925    1.396   .     A
C921   C927    1.395   .     A
C922   C928    1.393   .     A
C922   C926    1.397   .     A
C923   C931    1.414   .     A
C923   C925    1.403   .     A
C924   C926    1.412   .     A
C924   C932    1.417   .     A
C924   O1036   1.398   .     S
C925   H942    1.083   .     S
C926   H941    1.081   .     S
C927   H940    1.073   .     S
C927   C929    1.403   .     A
C928   H939    1.075   .     S
C928   C930    1.401   .     A
C929   C933    1.430   .     A
C929   C931    1.421   .     A
C930   C932    1.421   .     A
C930   C934    1.428   .     A
C931   C285    1.393   1_556 S
C933   C304    1.422   1_556 S
Cu935  O947    1.957   .     S
Cu935  O954    1.921   .     S
Cu935  O950    1.955   .     S
Cu935  N946    2.030   .     S
Cu935  O951    1.940   .     S
Cu935  Cu936   2.702   .     S
Cu936  O952    1.940   .     S
Cu936  O953    1.921   .     S
Cu936  O949    1.955   .     S
Cu936  N945    2.030   .     S
Cu936  O948    1.957   .     S
N945   N1016   1.281   .     S
N945   Cl1049  1.727   .     S
O955   C956    1.417   .     S
O955   C993    1.388   .     S
C956   C959    1.530   .     S
C956   H958    1.117   .     S
C956   H957    1.112   .     S
C959   H960    1.111   .     S
C959   H961    1.111   .     S
C962   H965    1.110   .     S
C962   H963    1.110   .     S
C962   H964    1.111   .     S
C962   C1169   1.527   .     S
O966   C967    1.415   .     S
C967   H968    1.113   .     S
C967   H969    1.116   .     S
C967   C970    1.528   .     S
C970   H972    1.111   .     S
C970   H971    1.111   .     S
C970   C1183   1.527   .     S
C973   H975    1.110   .     S
C973   H974    1.111   .     S
H976   C1183   1.111   .     S
Cl978  C1128   1.779   .     S
Cl980  N1016   1.726   .     S
C981   O1017   1.288   .     A
C981   C987    1.425   .     S
C981   O1019   1.296   .     A
C982   O1018   1.287   .     A
C982   O1020   1.297   .     A
C982   C988    1.425   .     S
C983   C985    1.385   .     A
C983   C1004   1.416   .     A
C983   H1013   1.076   .     S
C984   C986    1.386   .     A
C984   H1014   1.075   .     S
C984   C1003   1.417   .     A
C985   H1007   1.084   .     S
C986   H1008   1.084   .     S
C986   C372    1.395   1_556 S
C987   C1198   1.352   .     S
C987   Cl1257  1.779   .     S
C989   O1021   1.305   .     A
C989   C991    1.467   .     S
C989   O1023   1.300   .     A
C990   O1022   1.304   .     A
C990   C992    1.469   .     S
C990   O1024   1.301   .     A
C991   C995    1.396   .     A
C991   C997    1.395   .     A
C992   C998    1.393   .     A
C992   C996    1.397   .     A
C993   C1001   1.414   .     A
C993   C995    1.403   .     A
C994   C996    1.412   .     A
C994   C1002   1.417   .     A
C994   O896    1.398   1_655 S
C995   H1012   1.083   .     S
C996   H1011   1.081   .     S
C997   H1010   1.073   .     S
C997   C999    1.403   .     A
C998   H1009   1.075   .     S
C998   C1000   1.401   .     A
C999   C1003   1.430   .     A
C999   C1001   1.421   .     A
C1000  C1002   1.421   .     A
C1000  C1004   1.428   .     A
C1001  C355    1.393   1_556 S
C1003  C374    1.422   1_556 S
Cu1005 O1017   1.957   .     S
Cu1005 O1024   1.921   .     S
Cu1005 O1020   1.955   .     S
Cu1005 N1016   2.030   .     S
Cu1005 O1021   1.940   .     S
Cu1005 Cu1006  2.702   .     S
Cu1006 O1022   1.940   .     S
Cu1006 O1023   1.921   .     S
Cu1006 O1019   1.955   .     S
Cu1006 N1015   2.030   .     S
Cu1006 O1018   1.957   .     S
N1015  N876    1.281   1_655 S
N1015  Cl909   1.727   1_655 S
O1025  C1026   1.417   .     S
O1025  C853    1.388   1_655 S
C1026  C1029   1.530   .     S
C1026  H1028   1.117   .     S
C1026  H1027   1.112   .     S
C1029  H1030   1.111   .     S
C1029  H1031   1.111   .     S
C1032  H1035   1.110   .     S
C1032  H1033   1.110   .     S
C1032  H1034   1.111   .     S
C1032  C1239   1.527   .     S
O1036  C1037   1.415   .     S
C1037  H1038   1.113   .     S
C1037  H1039   1.116   .     S
C1037  C1040   1.528   .     S
C1040  H1042   1.111   .     S
C1040  H1041   1.111   .     S
C1040  C1253   1.527   .     S
C1043  H1045   1.110   .     S
C1043  H1044   1.111   .     S
H1046  C1253   1.111   .     S
Cl1048 C1198   1.779   .     S
Cl1050 N876    1.726   1_655 S
C1051  O1087   1.288   .     A
C1051  C1057   1.425   .     S
C1051  O1089   1.296   .     A
C1052  O1088   1.287   .     A
C1052  O1090   1.297   .     A
C1052  C1058   1.425   .     S
C1053  C1055   1.385   .     A
C1053  C1074   1.416   .     A
C1053  H1083   1.076   .     S
C1054  C1056   1.386   .     A
C1054  H1084   1.075   .     S
C1054  C1073   1.417   .     A
C1055  H1077   1.084   .     S
C1056  H1078   1.084   .     S
C1056  C442    1.395   1_556 S
C1057  C638    1.352   1_565 S
C1057  Cl697   1.779   1_565 S
C1059  O1091   1.305   .     A
C1059  C1061   1.467   .     S
C1059  O1093   1.300   .     A
C1060  O1092   1.304   .     A
C1060  C1062   1.469   .     S
C1060  O1094   1.301   .     A
C1061  C1065   1.396   .     A
C1061  C1067   1.395   .     A
C1062  C1068   1.393   .     A
C1062  C1066   1.397   .     A
C1063  C1071   1.414   .     A
C1063  C1065   1.403   .     A
C1063  O1235   1.388   1_455 S
C1064  C1066   1.412   .     A
C1064  C1072   1.417   .     A
C1064  O1176   1.398   .     S
C1065  H1082   1.083   .     S
C1066  H1081   1.081   .     S
C1067  H1080   1.073   .     S
C1067  C1069   1.403   .     A
C1068  H1079   1.075   .     S
C1068  C1070   1.401   .     A
C1069  C1073   1.430   .     A
C1069  C1071   1.421   .     A
C1070  C1072   1.421   .     A
C1070  C1074   1.428   .     A
C1071  C425    1.393   1_556 S
C1073  C444    1.422   1_556 S
Cu1075 O1087   1.957   .     S
Cu1075 O1094   1.921   .     S
Cu1075 O1090   1.955   .     S
Cu1075 N1086   2.030   .     S
Cu1075 O1091   1.940   .     S
Cu1075 Cu1076  2.702   .     S
Cu1076 O1092   1.940   .     S
Cu1076 O1093   1.921   .     S
Cu1076 O1089   1.955   .     S
Cu1076 N1085   2.030   .     S
Cu1076 O1088   1.957   .     S
N1085  N1156   1.281   .     S
N1085  Cl1189  1.727   .     S
N1086  N1225   1.281   1_455 S
N1086  Cl1260  1.726   1_455 S
O1095  C1096   1.417   .     S
O1095  C1133   1.388   .     S
C1096  C1099   1.530   .     S
C1096  H1098   1.117   .     S
C1096  H1097   1.112   .     S
C1099  H1100   1.111   .     S
C1099  H1101   1.111   .     S
C1102  H1105   1.110   .     S
C1102  H1103   1.110   .     S
C1102  H1104   1.111   .     S
C1102  C679    1.527   1_565 S
O1106  C1107   1.415   .     S
O1106  C1204   1.398   1_455 S
C1107  H1108   1.113   .     S
C1107  H1109   1.116   .     S
C1107  C1110   1.528   .     S
C1110  H1112   1.111   .     S
C1110  H1111   1.111   .     S
C1110  C693    1.527   1_565 S
C1113  H1115   1.110   .     S
C1113  H1114   1.111   .     S
H1116  C693    1.111   1_565 S
Cl1118 C638    1.779   1_565 S
Cl1119 N1225   1.727   1_455 S
Cl1120 N1156   1.726   .     S
C1121  O1157   1.288   .     A
C1121  C1127   1.425   .     S
C1121  O1159   1.296   .     A
C1122  O1158   1.287   .     A
C1122  O1160   1.297   .     A
C1122  C1128   1.425   .     S
C1123  C1125   1.385   .     A
C1123  C1144   1.416   .     A
C1123  H1153   1.076   .     S
C1124  C1126   1.386   .     A
C1124  H1154   1.075   .     S
C1124  C1143   1.417   .     A
C1125  H1147   1.084   .     S
C1126  H1148   1.084   .     S
C1126  C512    1.395   1_556 S
C1127  C708    1.352   1_565 S
C1127  Cl767   1.779   1_565 S
C1129  O1161   1.305   .     A
C1129  C1131   1.467   .     S
C1129  O1163   1.300   .     A
C1130  O1162   1.304   .     A
C1130  C1132   1.469   .     S
C1130  O1164   1.301   .     A
C1131  C1135   1.396   .     A
C1131  C1137   1.395   .     A
C1132  C1138   1.393   .     A
C1132  C1136   1.397   .     A
C1133  C1141   1.414   .     A
C1133  C1135   1.403   .     A
C1134  C1136   1.412   .     A
C1134  C1142   1.417   .     A
C1134  O1246   1.398   .     S
C1135  H1152   1.083   .     S
C1136  H1151   1.081   .     S
C1137  H1150   1.073   .     S
C1137  C1139   1.403   .     A
C1138  H1149   1.075   .     S
C1138  C1140   1.401   .     A
C1139  C1143   1.430   .     A
C1139  C1141   1.421   .     A
C1140  C1142   1.421   .     A
C1140  C1144   1.428   .     A
C1141  C495    1.393   1_556 S
C1143  C514    1.422   1_556 S
Cu1145 O1157   1.957   .     S
Cu1145 O1164   1.921   .     S
Cu1145 O1160   1.955   .     S
Cu1145 N1156   2.030   .     S
Cu1145 O1161   1.940   .     S
Cu1145 Cu1146  2.702   .     S
Cu1146 O1162   1.940   .     S
Cu1146 O1163   1.921   .     S
Cu1146 O1159   1.955   .     S
Cu1146 N1155   2.030   .     S
Cu1146 O1158   1.957   .     S
N1155  N1226   1.281   .     S
N1155  Cl1259  1.727   .     S
O1165  C1166   1.417   .     S
O1165  C1203   1.388   .     S
C1166  C1169   1.530   .     S
C1166  H1168   1.117   .     S
C1166  H1167   1.112   .     S
C1169  H1170   1.111   .     S
C1169  H1171   1.111   .     S
C1172  H1175   1.110   .     S
C1172  H1173   1.110   .     S
C1172  H1174   1.111   .     S
C1172  C749    1.527   1_565 S
O1176  C1177   1.415   .     S
C1177  H1178   1.113   .     S
C1177  H1179   1.116   .     S
C1177  C1180   1.528   .     S
C1180  H1182   1.111   .     S
C1180  H1181   1.111   .     S
C1180  C763    1.527   1_565 S
C1183  H1185   1.110   .     S
C1183  H1184   1.111   .     S
H1186  C763    1.111   1_565 S
Cl1188 C708    1.779   1_565 S
Cl1190 N1226   1.726   .     S
C1191  O1227   1.288   .     A
C1191  C1197   1.425   .     S
C1191  O1229   1.296   .     A
C1192  O1228   1.287   .     A
C1192  O1230   1.297   .     A
C1192  C1198   1.425   .     S
C1193  C1195   1.385   .     A
C1193  C1214   1.416   .     A
C1193  H1223   1.076   .     S
C1194  C1196   1.386   .     A
C1194  H1224   1.075   .     S
C1194  C1213   1.417   .     A
C1195  H1217   1.084   .     S
C1196  H1218   1.084   .     S
C1196  C582    1.395   1_556 S
C1197  C778    1.352   1_565 S
C1197  Cl837   1.779   1_565 S
C1199  O1231   1.305   .     A
C1199  C1201   1.467   .     S
C1199  O1233   1.300   .     A
C1200  O1232   1.304   .     A
C1200  C1202   1.469   .     S
C1200  O1234   1.301   .     A
C1201  C1205   1.396   .     A
C1201  C1207   1.395   .     A
C1202  C1208   1.393   .     A
C1202  C1206   1.397   .     A
C1203  C1211   1.414   .     A
C1203  C1205   1.403   .     A
C1204  C1206   1.412   .     A
C1204  C1212   1.417   .     A
C1204  O1106   1.398   1_655 S
C1205  H1222   1.083   .     S
C1206  H1221   1.081   .     S
C1207  H1220   1.073   .     S
C1207  C1209   1.403   .     A
C1208  H1219   1.075   .     S
C1208  C1210   1.401   .     A
C1209  C1213   1.430   .     A
C1209  C1211   1.421   .     A
C1210  C1212   1.421   .     A
C1210  C1214   1.428   .     A
C1211  C565    1.393   1_556 S
C1213  C584    1.422   1_556 S
Cu1215 O1227   1.957   .     S
Cu1215 O1234   1.921   .     S
Cu1215 O1230   1.955   .     S
Cu1215 N1226   2.030   .     S
Cu1215 O1231   1.940   .     S
Cu1215 Cu1216  2.702   .     S
Cu1216 O1232   1.940   .     S
Cu1216 O1233   1.921   .     S
Cu1216 O1229   1.955   .     S
Cu1216 N1225   2.030   .     S
Cu1216 O1228   1.957   .     S
N1225  N1086   1.281   1_655 S
N1225  Cl1119  1.727   1_655 S
O1235  C1236   1.417   .     S
O1235  C1063   1.388   1_655 S
C1236  C1239   1.530   .     S
C1236  H1238   1.117   .     S
C1236  H1237   1.112   .     S
C1239  H1240   1.111   .     S
C1239  H1241   1.111   .     S
C1242  H1245   1.110   .     S
C1242  H1243   1.110   .     S
C1242  H1244   1.111   .     S
C1242  C819    1.527   1_565 S
O1246  C1247   1.415   .     S
C1247  H1248   1.113   .     S
C1247  H1249   1.116   .     S
C1247  C1250   1.528   .     S
C1250  H1252   1.111   .     S
C1250  H1251   1.111   .     S
C1250  C833    1.527   1_565 S
C1253  H1255   1.110   .     S
C1253  H1254   1.111   .     S
H1256  C833    1.111   1_565 S
Cl1258 C778    1.779   1_565 S
Cl1260 N1086   1.726   1_655 S
