data_str_m3_o1_o5_pcu_sym.47
_audit_creation_date              2020-01-03
_audit_creation_method            'Materials Studio'
_symmetry_space_group_name_H-M    'P1'
_symmetry_Int_Tables_number       1
_symmetry_cell_setting            triclinic
loop_
_symmetry_equiv_pos_as_xyz
  x,y,z
_cell_length_a                    32.2518
_cell_length_b                    29.8071
_cell_length_c                    26.6637
_cell_angle_alpha                 89.8316
_cell_angle_beta                  91.8861
_cell_angle_gamma                 88.4156
loop_
_atom_site_label
_atom_site_type_symbol
_atom_site_fract_x
_atom_site_fract_y
_atom_site_fract_z
_atom_site_U_iso_or_equiv
_atom_site_adp_type
_atom_site_occupancy
C1     C     0.08654   0.16736   0.16990   0.00000  Uiso   1.00
C2     C     0.01864   0.20834   0.15747   0.00000  Uiso   1.00
C3     C     0.29048   0.16445   0.15221   0.00000  Uiso   1.00
C4     C     0.04148   0.16861   0.17201   0.00000  Uiso   1.00
C5     C     0.18712   0.02326   0.20425   0.00000  Uiso   1.00
C6     C     0.14703   0.31005   0.12846   0.00000  Uiso   1.00
C7     C     0.14649   0.02482   0.12897   0.00000  Uiso   1.00
C8     C     0.18696   0.30859   0.20419   0.00000  Uiso   1.00
C9     C     0.04289   0.08833   0.20405   0.00000  Uiso   1.00
C10    C     0.28703   0.24335   0.11892   0.00000  Uiso   1.00
C11    C     0.29497   0.08022   0.15120   0.00000  Uiso   1.00
C12    C     0.24623   0.16599   0.16088   0.00000  Uiso   1.00
C13    C     0.03658   0.25386   0.15929   0.00000  Uiso   1.00
C14    C     0.21012   0.04718   0.24448   0.00000  Uiso   1.00
C15    C     0.12539   0.28576   0.08754   0.00000  Uiso   1.00
C16    C     0.12189   0.05071   0.09073   0.00000  Uiso   1.00
C17    C     0.20979   0.28318   0.24419   0.00000  Uiso   1.00
C18    C     0.16652   0.16671   0.07298   0.00000  Uiso   1.00
C19    C     0.16681   0.16662   0.26035   0.00000  Uiso   1.00
C20    C     0.16662   0.16673   0.02183   0.00000  Uiso   1.00
C21    C     0.16672   0.16660   0.31151   0.00000  Uiso   1.00
C22    C     0.02140   0.12732   0.17822   0.00000  Uiso   1.00
C23    C     0.31026   0.20499   0.14352   0.00000  Uiso   1.00
C24    C     0.31340   0.12442   0.16236   0.00000  Uiso   1.00
H25    H     0.07640   0.06606   0.26479   0.00000  Uiso   1.00
H26    H     0.26331   0.30591   0.12524   0.00000  Uiso   1.00
H27    H     0.26080   0.04446   0.10143   0.00000  Uiso   1.00
H28    H     0.04529   0.31248   0.12358   0.00000  Uiso   1.00
H29    H     0.22788   0.07616   0.23576   0.00000  Uiso   1.00
H30    H     0.10721   0.25704   0.09592   0.00000  Uiso   1.00
H31    H     0.09434   0.06953   0.10118   0.00000  Uiso   1.00
H32    H     0.19521   0.27727   0.27961   0.00000  Uiso   1.00
N33    N     0.16667   0.28573   0.16667   0.00000  Uiso   1.00
N34    N     0.16667   0.04760   0.16667   0.00000  Uiso   1.00
O35    O     0.10559   0.20487   0.16666   0.00000  Uiso   1.00
O36    O     0.06178   0.09440   0.25141   0.00000  Uiso   1.00
O37    O     0.26938   0.23799   0.07816   0.00000  Uiso   1.00
O38    O     0.28333   0.28442   0.14362   0.00000  Uiso   1.00
O39    O     0.29569   0.05029   0.18269   0.00000  Uiso   1.00
O40    O     0.27495   0.07421   0.10446   0.00000  Uiso   1.00
O41    O     0.05253   0.26742   0.19844   0.00000  Uiso   1.00
O42    O     0.03350   0.28181   0.11702   0.00000  Uiso   1.00
O43    O     0.20902   0.03516   0.28823   0.00000  Uiso   1.00
O44    O     0.12886   0.29635   0.04367   0.00000  Uiso   1.00
O45    O     0.13277   0.05204   0.04734   0.00000  Uiso   1.00
O46    O     0.22774   0.12846   0.16667   0.00000  Uiso   1.00
O47    O     0.24555   0.27029   0.23862   0.00000  Uiso   1.00
O48    O     0.22774   0.20487   0.16667   0.00000  Uiso   1.00
O49    O     0.10559   0.12846   0.16666   0.00000  Uiso   1.00
O50    O     0.16667   0.20488   0.09511   0.00000  Uiso   1.00
O51    O     0.16666   0.12845   0.23822   0.00000  Uiso   1.00
O52    O     0.16666   0.20488   0.23822   0.00000  Uiso   1.00
O53    O     0.16667   0.12845   0.09511   0.00000  Uiso   1.00
O54    O     0.04562   0.05189   0.18332   0.00000  Uiso   1.00
Zn55   Zn    0.16667   0.21771   0.16667   0.00000  Uiso   1.00
Zn56   Zn    0.16667   0.11563   0.16667   0.00000  Uiso   1.00
C57    C     0.41987   0.16736   0.16990   0.00000  Uiso   1.00
C58    C     0.35198   0.20834   0.15747   0.00000  Uiso   1.00
C59    C     0.62381   0.16445   0.15221   0.00000  Uiso   1.00
C60    C     0.37481   0.16861   0.17201   0.00000  Uiso   1.00
C61    C     0.52045   0.02326   0.20425   0.00000  Uiso   1.00
C62    C     0.48036   0.31005   0.12846   0.00000  Uiso   1.00
C63    C     0.47983   0.02482   0.12897   0.00000  Uiso   1.00
C64    C     0.52030   0.30859   0.20419   0.00000  Uiso   1.00
C65    C     0.37622   0.08833   0.20405   0.00000  Uiso   1.00
C66    C     0.62036   0.24335   0.11892   0.00000  Uiso   1.00
C67    C     0.62830   0.08022   0.15120   0.00000  Uiso   1.00
C68    C     0.57956   0.16599   0.16088   0.00000  Uiso   1.00
C69    C     0.36991   0.25386   0.15929   0.00000  Uiso   1.00
C70    C     0.54346   0.04718   0.24448   0.00000  Uiso   1.00
C71    C     0.45872   0.28576   0.08754   0.00000  Uiso   1.00
C72    C     0.45523   0.05071   0.09073   0.00000  Uiso   1.00
C73    C     0.54312   0.28318   0.24419   0.00000  Uiso   1.00
C74    C     0.49985   0.16671   0.07298   0.00000  Uiso   1.00
C75    C     0.50014   0.16662   0.26035   0.00000  Uiso   1.00
C76    C     0.49995   0.16673   0.02183   0.00000  Uiso   1.00
C77    C     0.50006   0.16660   0.31151   0.00000  Uiso   1.00
C78    C     0.35473   0.12732   0.17822   0.00000  Uiso   1.00
C79    C     0.64360   0.20499   0.14352   0.00000  Uiso   1.00
C80    C     0.64674   0.12442   0.16236   0.00000  Uiso   1.00
H81    H     0.40974   0.06606   0.26479   0.00000  Uiso   1.00
H82    H     0.59664   0.30591   0.12524   0.00000  Uiso   1.00
H83    H     0.59414   0.04446   0.10143   0.00000  Uiso   1.00
H84    H     0.37862   0.31248   0.12358   0.00000  Uiso   1.00
H85    H     0.56121   0.07616   0.23576   0.00000  Uiso   1.00
H86    H     0.44054   0.25704   0.09592   0.00000  Uiso   1.00
H87    H     0.42767   0.06953   0.10118   0.00000  Uiso   1.00
H88    H     0.52854   0.27727   0.27961   0.00000  Uiso   1.00
N89    N     0.50000   0.28573   0.16667   0.00000  Uiso   1.00
N90    N     0.50000   0.04760   0.16667   0.00000  Uiso   1.00
O91    O     0.43892   0.20487   0.16666   0.00000  Uiso   1.00
O92    O     0.39512   0.09440   0.25141   0.00000  Uiso   1.00
O93    O     0.60271   0.23799   0.07816   0.00000  Uiso   1.00
O94    O     0.61666   0.28442   0.14362   0.00000  Uiso   1.00
O95    O     0.62902   0.05029   0.18269   0.00000  Uiso   1.00
O96    O     0.60828   0.07421   0.10446   0.00000  Uiso   1.00
O97    O     0.38587   0.26742   0.19844   0.00000  Uiso   1.00
O98    O     0.36683   0.28181   0.11702   0.00000  Uiso   1.00
O99    O     0.54235   0.03516   0.28823   0.00000  Uiso   1.00
O100   O     0.46219   0.29635   0.04367   0.00000  Uiso   1.00
O101   O     0.46610   0.05204   0.04734   0.00000  Uiso   1.00
O102   O     0.56108   0.12846   0.16667   0.00000  Uiso   1.00
O103   O     0.57888   0.27029   0.23862   0.00000  Uiso   1.00
O104   O     0.56108   0.20487   0.16667   0.00000  Uiso   1.00
O105   O     0.43892   0.12846   0.16666   0.00000  Uiso   1.00
O106   O     0.50000   0.20488   0.09511   0.00000  Uiso   1.00
O107   O     0.50000   0.12845   0.23822   0.00000  Uiso   1.00
O108   O     0.50000   0.20488   0.23822   0.00000  Uiso   1.00
O109   O     0.50000   0.12845   0.09511   0.00000  Uiso   1.00
O110   O     0.37896   0.05189   0.18332   0.00000  Uiso   1.00
Zn111  Zn    0.50000   0.21771   0.16667   0.00000  Uiso   1.00
Zn112  Zn    0.50000   0.11563   0.16667   0.00000  Uiso   1.00
C113   C     0.75321   0.16736   0.16990   0.00000  Uiso   1.00
C114   C     0.68531   0.20834   0.15747   0.00000  Uiso   1.00
C115   C     0.95715   0.16445   0.15221   0.00000  Uiso   1.00
C116   C     0.70814   0.16861   0.17201   0.00000  Uiso   1.00
C117   C     0.85378   0.02326   0.20425   0.00000  Uiso   1.00
C118   C     0.81369   0.31005   0.12846   0.00000  Uiso   1.00
C119   C     0.81316   0.02482   0.12897   0.00000  Uiso   1.00
C120   C     0.85363   0.30859   0.20419   0.00000  Uiso   1.00
C121   C     0.70955   0.08833   0.20405   0.00000  Uiso   1.00
C122   C     0.95369   0.24335   0.11892   0.00000  Uiso   1.00
C123   C     0.96163   0.08022   0.15120   0.00000  Uiso   1.00
C124   C     0.91290   0.16599   0.16088   0.00000  Uiso   1.00
C125   C     0.70324   0.25386   0.15929   0.00000  Uiso   1.00
C126   C     0.87679   0.04718   0.24448   0.00000  Uiso   1.00
C127   C     0.79206   0.28576   0.08754   0.00000  Uiso   1.00
C128   C     0.78856   0.05071   0.09073   0.00000  Uiso   1.00
C129   C     0.87646   0.28318   0.24419   0.00000  Uiso   1.00
C130   C     0.83319   0.16671   0.07298   0.00000  Uiso   1.00
C131   C     0.83347   0.16662   0.26035   0.00000  Uiso   1.00
C132   C     0.83329   0.16673   0.02183   0.00000  Uiso   1.00
C133   C     0.83339   0.16660   0.31151   0.00000  Uiso   1.00
C134   C     0.68807   0.12732   0.17822   0.00000  Uiso   1.00
C135   C     0.97693   0.20499   0.14352   0.00000  Uiso   1.00
C136   C     0.98007   0.12442   0.16236   0.00000  Uiso   1.00
H137   H     0.74307   0.06606   0.26479   0.00000  Uiso   1.00
H138   H     0.92997   0.30591   0.12524   0.00000  Uiso   1.00
H139   H     0.92747   0.04446   0.10143   0.00000  Uiso   1.00
H140   H     0.71196   0.31248   0.12358   0.00000  Uiso   1.00
H141   H     0.89454   0.07616   0.23576   0.00000  Uiso   1.00
H142   H     0.77387   0.25704   0.09592   0.00000  Uiso   1.00
H143   H     0.76101   0.06953   0.10118   0.00000  Uiso   1.00
H144   H     0.86187   0.27727   0.27961   0.00000  Uiso   1.00
N145   N     0.83333   0.28573   0.16667   0.00000  Uiso   1.00
N146   N     0.83333   0.04760   0.16667   0.00000  Uiso   1.00
O147   O     0.77226   0.20487   0.16666   0.00000  Uiso   1.00
O148   O     0.72845   0.09440   0.25141   0.00000  Uiso   1.00
O149   O     0.93605   0.23799   0.07816   0.00000  Uiso   1.00
O150   O     0.95000   0.28442   0.14362   0.00000  Uiso   1.00
O151   O     0.96235   0.05029   0.18269   0.00000  Uiso   1.00
O152   O     0.94162   0.07421   0.10446   0.00000  Uiso   1.00
O153   O     0.71920   0.26742   0.19844   0.00000  Uiso   1.00
O154   O     0.70017   0.28181   0.11702   0.00000  Uiso   1.00
O155   O     0.87568   0.03516   0.28823   0.00000  Uiso   1.00
O156   O     0.79552   0.29635   0.04367   0.00000  Uiso   1.00
O157   O     0.79943   0.05204   0.04734   0.00000  Uiso   1.00
O158   O     0.89441   0.12846   0.16667   0.00000  Uiso   1.00
O159   O     0.91222   0.27029   0.23862   0.00000  Uiso   1.00
O160   O     0.89441   0.20487   0.16667   0.00000  Uiso   1.00
O161   O     0.77226   0.12846   0.16666   0.00000  Uiso   1.00
O162   O     0.83334   0.20488   0.09511   0.00000  Uiso   1.00
O163   O     0.83333   0.12845   0.23822   0.00000  Uiso   1.00
O164   O     0.83333   0.20488   0.23822   0.00000  Uiso   1.00
O165   O     0.83334   0.12845   0.09511   0.00000  Uiso   1.00
O166   O     0.71229   0.05189   0.18332   0.00000  Uiso   1.00
Zn167  Zn    0.83333   0.21771   0.16667   0.00000  Uiso   1.00
Zn168  Zn    0.83333   0.11563   0.16667   0.00000  Uiso   1.00
C169   C     0.08654   0.50070   0.16990   0.00000  Uiso   1.00
C170   C     0.01864   0.54168   0.15747   0.00000  Uiso   1.00
C171   C     0.29048   0.49778   0.15221   0.00000  Uiso   1.00
C172   C     0.04148   0.50195   0.17201   0.00000  Uiso   1.00
C173   C     0.18712   0.35659   0.20425   0.00000  Uiso   1.00
C174   C     0.14703   0.64338   0.12846   0.00000  Uiso   1.00
C175   C     0.14649   0.35815   0.12897   0.00000  Uiso   1.00
C176   C     0.18696   0.64192   0.20419   0.00000  Uiso   1.00
C177   C     0.04289   0.42166   0.20405   0.00000  Uiso   1.00
C178   C     0.28703   0.57668   0.11892   0.00000  Uiso   1.00
C179   C     0.29497   0.41355   0.15120   0.00000  Uiso   1.00
C180   C     0.24623   0.49932   0.16088   0.00000  Uiso   1.00
C181   C     0.03658   0.58720   0.15929   0.00000  Uiso   1.00
C182   C     0.21012   0.38051   0.24448   0.00000  Uiso   1.00
C183   C     0.12539   0.61909   0.08754   0.00000  Uiso   1.00
C184   C     0.12189   0.38405   0.09073   0.00000  Uiso   1.00
C185   C     0.20979   0.61651   0.24419   0.00000  Uiso   1.00
C186   C     0.16652   0.50005   0.07298   0.00000  Uiso   1.00
C187   C     0.16681   0.49995   0.26035   0.00000  Uiso   1.00
C188   C     0.16662   0.50006   0.02183   0.00000  Uiso   1.00
C189   C     0.16672   0.49994   0.31151   0.00000  Uiso   1.00
C190   C     0.02140   0.46065   0.17822   0.00000  Uiso   1.00
C191   C     0.31026   0.53833   0.14352   0.00000  Uiso   1.00
C192   C     0.31340   0.45775   0.16236   0.00000  Uiso   1.00
H193   H     0.07640   0.39939   0.26479   0.00000  Uiso   1.00
H194   H     0.26331   0.63925   0.12524   0.00000  Uiso   1.00
H195   H     0.26080   0.37779   0.10143   0.00000  Uiso   1.00
H196   H     0.04529   0.64581   0.12358   0.00000  Uiso   1.00
H197   H     0.22788   0.40950   0.23576   0.00000  Uiso   1.00
H198   H     0.10721   0.59037   0.09592   0.00000  Uiso   1.00
H199   H     0.09434   0.40287   0.10118   0.00000  Uiso   1.00
H200   H     0.19521   0.61061   0.27961   0.00000  Uiso   1.00
N201   N     0.16667   0.61907   0.16667   0.00000  Uiso   1.00
N202   N     0.16667   0.38093   0.16667   0.00000  Uiso   1.00
O203   O     0.10559   0.53821   0.16666   0.00000  Uiso   1.00
O204   O     0.06178   0.42773   0.25141   0.00000  Uiso   1.00
O205   O     0.26938   0.57132   0.07816   0.00000  Uiso   1.00
O206   O     0.28333   0.61775   0.14362   0.00000  Uiso   1.00
O207   O     0.29569   0.38362   0.18269   0.00000  Uiso   1.00
O208   O     0.27495   0.40754   0.10446   0.00000  Uiso   1.00
O209   O     0.05253   0.60075   0.19844   0.00000  Uiso   1.00
O210   O     0.03350   0.61514   0.11702   0.00000  Uiso   1.00
O211   O     0.20902   0.36849   0.28823   0.00000  Uiso   1.00
O212   O     0.12886   0.62969   0.04367   0.00000  Uiso   1.00
O213   O     0.13277   0.38537   0.04734   0.00000  Uiso   1.00
O214   O     0.22774   0.46179   0.16667   0.00000  Uiso   1.00
O215   O     0.24555   0.60363   0.23862   0.00000  Uiso   1.00
O216   O     0.22774   0.53821   0.16667   0.00000  Uiso   1.00
O217   O     0.10559   0.46179   0.16666   0.00000  Uiso   1.00
O218   O     0.16667   0.53821   0.09511   0.00000  Uiso   1.00
O219   O     0.16666   0.46179   0.23822   0.00000  Uiso   1.00
O220   O     0.16666   0.53821   0.23822   0.00000  Uiso   1.00
O221   O     0.16667   0.46179   0.09511   0.00000  Uiso   1.00
O222   O     0.04562   0.38522   0.18332   0.00000  Uiso   1.00
Zn223  Zn    0.16667   0.55104   0.16667   0.00000  Uiso   1.00
Zn224  Zn    0.16667   0.44896   0.16667   0.00000  Uiso   1.00
C225   C     0.41987   0.50070   0.16990   0.00000  Uiso   1.00
C226   C     0.35198   0.54168   0.15747   0.00000  Uiso   1.00
C227   C     0.62381   0.49778   0.15221   0.00000  Uiso   1.00
C228   C     0.37481   0.50195   0.17201   0.00000  Uiso   1.00
C229   C     0.52045   0.35659   0.20425   0.00000  Uiso   1.00
C230   C     0.48036   0.64338   0.12846   0.00000  Uiso   1.00
C231   C     0.47983   0.35815   0.12897   0.00000  Uiso   1.00
C232   C     0.52030   0.64192   0.20419   0.00000  Uiso   1.00
C233   C     0.37622   0.42166   0.20405   0.00000  Uiso   1.00
C234   C     0.62036   0.57668   0.11892   0.00000  Uiso   1.00
C235   C     0.62830   0.41355   0.15120   0.00000  Uiso   1.00
C236   C     0.57956   0.49932   0.16088   0.00000  Uiso   1.00
C237   C     0.36991   0.58720   0.15929   0.00000  Uiso   1.00
C238   C     0.54346   0.38051   0.24448   0.00000  Uiso   1.00
C239   C     0.45872   0.61909   0.08754   0.00000  Uiso   1.00
C240   C     0.45523   0.38405   0.09073   0.00000  Uiso   1.00
C241   C     0.54312   0.61651   0.24419   0.00000  Uiso   1.00
C242   C     0.49985   0.50005   0.07298   0.00000  Uiso   1.00
C243   C     0.50014   0.49995   0.26035   0.00000  Uiso   1.00
C244   C     0.49995   0.50006   0.02183   0.00000  Uiso   1.00
C245   C     0.50006   0.49994   0.31151   0.00000  Uiso   1.00
C246   C     0.35473   0.46065   0.17822   0.00000  Uiso   1.00
C247   C     0.64360   0.53833   0.14352   0.00000  Uiso   1.00
C248   C     0.64674   0.45775   0.16236   0.00000  Uiso   1.00
H249   H     0.40974   0.39939   0.26479   0.00000  Uiso   1.00
H250   H     0.59664   0.63925   0.12524   0.00000  Uiso   1.00
H251   H     0.59414   0.37779   0.10143   0.00000  Uiso   1.00
H252   H     0.37862   0.64581   0.12358   0.00000  Uiso   1.00
H253   H     0.56121   0.40950   0.23576   0.00000  Uiso   1.00
H254   H     0.44054   0.59037   0.09592   0.00000  Uiso   1.00
H255   H     0.42767   0.40287   0.10118   0.00000  Uiso   1.00
H256   H     0.52854   0.61061   0.27961   0.00000  Uiso   1.00
N257   N     0.50000   0.61907   0.16667   0.00000  Uiso   1.00
N258   N     0.50000   0.38093   0.16667   0.00000  Uiso   1.00
O259   O     0.43892   0.53821   0.16666   0.00000  Uiso   1.00
O260   O     0.39512   0.42773   0.25141   0.00000  Uiso   1.00
O261   O     0.60271   0.57132   0.07816   0.00000  Uiso   1.00
O262   O     0.61666   0.61775   0.14362   0.00000  Uiso   1.00
O263   O     0.62902   0.38362   0.18269   0.00000  Uiso   1.00
O264   O     0.60828   0.40754   0.10446   0.00000  Uiso   1.00
O265   O     0.38587   0.60075   0.19844   0.00000  Uiso   1.00
O266   O     0.36683   0.61514   0.11702   0.00000  Uiso   1.00
O267   O     0.54235   0.36849   0.28823   0.00000  Uiso   1.00
O268   O     0.46219   0.62969   0.04367   0.00000  Uiso   1.00
O269   O     0.46610   0.38537   0.04734   0.00000  Uiso   1.00
O270   O     0.56108   0.46179   0.16667   0.00000  Uiso   1.00
O271   O     0.57888   0.60363   0.23862   0.00000  Uiso   1.00
O272   O     0.56108   0.53821   0.16667   0.00000  Uiso   1.00
O273   O     0.43892   0.46179   0.16666   0.00000  Uiso   1.00
O274   O     0.50000   0.53821   0.09511   0.00000  Uiso   1.00
O275   O     0.50000   0.46179   0.23822   0.00000  Uiso   1.00
O276   O     0.50000   0.53821   0.23822   0.00000  Uiso   1.00
O277   O     0.50000   0.46179   0.09511   0.00000  Uiso   1.00
O278   O     0.37896   0.38522   0.18332   0.00000  Uiso   1.00
Zn279  Zn    0.50000   0.55104   0.16667   0.00000  Uiso   1.00
Zn280  Zn    0.50000   0.44896   0.16667   0.00000  Uiso   1.00
C281   C     0.75321   0.50070   0.16990   0.00000  Uiso   1.00
C282   C     0.68531   0.54168   0.15747   0.00000  Uiso   1.00
C283   C     0.95715   0.49778   0.15221   0.00000  Uiso   1.00
C284   C     0.70814   0.50195   0.17201   0.00000  Uiso   1.00
C285   C     0.85378   0.35659   0.20425   0.00000  Uiso   1.00
C286   C     0.81369   0.64338   0.12846   0.00000  Uiso   1.00
C287   C     0.81316   0.35815   0.12897   0.00000  Uiso   1.00
C288   C     0.85363   0.64192   0.20419   0.00000  Uiso   1.00
C289   C     0.70955   0.42166   0.20405   0.00000  Uiso   1.00
C290   C     0.95369   0.57668   0.11892   0.00000  Uiso   1.00
C291   C     0.96163   0.41355   0.15120   0.00000  Uiso   1.00
C292   C     0.91290   0.49932   0.16088   0.00000  Uiso   1.00
C293   C     0.70324   0.58720   0.15929   0.00000  Uiso   1.00
C294   C     0.87679   0.38051   0.24448   0.00000  Uiso   1.00
C295   C     0.79206   0.61909   0.08754   0.00000  Uiso   1.00
C296   C     0.78856   0.38405   0.09073   0.00000  Uiso   1.00
C297   C     0.87646   0.61651   0.24419   0.00000  Uiso   1.00
C298   C     0.83319   0.50005   0.07298   0.00000  Uiso   1.00
C299   C     0.83347   0.49995   0.26035   0.00000  Uiso   1.00
C300   C     0.83329   0.50006   0.02183   0.00000  Uiso   1.00
C301   C     0.83339   0.49994   0.31151   0.00000  Uiso   1.00
C302   C     0.68807   0.46065   0.17822   0.00000  Uiso   1.00
C303   C     0.97693   0.53833   0.14352   0.00000  Uiso   1.00
C304   C     0.98007   0.45775   0.16236   0.00000  Uiso   1.00
H305   H     0.74307   0.39939   0.26479   0.00000  Uiso   1.00
H306   H     0.92997   0.63925   0.12524   0.00000  Uiso   1.00
H307   H     0.92747   0.37779   0.10143   0.00000  Uiso   1.00
H308   H     0.71196   0.64581   0.12358   0.00000  Uiso   1.00
H309   H     0.89454   0.40950   0.23576   0.00000  Uiso   1.00
H310   H     0.77387   0.59037   0.09592   0.00000  Uiso   1.00
H311   H     0.76101   0.40287   0.10118   0.00000  Uiso   1.00
H312   H     0.86187   0.61061   0.27961   0.00000  Uiso   1.00
N313   N     0.83333   0.61907   0.16667   0.00000  Uiso   1.00
N314   N     0.83333   0.38093   0.16667   0.00000  Uiso   1.00
O315   O     0.77226   0.53821   0.16666   0.00000  Uiso   1.00
O316   O     0.72845   0.42773   0.25141   0.00000  Uiso   1.00
O317   O     0.93605   0.57132   0.07816   0.00000  Uiso   1.00
O318   O     0.95000   0.61775   0.14362   0.00000  Uiso   1.00
O319   O     0.96235   0.38362   0.18269   0.00000  Uiso   1.00
O320   O     0.94162   0.40754   0.10446   0.00000  Uiso   1.00
O321   O     0.71920   0.60075   0.19844   0.00000  Uiso   1.00
O322   O     0.70017   0.61514   0.11702   0.00000  Uiso   1.00
O323   O     0.87568   0.36849   0.28823   0.00000  Uiso   1.00
O324   O     0.79552   0.62969   0.04367   0.00000  Uiso   1.00
O325   O     0.79943   0.38537   0.04734   0.00000  Uiso   1.00
O326   O     0.89441   0.46179   0.16667   0.00000  Uiso   1.00
O327   O     0.91222   0.60363   0.23862   0.00000  Uiso   1.00
O328   O     0.89441   0.53821   0.16667   0.00000  Uiso   1.00
O329   O     0.77226   0.46179   0.16666   0.00000  Uiso   1.00
O330   O     0.83334   0.53821   0.09511   0.00000  Uiso   1.00
O331   O     0.83333   0.46179   0.23822   0.00000  Uiso   1.00
O332   O     0.83333   0.53821   0.23822   0.00000  Uiso   1.00
O333   O     0.83334   0.46179   0.09511   0.00000  Uiso   1.00
O334   O     0.71229   0.38522   0.18332   0.00000  Uiso   1.00
Zn335  Zn    0.83333   0.55104   0.16667   0.00000  Uiso   1.00
Zn336  Zn    0.83333   0.44896   0.16667   0.00000  Uiso   1.00
C337   C     0.08654   0.83403   0.16990   0.00000  Uiso   1.00
C338   C     0.01864   0.87501   0.15747   0.00000  Uiso   1.00
C339   C     0.29048   0.83111   0.15221   0.00000  Uiso   1.00
C340   C     0.04148   0.83528   0.17201   0.00000  Uiso   1.00
C341   C     0.18712   0.68992   0.20425   0.00000  Uiso   1.00
C342   C     0.14703   0.97672   0.12846   0.00000  Uiso   1.00
C343   C     0.14649   0.69149   0.12897   0.00000  Uiso   1.00
C344   C     0.18696   0.97525   0.20419   0.00000  Uiso   1.00
C345   C     0.04289   0.75499   0.20405   0.00000  Uiso   1.00
C346   C     0.28703   0.91001   0.11892   0.00000  Uiso   1.00
C347   C     0.29497   0.74688   0.15120   0.00000  Uiso   1.00
C348   C     0.24623   0.83265   0.16088   0.00000  Uiso   1.00
C349   C     0.03658   0.92053   0.15929   0.00000  Uiso   1.00
C350   C     0.21012   0.71385   0.24448   0.00000  Uiso   1.00
C351   C     0.12539   0.95242   0.08754   0.00000  Uiso   1.00
C352   C     0.12189   0.71738   0.09073   0.00000  Uiso   1.00
C353   C     0.20979   0.94985   0.24419   0.00000  Uiso   1.00
C354   C     0.16652   0.83338   0.07298   0.00000  Uiso   1.00
C355   C     0.16681   0.83329   0.26035   0.00000  Uiso   1.00
C356   C     0.16662   0.83340   0.02183   0.00000  Uiso   1.00
C357   C     0.16672   0.83327   0.31151   0.00000  Uiso   1.00
C358   C     0.02140   0.79398   0.17822   0.00000  Uiso   1.00
C359   C     0.31026   0.87166   0.14352   0.00000  Uiso   1.00
C360   C     0.31340   0.79109   0.16236   0.00000  Uiso   1.00
H361   H     0.07640   0.73273   0.26479   0.00000  Uiso   1.00
H362   H     0.26331   0.97258   0.12524   0.00000  Uiso   1.00
H363   H     0.26080   0.71112   0.10143   0.00000  Uiso   1.00
H364   H     0.04529   0.97914   0.12358   0.00000  Uiso   1.00
H365   H     0.22788   0.74283   0.23576   0.00000  Uiso   1.00
H366   H     0.10721   0.92370   0.09592   0.00000  Uiso   1.00
H367   H     0.09434   0.73620   0.10118   0.00000  Uiso   1.00
H368   H     0.19521   0.94394   0.27961   0.00000  Uiso   1.00
N369   N     0.16667   0.95240   0.16667   0.00000  Uiso   1.00
N370   N     0.16667   0.71427   0.16667   0.00000  Uiso   1.00
O371   O     0.10559   0.87154   0.16666   0.00000  Uiso   1.00
O372   O     0.06178   0.76106   0.25141   0.00000  Uiso   1.00
O373   O     0.26938   0.90466   0.07816   0.00000  Uiso   1.00
O374   O     0.28333   0.95108   0.14362   0.00000  Uiso   1.00
O375   O     0.29569   0.71696   0.18269   0.00000  Uiso   1.00
O376   O     0.27495   0.74088   0.10446   0.00000  Uiso   1.00
O377   O     0.05253   0.93408   0.19844   0.00000  Uiso   1.00
O378   O     0.03350   0.94847   0.11702   0.00000  Uiso   1.00
O379   O     0.20902   0.70182   0.28823   0.00000  Uiso   1.00
O380   O     0.12886   0.96302   0.04367   0.00000  Uiso   1.00
O381   O     0.13277   0.71870   0.04734   0.00000  Uiso   1.00
O382   O     0.22774   0.79513   0.16667   0.00000  Uiso   1.00
O383   O     0.24555   0.93696   0.23862   0.00000  Uiso   1.00
O384   O     0.22774   0.87154   0.16667   0.00000  Uiso   1.00
O385   O     0.10559   0.79513   0.16666   0.00000  Uiso   1.00
O386   O     0.16667   0.87155   0.09511   0.00000  Uiso   1.00
O387   O     0.16666   0.79512   0.23822   0.00000  Uiso   1.00
O388   O     0.16666   0.87155   0.23822   0.00000  Uiso   1.00
O389   O     0.16667   0.79512   0.09511   0.00000  Uiso   1.00
O390   O     0.04562   0.71855   0.18332   0.00000  Uiso   1.00
Zn391  Zn    0.16667   0.88437   0.16667   0.00000  Uiso   1.00
Zn392  Zn    0.16667   0.78229   0.16667   0.00000  Uiso   1.00
C393   C     0.41987   0.83403   0.16990   0.00000  Uiso   1.00
C394   C     0.35198   0.87501   0.15747   0.00000  Uiso   1.00
C395   C     0.62381   0.83111   0.15221   0.00000  Uiso   1.00
C396   C     0.37481   0.83528   0.17201   0.00000  Uiso   1.00
C397   C     0.52045   0.68992   0.20425   0.00000  Uiso   1.00
C398   C     0.48036   0.97672   0.12846   0.00000  Uiso   1.00
C399   C     0.47983   0.69149   0.12897   0.00000  Uiso   1.00
C400   C     0.52030   0.97525   0.20419   0.00000  Uiso   1.00
C401   C     0.37622   0.75499   0.20405   0.00000  Uiso   1.00
C402   C     0.62036   0.91001   0.11892   0.00000  Uiso   1.00
C403   C     0.62830   0.74688   0.15120   0.00000  Uiso   1.00
C404   C     0.57956   0.83265   0.16088   0.00000  Uiso   1.00
C405   C     0.36991   0.92053   0.15929   0.00000  Uiso   1.00
C406   C     0.54346   0.71385   0.24448   0.00000  Uiso   1.00
C407   C     0.45872   0.95242   0.08754   0.00000  Uiso   1.00
C408   C     0.45523   0.71738   0.09073   0.00000  Uiso   1.00
C409   C     0.54312   0.94985   0.24419   0.00000  Uiso   1.00
C410   C     0.49985   0.83338   0.07298   0.00000  Uiso   1.00
C411   C     0.50014   0.83329   0.26035   0.00000  Uiso   1.00
C412   C     0.49995   0.83340   0.02183   0.00000  Uiso   1.00
C413   C     0.50006   0.83327   0.31151   0.00000  Uiso   1.00
C414   C     0.35473   0.79398   0.17822   0.00000  Uiso   1.00
C415   C     0.64360   0.87166   0.14352   0.00000  Uiso   1.00
C416   C     0.64674   0.79109   0.16236   0.00000  Uiso   1.00
H417   H     0.40974   0.73273   0.26479   0.00000  Uiso   1.00
H418   H     0.59664   0.97258   0.12524   0.00000  Uiso   1.00
H419   H     0.59414   0.71112   0.10143   0.00000  Uiso   1.00
H420   H     0.37862   0.97914   0.12358   0.00000  Uiso   1.00
H421   H     0.56121   0.74283   0.23576   0.00000  Uiso   1.00
H422   H     0.44054   0.92370   0.09592   0.00000  Uiso   1.00
H423   H     0.42767   0.73620   0.10118   0.00000  Uiso   1.00
H424   H     0.52854   0.94394   0.27961   0.00000  Uiso   1.00
N425   N     0.50000   0.95240   0.16667   0.00000  Uiso   1.00
N426   N     0.50000   0.71427   0.16667   0.00000  Uiso   1.00
O427   O     0.43892   0.87154   0.16666   0.00000  Uiso   1.00
O428   O     0.39512   0.76106   0.25141   0.00000  Uiso   1.00
O429   O     0.60271   0.90466   0.07816   0.00000  Uiso   1.00
O430   O     0.61666   0.95108   0.14362   0.00000  Uiso   1.00
O431   O     0.62902   0.71696   0.18269   0.00000  Uiso   1.00
O432   O     0.60828   0.74088   0.10446   0.00000  Uiso   1.00
O433   O     0.38587   0.93408   0.19844   0.00000  Uiso   1.00
O434   O     0.36683   0.94847   0.11702   0.00000  Uiso   1.00
O435   O     0.54235   0.70182   0.28823   0.00000  Uiso   1.00
O436   O     0.46219   0.96302   0.04367   0.00000  Uiso   1.00
O437   O     0.46610   0.71870   0.04734   0.00000  Uiso   1.00
O438   O     0.56108   0.79513   0.16667   0.00000  Uiso   1.00
O439   O     0.57888   0.93696   0.23862   0.00000  Uiso   1.00
O440   O     0.56108   0.87154   0.16667   0.00000  Uiso   1.00
O441   O     0.43892   0.79513   0.16666   0.00000  Uiso   1.00
O442   O     0.50000   0.87155   0.09511   0.00000  Uiso   1.00
O443   O     0.50000   0.79512   0.23822   0.00000  Uiso   1.00
O444   O     0.50000   0.87155   0.23822   0.00000  Uiso   1.00
O445   O     0.50000   0.79512   0.09511   0.00000  Uiso   1.00
O446   O     0.37896   0.71855   0.18332   0.00000  Uiso   1.00
Zn447  Zn    0.50000   0.88437   0.16667   0.00000  Uiso   1.00
Zn448  Zn    0.50000   0.78229   0.16667   0.00000  Uiso   1.00
C449   C     0.75321   0.83403   0.16990   0.00000  Uiso   1.00
C450   C     0.68531   0.87501   0.15747   0.00000  Uiso   1.00
C451   C     0.95715   0.83111   0.15221   0.00000  Uiso   1.00
C452   C     0.70814   0.83528   0.17201   0.00000  Uiso   1.00
C453   C     0.85378   0.68992   0.20425   0.00000  Uiso   1.00
C454   C     0.81369   0.97672   0.12846   0.00000  Uiso   1.00
C455   C     0.81316   0.69149   0.12897   0.00000  Uiso   1.00
C456   C     0.85363   0.97525   0.20419   0.00000  Uiso   1.00
C457   C     0.70955   0.75499   0.20405   0.00000  Uiso   1.00
C458   C     0.95369   0.91001   0.11892   0.00000  Uiso   1.00
C459   C     0.96163   0.74688   0.15120   0.00000  Uiso   1.00
C460   C     0.91290   0.83265   0.16088   0.00000  Uiso   1.00
C461   C     0.70324   0.92053   0.15929   0.00000  Uiso   1.00
C462   C     0.87679   0.71385   0.24448   0.00000  Uiso   1.00
C463   C     0.79206   0.95242   0.08754   0.00000  Uiso   1.00
C464   C     0.78856   0.71738   0.09073   0.00000  Uiso   1.00
C465   C     0.87646   0.94985   0.24419   0.00000  Uiso   1.00
C466   C     0.83319   0.83338   0.07298   0.00000  Uiso   1.00
C467   C     0.83347   0.83329   0.26035   0.00000  Uiso   1.00
C468   C     0.83329   0.83340   0.02183   0.00000  Uiso   1.00
C469   C     0.83339   0.83327   0.31151   0.00000  Uiso   1.00
C470   C     0.68807   0.79398   0.17822   0.00000  Uiso   1.00
C471   C     0.97693   0.87166   0.14352   0.00000  Uiso   1.00
C472   C     0.98007   0.79109   0.16236   0.00000  Uiso   1.00
H473   H     0.74307   0.73273   0.26479   0.00000  Uiso   1.00
H474   H     0.92997   0.97258   0.12524   0.00000  Uiso   1.00
H475   H     0.92747   0.71112   0.10143   0.00000  Uiso   1.00
H476   H     0.71196   0.97914   0.12358   0.00000  Uiso   1.00
H477   H     0.89454   0.74283   0.23576   0.00000  Uiso   1.00
H478   H     0.77387   0.92370   0.09592   0.00000  Uiso   1.00
H479   H     0.76101   0.73620   0.10118   0.00000  Uiso   1.00
H480   H     0.86187   0.94394   0.27961   0.00000  Uiso   1.00
N481   N     0.83333   0.95240   0.16667   0.00000  Uiso   1.00
N482   N     0.83333   0.71427   0.16667   0.00000  Uiso   1.00
O483   O     0.77226   0.87154   0.16666   0.00000  Uiso   1.00
O484   O     0.72845   0.76106   0.25141   0.00000  Uiso   1.00
O485   O     0.93605   0.90466   0.07816   0.00000  Uiso   1.00
O486   O     0.95000   0.95108   0.14362   0.00000  Uiso   1.00
O487   O     0.96235   0.71696   0.18269   0.00000  Uiso   1.00
O488   O     0.94162   0.74088   0.10446   0.00000  Uiso   1.00
O489   O     0.71920   0.93408   0.19844   0.00000  Uiso   1.00
O490   O     0.70017   0.94847   0.11702   0.00000  Uiso   1.00
O491   O     0.87568   0.70182   0.28823   0.00000  Uiso   1.00
O492   O     0.79552   0.96302   0.04367   0.00000  Uiso   1.00
O493   O     0.79943   0.71870   0.04734   0.00000  Uiso   1.00
O494   O     0.89441   0.79513   0.16667   0.00000  Uiso   1.00
O495   O     0.91222   0.93696   0.23862   0.00000  Uiso   1.00
O496   O     0.89441   0.87154   0.16667   0.00000  Uiso   1.00
O497   O     0.77226   0.79513   0.16666   0.00000  Uiso   1.00
O498   O     0.83334   0.87155   0.09511   0.00000  Uiso   1.00
O499   O     0.83333   0.79512   0.23822   0.00000  Uiso   1.00
O500   O     0.83333   0.87155   0.23822   0.00000  Uiso   1.00
O501   O     0.83334   0.79512   0.09511   0.00000  Uiso   1.00
O502   O     0.71229   0.71855   0.18332   0.00000  Uiso   1.00
Zn503  Zn    0.83333   0.88437   0.16667   0.00000  Uiso   1.00
Zn504  Zn    0.83333   0.78229   0.16667   0.00000  Uiso   1.00
C505   C     0.08654   0.16736   0.50323   0.00000  Uiso   1.00
C506   C     0.01864   0.20834   0.49080   0.00000  Uiso   1.00
C507   C     0.29048   0.16445   0.48554   0.00000  Uiso   1.00
C508   C     0.04148   0.16861   0.50534   0.00000  Uiso   1.00
C509   C     0.18712   0.02326   0.53758   0.00000  Uiso   1.00
C510   C     0.14703   0.31005   0.46180   0.00000  Uiso   1.00
C511   C     0.14649   0.02482   0.46230   0.00000  Uiso   1.00
C512   C     0.18696   0.30859   0.53753   0.00000  Uiso   1.00
C513   C     0.04289   0.08833   0.53739   0.00000  Uiso   1.00
C514   C     0.28703   0.24335   0.45226   0.00000  Uiso   1.00
C515   C     0.29497   0.08022   0.48453   0.00000  Uiso   1.00
C516   C     0.24623   0.16599   0.49421   0.00000  Uiso   1.00
C517   C     0.03658   0.25386   0.49263   0.00000  Uiso   1.00
C518   C     0.21012   0.04718   0.57782   0.00000  Uiso   1.00
C519   C     0.12539   0.28576   0.42087   0.00000  Uiso   1.00
C520   C     0.12189   0.05071   0.42406   0.00000  Uiso   1.00
C521   C     0.20979   0.28318   0.57752   0.00000  Uiso   1.00
C522   C     0.16652   0.16671   0.40631   0.00000  Uiso   1.00
C523   C     0.16681   0.16662   0.59368   0.00000  Uiso   1.00
C524   C     0.16662   0.16673   0.35516   0.00000  Uiso   1.00
C525   C     0.16672   0.16660   0.64484   0.00000  Uiso   1.00
C526   C     0.02140   0.12732   0.51155   0.00000  Uiso   1.00
C527   C     0.31026   0.20499   0.47685   0.00000  Uiso   1.00
C528   C     0.31340   0.12442   0.49570   0.00000  Uiso   1.00
H529   H     0.07640   0.06606   0.59812   0.00000  Uiso   1.00
H530   H     0.26331   0.30591   0.45857   0.00000  Uiso   1.00
H531   H     0.26080   0.04446   0.43476   0.00000  Uiso   1.00
H532   H     0.04529   0.31248   0.45691   0.00000  Uiso   1.00
H533   H     0.22788   0.07616   0.56910   0.00000  Uiso   1.00
H534   H     0.10721   0.25704   0.42925   0.00000  Uiso   1.00
H535   H     0.09434   0.06953   0.43452   0.00000  Uiso   1.00
H536   H     0.19521   0.27727   0.61295   0.00000  Uiso   1.00
N537   N     0.16667   0.28573   0.50000   0.00000  Uiso   1.00
N538   N     0.16667   0.04760   0.50000   0.00000  Uiso   1.00
O539   O     0.10559   0.20487   0.50000   0.00000  Uiso   1.00
O540   O     0.06178   0.09440   0.58474   0.00000  Uiso   1.00
O541   O     0.26938   0.23799   0.41149   0.00000  Uiso   1.00
O542   O     0.28333   0.28442   0.47695   0.00000  Uiso   1.00
O543   O     0.29569   0.05029   0.51603   0.00000  Uiso   1.00
O544   O     0.27495   0.07421   0.43779   0.00000  Uiso   1.00
O545   O     0.05253   0.26742   0.53178   0.00000  Uiso   1.00
O546   O     0.03350   0.28181   0.45036   0.00000  Uiso   1.00
O547   O     0.20902   0.03516   0.62156   0.00000  Uiso   1.00
O548   O     0.12886   0.29635   0.37701   0.00000  Uiso   1.00
O549   O     0.13277   0.05204   0.38067   0.00000  Uiso   1.00
O550   O     0.22774   0.12846   0.50000   0.00000  Uiso   1.00
O551   O     0.24555   0.27029   0.57195   0.00000  Uiso   1.00
O552   O     0.22774   0.20487   0.50000   0.00000  Uiso   1.00
O553   O     0.10559   0.12846   0.50000   0.00000  Uiso   1.00
O554   O     0.16667   0.20488   0.42845   0.00000  Uiso   1.00
O555   O     0.16666   0.12845   0.57155   0.00000  Uiso   1.00
O556   O     0.16666   0.20488   0.57155   0.00000  Uiso   1.00
O557   O     0.16667   0.12845   0.42845   0.00000  Uiso   1.00
O558   O     0.04562   0.05189   0.51666   0.00000  Uiso   1.00
Zn559  Zn    0.16667   0.21771   0.50000   0.00000  Uiso   1.00
Zn560  Zn    0.16667   0.11563   0.50000   0.00000  Uiso   1.00
C561   C     0.41987   0.16736   0.50323   0.00000  Uiso   1.00
C562   C     0.35198   0.20834   0.49080   0.00000  Uiso   1.00
C563   C     0.62381   0.16445   0.48554   0.00000  Uiso   1.00
C564   C     0.37481   0.16861   0.50534   0.00000  Uiso   1.00
C565   C     0.52045   0.02326   0.53758   0.00000  Uiso   1.00
C566   C     0.48036   0.31005   0.46180   0.00000  Uiso   1.00
C567   C     0.47983   0.02482   0.46230   0.00000  Uiso   1.00
C568   C     0.52030   0.30859   0.53753   0.00000  Uiso   1.00
C569   C     0.37622   0.08833   0.53739   0.00000  Uiso   1.00
C570   C     0.62036   0.24335   0.45226   0.00000  Uiso   1.00
C571   C     0.62830   0.08022   0.48453   0.00000  Uiso   1.00
C572   C     0.57956   0.16599   0.49421   0.00000  Uiso   1.00
C573   C     0.36991   0.25386   0.49263   0.00000  Uiso   1.00
C574   C     0.54346   0.04718   0.57782   0.00000  Uiso   1.00
C575   C     0.45872   0.28576   0.42087   0.00000  Uiso   1.00
C576   C     0.45523   0.05071   0.42406   0.00000  Uiso   1.00
C577   C     0.54312   0.28318   0.57752   0.00000  Uiso   1.00
C578   C     0.49985   0.16671   0.40631   0.00000  Uiso   1.00
C579   C     0.50014   0.16662   0.59368   0.00000  Uiso   1.00
C580   C     0.49995   0.16673   0.35516   0.00000  Uiso   1.00
C581   C     0.50006   0.16660   0.64484   0.00000  Uiso   1.00
C582   C     0.35473   0.12732   0.51155   0.00000  Uiso   1.00
C583   C     0.64360   0.20499   0.47685   0.00000  Uiso   1.00
C584   C     0.64674   0.12442   0.49570   0.00000  Uiso   1.00
H585   H     0.40974   0.06606   0.59812   0.00000  Uiso   1.00
H586   H     0.59664   0.30591   0.45857   0.00000  Uiso   1.00
H587   H     0.59414   0.04446   0.43476   0.00000  Uiso   1.00
H588   H     0.37862   0.31248   0.45691   0.00000  Uiso   1.00
H589   H     0.56121   0.07616   0.56910   0.00000  Uiso   1.00
H590   H     0.44054   0.25704   0.42925   0.00000  Uiso   1.00
H591   H     0.42767   0.06953   0.43452   0.00000  Uiso   1.00
H592   H     0.52854   0.27727   0.61295   0.00000  Uiso   1.00
N593   N     0.50000   0.28573   0.50000   0.00000  Uiso   1.00
N594   N     0.50000   0.04760   0.50000   0.00000  Uiso   1.00
O595   O     0.43892   0.20487   0.50000   0.00000  Uiso   1.00
O596   O     0.39512   0.09440   0.58474   0.00000  Uiso   1.00
O597   O     0.60271   0.23799   0.41149   0.00000  Uiso   1.00
O598   O     0.61666   0.28442   0.47695   0.00000  Uiso   1.00
O599   O     0.62902   0.05029   0.51603   0.00000  Uiso   1.00
O600   O     0.60828   0.07421   0.43779   0.00000  Uiso   1.00
O601   O     0.38587   0.26742   0.53178   0.00000  Uiso   1.00
O602   O     0.36683   0.28181   0.45036   0.00000  Uiso   1.00
O603   O     0.54235   0.03516   0.62156   0.00000  Uiso   1.00
O604   O     0.46219   0.29635   0.37701   0.00000  Uiso   1.00
O605   O     0.46610   0.05204   0.38067   0.00000  Uiso   1.00
O606   O     0.56108   0.12846   0.50000   0.00000  Uiso   1.00
O607   O     0.57888   0.27029   0.57195   0.00000  Uiso   1.00
O608   O     0.56108   0.20487   0.50000   0.00000  Uiso   1.00
O609   O     0.43892   0.12846   0.50000   0.00000  Uiso   1.00
O610   O     0.50000   0.20488   0.42845   0.00000  Uiso   1.00
O611   O     0.50000   0.12845   0.57155   0.00000  Uiso   1.00
O612   O     0.50000   0.20488   0.57155   0.00000  Uiso   1.00
O613   O     0.50000   0.12845   0.42845   0.00000  Uiso   1.00
O614   O     0.37896   0.05189   0.51666   0.00000  Uiso   1.00
Zn615  Zn    0.50000   0.21771   0.50000   0.00000  Uiso   1.00
Zn616  Zn    0.50000   0.11563   0.50000   0.00000  Uiso   1.00
C617   C     0.75321   0.16736   0.50323   0.00000  Uiso   1.00
C618   C     0.68531   0.20834   0.49080   0.00000  Uiso   1.00
C619   C     0.95715   0.16445   0.48554   0.00000  Uiso   1.00
C620   C     0.70814   0.16861   0.50534   0.00000  Uiso   1.00
C621   C     0.85378   0.02326   0.53758   0.00000  Uiso   1.00
C622   C     0.81369   0.31005   0.46180   0.00000  Uiso   1.00
C623   C     0.81316   0.02482   0.46230   0.00000  Uiso   1.00
C624   C     0.85363   0.30859   0.53753   0.00000  Uiso   1.00
C625   C     0.70955   0.08833   0.53739   0.00000  Uiso   1.00
C626   C     0.95369   0.24335   0.45226   0.00000  Uiso   1.00
C627   C     0.96163   0.08022   0.48453   0.00000  Uiso   1.00
C628   C     0.91290   0.16599   0.49421   0.00000  Uiso   1.00
C629   C     0.70324   0.25386   0.49263   0.00000  Uiso   1.00
C630   C     0.87679   0.04718   0.57782   0.00000  Uiso   1.00
C631   C     0.79206   0.28576   0.42087   0.00000  Uiso   1.00
C632   C     0.78856   0.05071   0.42406   0.00000  Uiso   1.00
C633   C     0.87646   0.28318   0.57752   0.00000  Uiso   1.00
C634   C     0.83319   0.16671   0.40631   0.00000  Uiso   1.00
C635   C     0.83347   0.16662   0.59368   0.00000  Uiso   1.00
C636   C     0.83329   0.16673   0.35516   0.00000  Uiso   1.00
C637   C     0.83339   0.16660   0.64484   0.00000  Uiso   1.00
C638   C     0.68807   0.12732   0.51155   0.00000  Uiso   1.00
C639   C     0.97693   0.20499   0.47685   0.00000  Uiso   1.00
C640   C     0.98007   0.12442   0.49570   0.00000  Uiso   1.00
H641   H     0.74307   0.06606   0.59812   0.00000  Uiso   1.00
H642   H     0.92997   0.30591   0.45857   0.00000  Uiso   1.00
H643   H     0.92747   0.04446   0.43476   0.00000  Uiso   1.00
H644   H     0.71196   0.31248   0.45691   0.00000  Uiso   1.00
H645   H     0.89454   0.07616   0.56910   0.00000  Uiso   1.00
H646   H     0.77387   0.25704   0.42925   0.00000  Uiso   1.00
H647   H     0.76101   0.06953   0.43452   0.00000  Uiso   1.00
H648   H     0.86187   0.27727   0.61295   0.00000  Uiso   1.00
N649   N     0.83333   0.28573   0.50000   0.00000  Uiso   1.00
N650   N     0.83333   0.04760   0.50000   0.00000  Uiso   1.00
O651   O     0.77226   0.20487   0.50000   0.00000  Uiso   1.00
O652   O     0.72845   0.09440   0.58474   0.00000  Uiso   1.00
O653   O     0.93605   0.23799   0.41149   0.00000  Uiso   1.00
O654   O     0.95000   0.28442   0.47695   0.00000  Uiso   1.00
O655   O     0.96235   0.05029   0.51603   0.00000  Uiso   1.00
O656   O     0.94162   0.07421   0.43779   0.00000  Uiso   1.00
O657   O     0.71920   0.26742   0.53178   0.00000  Uiso   1.00
O658   O     0.70017   0.28181   0.45036   0.00000  Uiso   1.00
O659   O     0.87568   0.03516   0.62156   0.00000  Uiso   1.00
O660   O     0.79552   0.29635   0.37701   0.00000  Uiso   1.00
O661   O     0.79943   0.05204   0.38067   0.00000  Uiso   1.00
O662   O     0.89441   0.12846   0.50000   0.00000  Uiso   1.00
O663   O     0.91222   0.27029   0.57195   0.00000  Uiso   1.00
O664   O     0.89441   0.20487   0.50000   0.00000  Uiso   1.00
O665   O     0.77226   0.12846   0.50000   0.00000  Uiso   1.00
O666   O     0.83334   0.20488   0.42845   0.00000  Uiso   1.00
O667   O     0.83333   0.12845   0.57155   0.00000  Uiso   1.00
O668   O     0.83333   0.20488   0.57155   0.00000  Uiso   1.00
O669   O     0.83334   0.12845   0.42845   0.00000  Uiso   1.00
O670   O     0.71229   0.05189   0.51666   0.00000  Uiso   1.00
Zn671  Zn    0.83333   0.21771   0.50000   0.00000  Uiso   1.00
Zn672  Zn    0.83333   0.11563   0.50000   0.00000  Uiso   1.00
C673   C     0.08654   0.50070   0.50323   0.00000  Uiso   1.00
C674   C     0.01864   0.54168   0.49080   0.00000  Uiso   1.00
C675   C     0.29048   0.49778   0.48554   0.00000  Uiso   1.00
C676   C     0.04148   0.50195   0.50534   0.00000  Uiso   1.00
C677   C     0.18712   0.35659   0.53758   0.00000  Uiso   1.00
C678   C     0.14703   0.64338   0.46180   0.00000  Uiso   1.00
C679   C     0.14649   0.35815   0.46230   0.00000  Uiso   1.00
C680   C     0.18696   0.64192   0.53753   0.00000  Uiso   1.00
C681   C     0.04289   0.42166   0.53739   0.00000  Uiso   1.00
C682   C     0.28703   0.57668   0.45226   0.00000  Uiso   1.00
C683   C     0.29497   0.41355   0.48453   0.00000  Uiso   1.00
C684   C     0.24623   0.49932   0.49421   0.00000  Uiso   1.00
C685   C     0.03658   0.58720   0.49263   0.00000  Uiso   1.00
C686   C     0.21012   0.38051   0.57782   0.00000  Uiso   1.00
C687   C     0.12539   0.61909   0.42087   0.00000  Uiso   1.00
C688   C     0.12189   0.38405   0.42406   0.00000  Uiso   1.00
C689   C     0.20979   0.61651   0.57752   0.00000  Uiso   1.00
C690   C     0.16652   0.50005   0.40631   0.00000  Uiso   1.00
C691   C     0.16681   0.49995   0.59368   0.00000  Uiso   1.00
C692   C     0.16662   0.50006   0.35516   0.00000  Uiso   1.00
C693   C     0.16672   0.49994   0.64484   0.00000  Uiso   1.00
C694   C     0.02140   0.46065   0.51155   0.00000  Uiso   1.00
C695   C     0.31026   0.53833   0.47685   0.00000  Uiso   1.00
C696   C     0.31340   0.45775   0.49570   0.00000  Uiso   1.00
H697   H     0.07640   0.39939   0.59812   0.00000  Uiso   1.00
H698   H     0.26331   0.63925   0.45857   0.00000  Uiso   1.00
H699   H     0.26080   0.37779   0.43476   0.00000  Uiso   1.00
H700   H     0.04529   0.64581   0.45691   0.00000  Uiso   1.00
H701   H     0.22788   0.40950   0.56910   0.00000  Uiso   1.00
H702   H     0.10721   0.59037   0.42925   0.00000  Uiso   1.00
H703   H     0.09434   0.40287   0.43452   0.00000  Uiso   1.00
H704   H     0.19521   0.61061   0.61295   0.00000  Uiso   1.00
N705   N     0.16667   0.61907   0.50000   0.00000  Uiso   1.00
N706   N     0.16667   0.38093   0.50000   0.00000  Uiso   1.00
O707   O     0.10559   0.53821   0.50000   0.00000  Uiso   1.00
O708   O     0.06178   0.42773   0.58474   0.00000  Uiso   1.00
O709   O     0.26938   0.57132   0.41149   0.00000  Uiso   1.00
O710   O     0.28333   0.61775   0.47695   0.00000  Uiso   1.00
O711   O     0.29569   0.38362   0.51603   0.00000  Uiso   1.00
O712   O     0.27495   0.40754   0.43779   0.00000  Uiso   1.00
O713   O     0.05253   0.60075   0.53178   0.00000  Uiso   1.00
O714   O     0.03350   0.61514   0.45036   0.00000  Uiso   1.00
O715   O     0.20902   0.36849   0.62156   0.00000  Uiso   1.00
O716   O     0.12886   0.62969   0.37701   0.00000  Uiso   1.00
O717   O     0.13277   0.38537   0.38067   0.00000  Uiso   1.00
O718   O     0.22774   0.46179   0.50000   0.00000  Uiso   1.00
O719   O     0.24555   0.60363   0.57195   0.00000  Uiso   1.00
O720   O     0.22774   0.53821   0.50000   0.00000  Uiso   1.00
O721   O     0.10559   0.46179   0.50000   0.00000  Uiso   1.00
O722   O     0.16667   0.53821   0.42845   0.00000  Uiso   1.00
O723   O     0.16666   0.46179   0.57155   0.00000  Uiso   1.00
O724   O     0.16666   0.53821   0.57155   0.00000  Uiso   1.00
O725   O     0.16667   0.46179   0.42845   0.00000  Uiso   1.00
O726   O     0.04562   0.38522   0.51666   0.00000  Uiso   1.00
Zn727  Zn    0.16667   0.55104   0.50000   0.00000  Uiso   1.00
Zn728  Zn    0.16667   0.44896   0.50000   0.00000  Uiso   1.00
C729   C     0.41987   0.50070   0.50323   0.00000  Uiso   1.00
C730   C     0.35198   0.54168   0.49080   0.00000  Uiso   1.00
C731   C     0.62381   0.49778   0.48554   0.00000  Uiso   1.00
C732   C     0.37481   0.50195   0.50534   0.00000  Uiso   1.00
C733   C     0.52045   0.35659   0.53758   0.00000  Uiso   1.00
C734   C     0.48036   0.64338   0.46180   0.00000  Uiso   1.00
C735   C     0.47983   0.35815   0.46230   0.00000  Uiso   1.00
C736   C     0.52030   0.64192   0.53753   0.00000  Uiso   1.00
C737   C     0.37622   0.42166   0.53739   0.00000  Uiso   1.00
C738   C     0.62036   0.57668   0.45226   0.00000  Uiso   1.00
C739   C     0.62830   0.41355   0.48453   0.00000  Uiso   1.00
C740   C     0.57956   0.49932   0.49421   0.00000  Uiso   1.00
C741   C     0.36991   0.58720   0.49263   0.00000  Uiso   1.00
C742   C     0.54346   0.38051   0.57782   0.00000  Uiso   1.00
C743   C     0.45872   0.61909   0.42087   0.00000  Uiso   1.00
C744   C     0.45523   0.38405   0.42406   0.00000  Uiso   1.00
C745   C     0.54312   0.61651   0.57752   0.00000  Uiso   1.00
C746   C     0.49985   0.50005   0.40631   0.00000  Uiso   1.00
C747   C     0.50014   0.49995   0.59368   0.00000  Uiso   1.00
C748   C     0.49995   0.50006   0.35516   0.00000  Uiso   1.00
C749   C     0.50006   0.49994   0.64484   0.00000  Uiso   1.00
C750   C     0.35473   0.46065   0.51155   0.00000  Uiso   1.00
C751   C     0.64360   0.53833   0.47685   0.00000  Uiso   1.00
C752   C     0.64674   0.45775   0.49570   0.00000  Uiso   1.00
H753   H     0.40974   0.39939   0.59812   0.00000  Uiso   1.00
H754   H     0.59664   0.63925   0.45857   0.00000  Uiso   1.00
H755   H     0.59414   0.37779   0.43476   0.00000  Uiso   1.00
H756   H     0.37862   0.64581   0.45691   0.00000  Uiso   1.00
H757   H     0.56121   0.40950   0.56910   0.00000  Uiso   1.00
H758   H     0.44054   0.59037   0.42925   0.00000  Uiso   1.00
H759   H     0.42767   0.40287   0.43452   0.00000  Uiso   1.00
H760   H     0.52854   0.61061   0.61295   0.00000  Uiso   1.00
N761   N     0.50000   0.61907   0.50000   0.00000  Uiso   1.00
N762   N     0.50000   0.38093   0.50000   0.00000  Uiso   1.00
O763   O     0.43892   0.53821   0.50000   0.00000  Uiso   1.00
O764   O     0.39512   0.42773   0.58474   0.00000  Uiso   1.00
O765   O     0.60271   0.57132   0.41149   0.00000  Uiso   1.00
O766   O     0.61666   0.61775   0.47695   0.00000  Uiso   1.00
O767   O     0.62902   0.38362   0.51603   0.00000  Uiso   1.00
O768   O     0.60828   0.40754   0.43779   0.00000  Uiso   1.00
O769   O     0.38587   0.60075   0.53178   0.00000  Uiso   1.00
O770   O     0.36683   0.61514   0.45036   0.00000  Uiso   1.00
O771   O     0.54235   0.36849   0.62156   0.00000  Uiso   1.00
O772   O     0.46219   0.62969   0.37701   0.00000  Uiso   1.00
O773   O     0.46610   0.38537   0.38067   0.00000  Uiso   1.00
O774   O     0.56108   0.46179   0.50000   0.00000  Uiso   1.00
O775   O     0.57888   0.60363   0.57195   0.00000  Uiso   1.00
O776   O     0.56108   0.53821   0.50000   0.00000  Uiso   1.00
O777   O     0.43892   0.46179   0.50000   0.00000  Uiso   1.00
O778   O     0.50000   0.53821   0.42845   0.00000  Uiso   1.00
O779   O     0.50000   0.46179   0.57155   0.00000  Uiso   1.00
O780   O     0.50000   0.53821   0.57155   0.00000  Uiso   1.00
O781   O     0.50000   0.46179   0.42845   0.00000  Uiso   1.00
O782   O     0.37896   0.38522   0.51666   0.00000  Uiso   1.00
Zn783  Zn    0.50000   0.55104   0.50000   0.00000  Uiso   1.00
Zn784  Zn    0.50000   0.44896   0.50000   0.00000  Uiso   1.00
C785   C     0.75321   0.50070   0.50323   0.00000  Uiso   1.00
C786   C     0.68531   0.54168   0.49080   0.00000  Uiso   1.00
C787   C     0.95715   0.49778   0.48554   0.00000  Uiso   1.00
C788   C     0.70814   0.50195   0.50534   0.00000  Uiso   1.00
C789   C     0.85378   0.35659   0.53758   0.00000  Uiso   1.00
C790   C     0.81369   0.64338   0.46180   0.00000  Uiso   1.00
C791   C     0.81316   0.35815   0.46230   0.00000  Uiso   1.00
C792   C     0.85363   0.64192   0.53753   0.00000  Uiso   1.00
C793   C     0.70955   0.42166   0.53739   0.00000  Uiso   1.00
C794   C     0.95369   0.57668   0.45226   0.00000  Uiso   1.00
C795   C     0.96163   0.41355   0.48453   0.00000  Uiso   1.00
C796   C     0.91290   0.49932   0.49421   0.00000  Uiso   1.00
C797   C     0.70324   0.58720   0.49263   0.00000  Uiso   1.00
C798   C     0.87679   0.38051   0.57782   0.00000  Uiso   1.00
C799   C     0.79206   0.61909   0.42087   0.00000  Uiso   1.00
C800   C     0.78856   0.38405   0.42406   0.00000  Uiso   1.00
C801   C     0.87646   0.61651   0.57752   0.00000  Uiso   1.00
C802   C     0.83319   0.50005   0.40631   0.00000  Uiso   1.00
C803   C     0.83347   0.49995   0.59368   0.00000  Uiso   1.00
C804   C     0.83329   0.50006   0.35516   0.00000  Uiso   1.00
C805   C     0.83339   0.49994   0.64484   0.00000  Uiso   1.00
C806   C     0.68807   0.46065   0.51155   0.00000  Uiso   1.00
C807   C     0.97693   0.53833   0.47685   0.00000  Uiso   1.00
C808   C     0.98007   0.45775   0.49570   0.00000  Uiso   1.00
H809   H     0.74307   0.39939   0.59812   0.00000  Uiso   1.00
H810   H     0.92997   0.63925   0.45857   0.00000  Uiso   1.00
H811   H     0.92747   0.37779   0.43476   0.00000  Uiso   1.00
H812   H     0.71196   0.64581   0.45691   0.00000  Uiso   1.00
H813   H     0.89454   0.40950   0.56910   0.00000  Uiso   1.00
H814   H     0.77387   0.59037   0.42925   0.00000  Uiso   1.00
H815   H     0.76101   0.40287   0.43452   0.00000  Uiso   1.00
H816   H     0.86187   0.61061   0.61295   0.00000  Uiso   1.00
N817   N     0.83333   0.61907   0.50000   0.00000  Uiso   1.00
N818   N     0.83333   0.38093   0.50000   0.00000  Uiso   1.00
O819   O     0.77226   0.53821   0.50000   0.00000  Uiso   1.00
O820   O     0.72845   0.42773   0.58474   0.00000  Uiso   1.00
O821   O     0.93605   0.57132   0.41149   0.00000  Uiso   1.00
O822   O     0.95000   0.61775   0.47695   0.00000  Uiso   1.00
O823   O     0.96235   0.38362   0.51603   0.00000  Uiso   1.00
O824   O     0.94162   0.40754   0.43779   0.00000  Uiso   1.00
O825   O     0.71920   0.60075   0.53178   0.00000  Uiso   1.00
O826   O     0.70017   0.61514   0.45036   0.00000  Uiso   1.00
O827   O     0.87568   0.36849   0.62156   0.00000  Uiso   1.00
O828   O     0.79552   0.62969   0.37701   0.00000  Uiso   1.00
O829   O     0.79943   0.38537   0.38067   0.00000  Uiso   1.00
O830   O     0.89441   0.46179   0.50000   0.00000  Uiso   1.00
O831   O     0.91222   0.60363   0.57195   0.00000  Uiso   1.00
O832   O     0.89441   0.53821   0.50000   0.00000  Uiso   1.00
O833   O     0.77226   0.46179   0.50000   0.00000  Uiso   1.00
O834   O     0.83334   0.53821   0.42845   0.00000  Uiso   1.00
O835   O     0.83333   0.46179   0.57155   0.00000  Uiso   1.00
O836   O     0.83333   0.53821   0.57155   0.00000  Uiso   1.00
O837   O     0.83334   0.46179   0.42845   0.00000  Uiso   1.00
O838   O     0.71229   0.38522   0.51666   0.00000  Uiso   1.00
Zn839  Zn    0.83333   0.55104   0.50000   0.00000  Uiso   1.00
Zn840  Zn    0.83333   0.44896   0.50000   0.00000  Uiso   1.00
C841   C     0.08654   0.83403   0.50323   0.00000  Uiso   1.00
C842   C     0.01864   0.87501   0.49080   0.00000  Uiso   1.00
C843   C     0.29048   0.83111   0.48554   0.00000  Uiso   1.00
C844   C     0.04148   0.83528   0.50534   0.00000  Uiso   1.00
C845   C     0.18712   0.68992   0.53758   0.00000  Uiso   1.00
C846   C     0.14703   0.97672   0.46180   0.00000  Uiso   1.00
C847   C     0.14649   0.69149   0.46230   0.00000  Uiso   1.00
C848   C     0.18696   0.97525   0.53753   0.00000  Uiso   1.00
C849   C     0.04289   0.75499   0.53739   0.00000  Uiso   1.00
C850   C     0.28703   0.91001   0.45226   0.00000  Uiso   1.00
C851   C     0.29497   0.74688   0.48453   0.00000  Uiso   1.00
C852   C     0.24623   0.83265   0.49421   0.00000  Uiso   1.00
C853   C     0.03658   0.92053   0.49263   0.00000  Uiso   1.00
C854   C     0.21012   0.71385   0.57782   0.00000  Uiso   1.00
C855   C     0.12539   0.95242   0.42087   0.00000  Uiso   1.00
C856   C     0.12189   0.71738   0.42406   0.00000  Uiso   1.00
C857   C     0.20979   0.94985   0.57752   0.00000  Uiso   1.00
C858   C     0.16652   0.83338   0.40631   0.00000  Uiso   1.00
C859   C     0.16681   0.83329   0.59368   0.00000  Uiso   1.00
C860   C     0.16662   0.83340   0.35516   0.00000  Uiso   1.00
C861   C     0.16672   0.83327   0.64484   0.00000  Uiso   1.00
C862   C     0.02140   0.79398   0.51155   0.00000  Uiso   1.00
C863   C     0.31026   0.87166   0.47685   0.00000  Uiso   1.00
C864   C     0.31340   0.79109   0.49570   0.00000  Uiso   1.00
H865   H     0.07640   0.73273   0.59812   0.00000  Uiso   1.00
H866   H     0.26331   0.97258   0.45857   0.00000  Uiso   1.00
H867   H     0.26080   0.71112   0.43476   0.00000  Uiso   1.00
H868   H     0.04529   0.97914   0.45691   0.00000  Uiso   1.00
H869   H     0.22788   0.74283   0.56910   0.00000  Uiso   1.00
H870   H     0.10721   0.92370   0.42925   0.00000  Uiso   1.00
H871   H     0.09434   0.73620   0.43452   0.00000  Uiso   1.00
H872   H     0.19521   0.94394   0.61295   0.00000  Uiso   1.00
N873   N     0.16667   0.95240   0.50000   0.00000  Uiso   1.00
N874   N     0.16667   0.71427   0.50000   0.00000  Uiso   1.00
O875   O     0.10559   0.87154   0.50000   0.00000  Uiso   1.00
O876   O     0.06178   0.76106   0.58474   0.00000  Uiso   1.00
O877   O     0.26938   0.90466   0.41149   0.00000  Uiso   1.00
O878   O     0.28333   0.95108   0.47695   0.00000  Uiso   1.00
O879   O     0.29569   0.71696   0.51603   0.00000  Uiso   1.00
O880   O     0.27495   0.74088   0.43779   0.00000  Uiso   1.00
O881   O     0.05253   0.93408   0.53178   0.00000  Uiso   1.00
O882   O     0.03350   0.94847   0.45036   0.00000  Uiso   1.00
O883   O     0.20902   0.70182   0.62156   0.00000  Uiso   1.00
O884   O     0.12886   0.96302   0.37701   0.00000  Uiso   1.00
O885   O     0.13277   0.71870   0.38067   0.00000  Uiso   1.00
O886   O     0.22774   0.79513   0.50000   0.00000  Uiso   1.00
O887   O     0.24555   0.93696   0.57195   0.00000  Uiso   1.00
O888   O     0.22774   0.87154   0.50000   0.00000  Uiso   1.00
O889   O     0.10559   0.79513   0.50000   0.00000  Uiso   1.00
O890   O     0.16667   0.87155   0.42845   0.00000  Uiso   1.00
O891   O     0.16666   0.79512   0.57155   0.00000  Uiso   1.00
O892   O     0.16666   0.87155   0.57155   0.00000  Uiso   1.00
O893   O     0.16667   0.79512   0.42845   0.00000  Uiso   1.00
O894   O     0.04562   0.71855   0.51666   0.00000  Uiso   1.00
Zn895  Zn    0.16667   0.88437   0.50000   0.00000  Uiso   1.00
Zn896  Zn    0.16667   0.78229   0.50000   0.00000  Uiso   1.00
C897   C     0.41987   0.83403   0.50323   0.00000  Uiso   1.00
C898   C     0.35198   0.87501   0.49080   0.00000  Uiso   1.00
C899   C     0.62381   0.83111   0.48554   0.00000  Uiso   1.00
C900   C     0.37481   0.83528   0.50534   0.00000  Uiso   1.00
C901   C     0.52045   0.68992   0.53758   0.00000  Uiso   1.00
C902   C     0.48036   0.97672   0.46180   0.00000  Uiso   1.00
C903   C     0.47983   0.69149   0.46230   0.00000  Uiso   1.00
C904   C     0.52030   0.97525   0.53753   0.00000  Uiso   1.00
C905   C     0.37622   0.75499   0.53739   0.00000  Uiso   1.00
C906   C     0.62036   0.91001   0.45226   0.00000  Uiso   1.00
C907   C     0.62830   0.74688   0.48453   0.00000  Uiso   1.00
C908   C     0.57956   0.83265   0.49421   0.00000  Uiso   1.00
C909   C     0.36991   0.92053   0.49263   0.00000  Uiso   1.00
C910   C     0.54346   0.71385   0.57782   0.00000  Uiso   1.00
C911   C     0.45872   0.95242   0.42087   0.00000  Uiso   1.00
C912   C     0.45523   0.71738   0.42406   0.00000  Uiso   1.00
C913   C     0.54312   0.94985   0.57752   0.00000  Uiso   1.00
C914   C     0.49985   0.83338   0.40631   0.00000  Uiso   1.00
C915   C     0.50014   0.83329   0.59368   0.00000  Uiso   1.00
C916   C     0.49995   0.83340   0.35516   0.00000  Uiso   1.00
C917   C     0.50006   0.83327   0.64484   0.00000  Uiso   1.00
C918   C     0.35473   0.79398   0.51155   0.00000  Uiso   1.00
C919   C     0.64360   0.87166   0.47685   0.00000  Uiso   1.00
C920   C     0.64674   0.79109   0.49570   0.00000  Uiso   1.00
H921   H     0.40974   0.73273   0.59812   0.00000  Uiso   1.00
H922   H     0.59664   0.97258   0.45857   0.00000  Uiso   1.00
H923   H     0.59414   0.71112   0.43476   0.00000  Uiso   1.00
H924   H     0.37862   0.97914   0.45691   0.00000  Uiso   1.00
H925   H     0.56121   0.74283   0.56910   0.00000  Uiso   1.00
H926   H     0.44054   0.92370   0.42925   0.00000  Uiso   1.00
H927   H     0.42767   0.73620   0.43452   0.00000  Uiso   1.00
H928   H     0.52854   0.94394   0.61295   0.00000  Uiso   1.00
N929   N     0.50000   0.95240   0.50000   0.00000  Uiso   1.00
N930   N     0.50000   0.71427   0.50000   0.00000  Uiso   1.00
O931   O     0.43892   0.87154   0.50000   0.00000  Uiso   1.00
O932   O     0.39512   0.76106   0.58474   0.00000  Uiso   1.00
O933   O     0.60271   0.90466   0.41149   0.00000  Uiso   1.00
O934   O     0.61666   0.95108   0.47695   0.00000  Uiso   1.00
O935   O     0.62902   0.71696   0.51603   0.00000  Uiso   1.00
O936   O     0.60828   0.74088   0.43779   0.00000  Uiso   1.00
O937   O     0.38587   0.93408   0.53178   0.00000  Uiso   1.00
O938   O     0.36683   0.94847   0.45036   0.00000  Uiso   1.00
O939   O     0.54235   0.70182   0.62156   0.00000  Uiso   1.00
O940   O     0.46219   0.96302   0.37701   0.00000  Uiso   1.00
O941   O     0.46610   0.71870   0.38067   0.00000  Uiso   1.00
O942   O     0.56108   0.79513   0.50000   0.00000  Uiso   1.00
O943   O     0.57888   0.93696   0.57195   0.00000  Uiso   1.00
O944   O     0.56108   0.87154   0.50000   0.00000  Uiso   1.00
O945   O     0.43892   0.79513   0.50000   0.00000  Uiso   1.00
O946   O     0.50000   0.87155   0.42845   0.00000  Uiso   1.00
O947   O     0.50000   0.79512   0.57155   0.00000  Uiso   1.00
O948   O     0.50000   0.87155   0.57155   0.00000  Uiso   1.00
O949   O     0.50000   0.79512   0.42845   0.00000  Uiso   1.00
O950   O     0.37896   0.71855   0.51666   0.00000  Uiso   1.00
Zn951  Zn    0.50000   0.88437   0.50000   0.00000  Uiso   1.00
Zn952  Zn    0.50000   0.78229   0.50000   0.00000  Uiso   1.00
C953   C     0.75321   0.83403   0.50323   0.00000  Uiso   1.00
C954   C     0.68531   0.87501   0.49080   0.00000  Uiso   1.00
C955   C     0.95715   0.83111   0.48554   0.00000  Uiso   1.00
C956   C     0.70814   0.83528   0.50534   0.00000  Uiso   1.00
C957   C     0.85378   0.68992   0.53758   0.00000  Uiso   1.00
C958   C     0.81369   0.97672   0.46180   0.00000  Uiso   1.00
C959   C     0.81316   0.69149   0.46230   0.00000  Uiso   1.00
C960   C     0.85363   0.97525   0.53753   0.00000  Uiso   1.00
C961   C     0.70955   0.75499   0.53739   0.00000  Uiso   1.00
C962   C     0.95369   0.91001   0.45226   0.00000  Uiso   1.00
C963   C     0.96163   0.74688   0.48453   0.00000  Uiso   1.00
C964   C     0.91290   0.83265   0.49421   0.00000  Uiso   1.00
C965   C     0.70324   0.92053   0.49263   0.00000  Uiso   1.00
C966   C     0.87679   0.71385   0.57782   0.00000  Uiso   1.00
C967   C     0.79206   0.95242   0.42087   0.00000  Uiso   1.00
C968   C     0.78856   0.71738   0.42406   0.00000  Uiso   1.00
C969   C     0.87646   0.94985   0.57752   0.00000  Uiso   1.00
C970   C     0.83319   0.83338   0.40631   0.00000  Uiso   1.00
C971   C     0.83347   0.83329   0.59368   0.00000  Uiso   1.00
C972   C     0.83329   0.83340   0.35516   0.00000  Uiso   1.00
C973   C     0.83339   0.83327   0.64484   0.00000  Uiso   1.00
C974   C     0.68807   0.79398   0.51155   0.00000  Uiso   1.00
C975   C     0.97693   0.87166   0.47685   0.00000  Uiso   1.00
C976   C     0.98007   0.79109   0.49570   0.00000  Uiso   1.00
H977   H     0.74307   0.73273   0.59812   0.00000  Uiso   1.00
H978   H     0.92997   0.97258   0.45857   0.00000  Uiso   1.00
H979   H     0.92747   0.71112   0.43476   0.00000  Uiso   1.00
H980   H     0.71196   0.97914   0.45691   0.00000  Uiso   1.00
H981   H     0.89454   0.74283   0.56910   0.00000  Uiso   1.00
H982   H     0.77387   0.92370   0.42925   0.00000  Uiso   1.00
H983   H     0.76101   0.73620   0.43452   0.00000  Uiso   1.00
H984   H     0.86187   0.94394   0.61295   0.00000  Uiso   1.00
N985   N     0.83333   0.95240   0.50000   0.00000  Uiso   1.00
N986   N     0.83333   0.71427   0.50000   0.00000  Uiso   1.00
O987   O     0.77226   0.87154   0.50000   0.00000  Uiso   1.00
O988   O     0.72845   0.76106   0.58474   0.00000  Uiso   1.00
O989   O     0.93605   0.90466   0.41149   0.00000  Uiso   1.00
O990   O     0.95000   0.95108   0.47695   0.00000  Uiso   1.00
O991   O     0.96235   0.71696   0.51603   0.00000  Uiso   1.00
O992   O     0.94162   0.74088   0.43779   0.00000  Uiso   1.00
O993   O     0.71920   0.93408   0.53178   0.00000  Uiso   1.00
O994   O     0.70017   0.94847   0.45036   0.00000  Uiso   1.00
O995   O     0.87568   0.70182   0.62156   0.00000  Uiso   1.00
O996   O     0.79552   0.96302   0.37701   0.00000  Uiso   1.00
O997   O     0.79943   0.71870   0.38067   0.00000  Uiso   1.00
O998   O     0.89441   0.79513   0.50000   0.00000  Uiso   1.00
O999   O     0.91222   0.93696   0.57195   0.00000  Uiso   1.00
O1000  O     0.89441   0.87154   0.50000   0.00000  Uiso   1.00
O1001  O     0.77226   0.79513   0.50000   0.00000  Uiso   1.00
O1002  O     0.83334   0.87155   0.42845   0.00000  Uiso   1.00
O1003  O     0.83333   0.79512   0.57155   0.00000  Uiso   1.00
O1004  O     0.83333   0.87155   0.57155   0.00000  Uiso   1.00
O1005  O     0.83334   0.79512   0.42845   0.00000  Uiso   1.00
O1006  O     0.71229   0.71855   0.51666   0.00000  Uiso   1.00
Zn1007 Zn    0.83333   0.88437   0.50000   0.00000  Uiso   1.00
Zn1008 Zn    0.83333   0.78229   0.50000   0.00000  Uiso   1.00
C1009  C     0.08654   0.16736   0.83657   0.00000  Uiso   1.00
C1010  C     0.01864   0.20834   0.82413   0.00000  Uiso   1.00
C1011  C     0.29048   0.16445   0.81888   0.00000  Uiso   1.00
C1012  C     0.04148   0.16861   0.83867   0.00000  Uiso   1.00
C1013  C     0.18712   0.02326   0.87091   0.00000  Uiso   1.00
C1014  C     0.14703   0.31005   0.79513   0.00000  Uiso   1.00
C1015  C     0.14649   0.02482   0.79564   0.00000  Uiso   1.00
C1016  C     0.18696   0.30859   0.87086   0.00000  Uiso   1.00
C1017  C     0.04289   0.08833   0.87072   0.00000  Uiso   1.00
C1018  C     0.28703   0.24335   0.78559   0.00000  Uiso   1.00
C1019  C     0.29497   0.08022   0.81786   0.00000  Uiso   1.00
C1020  C     0.24623   0.16599   0.82755   0.00000  Uiso   1.00
C1021  C     0.03658   0.25386   0.82596   0.00000  Uiso   1.00
C1022  C     0.21012   0.04718   0.91115   0.00000  Uiso   1.00
C1023  C     0.12539   0.28576   0.75421   0.00000  Uiso   1.00
C1024  C     0.12189   0.05071   0.75740   0.00000  Uiso   1.00
C1025  C     0.20979   0.28318   0.91085   0.00000  Uiso   1.00
C1026  C     0.16652   0.16671   0.73965   0.00000  Uiso   1.00
C1027  C     0.16681   0.16662   0.92702   0.00000  Uiso   1.00
C1028  C     0.16662   0.16673   0.68850   0.00000  Uiso   1.00
C1029  C     0.16672   0.16660   0.97817   0.00000  Uiso   1.00
C1030  C     0.02140   0.12732   0.84489   0.00000  Uiso   1.00
C1031  C     0.31026   0.20499   0.81019   0.00000  Uiso   1.00
C1032  C     0.31340   0.12442   0.82903   0.00000  Uiso   1.00
H1033  H     0.07640   0.06606   0.93146   0.00000  Uiso   1.00
H1034  H     0.26331   0.30591   0.79190   0.00000  Uiso   1.00
H1035  H     0.26080   0.04446   0.76810   0.00000  Uiso   1.00
H1036  H     0.04529   0.31248   0.79024   0.00000  Uiso   1.00
H1037  H     0.22788   0.07616   0.90243   0.00000  Uiso   1.00
H1038  H     0.10721   0.25704   0.76259   0.00000  Uiso   1.00
H1039  H     0.09434   0.06953   0.76785   0.00000  Uiso   1.00
H1040  H     0.19521   0.27727   0.94628   0.00000  Uiso   1.00
N1041  N     0.16667   0.28573   0.83333   0.00000  Uiso   1.00
N1042  N     0.16667   0.04760   0.83333   0.00000  Uiso   1.00
O1043  O     0.10559   0.20487   0.83333   0.00000  Uiso   1.00
O1044  O     0.06178   0.09440   0.91807   0.00000  Uiso   1.00
O1045  O     0.26938   0.23799   0.74482   0.00000  Uiso   1.00
O1046  O     0.28333   0.28442   0.81029   0.00000  Uiso   1.00
O1047  O     0.29569   0.05029   0.84936   0.00000  Uiso   1.00
O1048  O     0.27495   0.07421   0.77112   0.00000  Uiso   1.00
O1049  O     0.05253   0.26742   0.86511   0.00000  Uiso   1.00
O1050  O     0.03350   0.28181   0.78369   0.00000  Uiso   1.00
O1051  O     0.20902   0.03516   0.95489   0.00000  Uiso   1.00
O1052  O     0.12886   0.29635   0.71034   0.00000  Uiso   1.00
O1053  O     0.13277   0.05204   0.71401   0.00000  Uiso   1.00
O1054  O     0.22774   0.12846   0.83334   0.00000  Uiso   1.00
O1055  O     0.24555   0.27029   0.90529   0.00000  Uiso   1.00
O1056  O     0.22774   0.20487   0.83334   0.00000  Uiso   1.00
O1057  O     0.10559   0.12846   0.83333   0.00000  Uiso   1.00
O1058  O     0.16667   0.20488   0.76178   0.00000  Uiso   1.00
O1059  O     0.16666   0.12845   0.90489   0.00000  Uiso   1.00
O1060  O     0.16666   0.20488   0.90489   0.00000  Uiso   1.00
O1061  O     0.16667   0.12845   0.76178   0.00000  Uiso   1.00
O1062  O     0.04562   0.05189   0.84999   0.00000  Uiso   1.00
Zn1063 Zn    0.16667   0.21771   0.83333   0.00000  Uiso   1.00
Zn1064 Zn    0.16667   0.11563   0.83333   0.00000  Uiso   1.00
C1065  C     0.41987   0.16736   0.83657   0.00000  Uiso   1.00
C1066  C     0.35198   0.20834   0.82413   0.00000  Uiso   1.00
C1067  C     0.62381   0.16445   0.81888   0.00000  Uiso   1.00
C1068  C     0.37481   0.16861   0.83867   0.00000  Uiso   1.00
C1069  C     0.52045   0.02326   0.87091   0.00000  Uiso   1.00
C1070  C     0.48036   0.31005   0.79513   0.00000  Uiso   1.00
C1071  C     0.47983   0.02482   0.79564   0.00000  Uiso   1.00
C1072  C     0.52030   0.30859   0.87086   0.00000  Uiso   1.00
C1073  C     0.37622   0.08833   0.87072   0.00000  Uiso   1.00
C1074  C     0.62036   0.24335   0.78559   0.00000  Uiso   1.00
C1075  C     0.62830   0.08022   0.81786   0.00000  Uiso   1.00
C1076  C     0.57956   0.16599   0.82755   0.00000  Uiso   1.00
C1077  C     0.36991   0.25386   0.82596   0.00000  Uiso   1.00
C1078  C     0.54346   0.04718   0.91115   0.00000  Uiso   1.00
C1079  C     0.45872   0.28576   0.75421   0.00000  Uiso   1.00
C1080  C     0.45523   0.05071   0.75740   0.00000  Uiso   1.00
C1081  C     0.54312   0.28318   0.91085   0.00000  Uiso   1.00
C1082  C     0.49985   0.16671   0.73965   0.00000  Uiso   1.00
C1083  C     0.50014   0.16662   0.92702   0.00000  Uiso   1.00
C1084  C     0.49995   0.16673   0.68850   0.00000  Uiso   1.00
C1085  C     0.50006   0.16660   0.97817   0.00000  Uiso   1.00
C1086  C     0.35473   0.12732   0.84489   0.00000  Uiso   1.00
C1087  C     0.64360   0.20499   0.81019   0.00000  Uiso   1.00
C1088  C     0.64674   0.12442   0.82903   0.00000  Uiso   1.00
H1089  H     0.40974   0.06606   0.93146   0.00000  Uiso   1.00
H1090  H     0.59664   0.30591   0.79190   0.00000  Uiso   1.00
H1091  H     0.59414   0.04446   0.76810   0.00000  Uiso   1.00
H1092  H     0.37862   0.31248   0.79024   0.00000  Uiso   1.00
H1093  H     0.56121   0.07616   0.90243   0.00000  Uiso   1.00
H1094  H     0.44054   0.25704   0.76259   0.00000  Uiso   1.00
H1095  H     0.42767   0.06953   0.76785   0.00000  Uiso   1.00
H1096  H     0.52854   0.27727   0.94628   0.00000  Uiso   1.00
N1097  N     0.50000   0.28573   0.83333   0.00000  Uiso   1.00
N1098  N     0.50000   0.04760   0.83333   0.00000  Uiso   1.00
O1099  O     0.43892   0.20487   0.83333   0.00000  Uiso   1.00
O1100  O     0.39512   0.09440   0.91807   0.00000  Uiso   1.00
O1101  O     0.60271   0.23799   0.74482   0.00000  Uiso   1.00
O1102  O     0.61666   0.28442   0.81029   0.00000  Uiso   1.00
O1103  O     0.62902   0.05029   0.84936   0.00000  Uiso   1.00
O1104  O     0.60828   0.07421   0.77112   0.00000  Uiso   1.00
O1105  O     0.38587   0.26742   0.86511   0.00000  Uiso   1.00
O1106  O     0.36683   0.28181   0.78369   0.00000  Uiso   1.00
O1107  O     0.54235   0.03516   0.95489   0.00000  Uiso   1.00
O1108  O     0.46219   0.29635   0.71034   0.00000  Uiso   1.00
O1109  O     0.46610   0.05204   0.71401   0.00000  Uiso   1.00
O1110  O     0.56108   0.12846   0.83334   0.00000  Uiso   1.00
O1111  O     0.57888   0.27029   0.90529   0.00000  Uiso   1.00
O1112  O     0.56108   0.20487   0.83334   0.00000  Uiso   1.00
O1113  O     0.43892   0.12846   0.83333   0.00000  Uiso   1.00
O1114  O     0.50000   0.20488   0.76178   0.00000  Uiso   1.00
O1115  O     0.50000   0.12845   0.90489   0.00000  Uiso   1.00
O1116  O     0.50000   0.20488   0.90489   0.00000  Uiso   1.00
O1117  O     0.50000   0.12845   0.76178   0.00000  Uiso   1.00
O1118  O     0.37896   0.05189   0.84999   0.00000  Uiso   1.00
Zn1119 Zn    0.50000   0.21771   0.83333   0.00000  Uiso   1.00
Zn1120 Zn    0.50000   0.11563   0.83333   0.00000  Uiso   1.00
C1121  C     0.75321   0.16736   0.83657   0.00000  Uiso   1.00
C1122  C     0.68531   0.20834   0.82413   0.00000  Uiso   1.00
C1123  C     0.95715   0.16445   0.81888   0.00000  Uiso   1.00
C1124  C     0.70814   0.16861   0.83867   0.00000  Uiso   1.00
C1125  C     0.85378   0.02326   0.87091   0.00000  Uiso   1.00
C1126  C     0.81369   0.31005   0.79513   0.00000  Uiso   1.00
C1127  C     0.81316   0.02482   0.79564   0.00000  Uiso   1.00
C1128  C     0.85363   0.30859   0.87086   0.00000  Uiso   1.00
C1129  C     0.70955   0.08833   0.87072   0.00000  Uiso   1.00
C1130  C     0.95369   0.24335   0.78559   0.00000  Uiso   1.00
C1131  C     0.96163   0.08022   0.81786   0.00000  Uiso   1.00
C1132  C     0.91290   0.16599   0.82755   0.00000  Uiso   1.00
C1133  C     0.70324   0.25386   0.82596   0.00000  Uiso   1.00
C1134  C     0.87679   0.04718   0.91115   0.00000  Uiso   1.00
C1135  C     0.79206   0.28576   0.75421   0.00000  Uiso   1.00
C1136  C     0.78856   0.05071   0.75740   0.00000  Uiso   1.00
C1137  C     0.87646   0.28318   0.91085   0.00000  Uiso   1.00
C1138  C     0.83319   0.16671   0.73965   0.00000  Uiso   1.00
C1139  C     0.83347   0.16662   0.92702   0.00000  Uiso   1.00
C1140  C     0.83329   0.16673   0.68850   0.00000  Uiso   1.00
C1141  C     0.83339   0.16660   0.97817   0.00000  Uiso   1.00
C1142  C     0.68807   0.12732   0.84489   0.00000  Uiso   1.00
C1143  C     0.97693   0.20499   0.81019   0.00000  Uiso   1.00
C1144  C     0.98007   0.12442   0.82903   0.00000  Uiso   1.00
H1145  H     0.74307   0.06606   0.93146   0.00000  Uiso   1.00
H1146  H     0.92997   0.30591   0.79190   0.00000  Uiso   1.00
H1147  H     0.92747   0.04446   0.76810   0.00000  Uiso   1.00
H1148  H     0.71196   0.31248   0.79024   0.00000  Uiso   1.00
H1149  H     0.89454   0.07616   0.90243   0.00000  Uiso   1.00
H1150  H     0.77387   0.25704   0.76259   0.00000  Uiso   1.00
H1151  H     0.76101   0.06953   0.76785   0.00000  Uiso   1.00
H1152  H     0.86187   0.27727   0.94628   0.00000  Uiso   1.00
N1153  N     0.83333   0.28573   0.83333   0.00000  Uiso   1.00
N1154  N     0.83333   0.04760   0.83333   0.00000  Uiso   1.00
O1155  O     0.77226   0.20487   0.83333   0.00000  Uiso   1.00
O1156  O     0.72845   0.09440   0.91807   0.00000  Uiso   1.00
O1157  O     0.93605   0.23799   0.74482   0.00000  Uiso   1.00
O1158  O     0.95000   0.28442   0.81029   0.00000  Uiso   1.00
O1159  O     0.96235   0.05029   0.84936   0.00000  Uiso   1.00
O1160  O     0.94162   0.07421   0.77112   0.00000  Uiso   1.00
O1161  O     0.71920   0.26742   0.86511   0.00000  Uiso   1.00
O1162  O     0.70017   0.28181   0.78369   0.00000  Uiso   1.00
O1163  O     0.87568   0.03516   0.95489   0.00000  Uiso   1.00
O1164  O     0.79552   0.29635   0.71034   0.00000  Uiso   1.00
O1165  O     0.79943   0.05204   0.71401   0.00000  Uiso   1.00
O1166  O     0.89441   0.12846   0.83334   0.00000  Uiso   1.00
O1167  O     0.91222   0.27029   0.90529   0.00000  Uiso   1.00
O1168  O     0.89441   0.20487   0.83334   0.00000  Uiso   1.00
O1169  O     0.77226   0.12846   0.83333   0.00000  Uiso   1.00
O1170  O     0.83334   0.20488   0.76178   0.00000  Uiso   1.00
O1171  O     0.83333   0.12845   0.90489   0.00000  Uiso   1.00
O1172  O     0.83333   0.20488   0.90489   0.00000  Uiso   1.00
O1173  O     0.83334   0.12845   0.76178   0.00000  Uiso   1.00
O1174  O     0.71229   0.05189   0.84999   0.00000  Uiso   1.00
Zn1175 Zn    0.83333   0.21771   0.83333   0.00000  Uiso   1.00
Zn1176 Zn    0.83333   0.11563   0.83333   0.00000  Uiso   1.00
C1177  C     0.08654   0.50070   0.83657   0.00000  Uiso   1.00
C1178  C     0.01864   0.54168   0.82413   0.00000  Uiso   1.00
C1179  C     0.29048   0.49778   0.81888   0.00000  Uiso   1.00
C1180  C     0.04148   0.50195   0.83867   0.00000  Uiso   1.00
C1181  C     0.18712   0.35659   0.87091   0.00000  Uiso   1.00
C1182  C     0.14703   0.64338   0.79513   0.00000  Uiso   1.00
C1183  C     0.14649   0.35815   0.79564   0.00000  Uiso   1.00
C1184  C     0.18696   0.64192   0.87086   0.00000  Uiso   1.00
C1185  C     0.04289   0.42166   0.87072   0.00000  Uiso   1.00
C1186  C     0.28703   0.57668   0.78559   0.00000  Uiso   1.00
C1187  C     0.29497   0.41355   0.81786   0.00000  Uiso   1.00
C1188  C     0.24623   0.49932   0.82755   0.00000  Uiso   1.00
C1189  C     0.03658   0.58720   0.82596   0.00000  Uiso   1.00
C1190  C     0.21012   0.38051   0.91115   0.00000  Uiso   1.00
C1191  C     0.12539   0.61909   0.75421   0.00000  Uiso   1.00
C1192  C     0.12189   0.38405   0.75740   0.00000  Uiso   1.00
C1193  C     0.20979   0.61651   0.91085   0.00000  Uiso   1.00
C1194  C     0.16652   0.50005   0.73965   0.00000  Uiso   1.00
C1195  C     0.16681   0.49995   0.92702   0.00000  Uiso   1.00
C1196  C     0.16662   0.50006   0.68850   0.00000  Uiso   1.00
C1197  C     0.16672   0.49994   0.97817   0.00000  Uiso   1.00
C1198  C     0.02140   0.46065   0.84489   0.00000  Uiso   1.00
C1199  C     0.31026   0.53833   0.81019   0.00000  Uiso   1.00
C1200  C     0.31340   0.45775   0.82903   0.00000  Uiso   1.00
H1201  H     0.07640   0.39939   0.93146   0.00000  Uiso   1.00
H1202  H     0.26331   0.63925   0.79190   0.00000  Uiso   1.00
H1203  H     0.26080   0.37779   0.76810   0.00000  Uiso   1.00
H1204  H     0.04529   0.64581   0.79024   0.00000  Uiso   1.00
H1205  H     0.22788   0.40950   0.90243   0.00000  Uiso   1.00
H1206  H     0.10721   0.59037   0.76259   0.00000  Uiso   1.00
H1207  H     0.09434   0.40287   0.76785   0.00000  Uiso   1.00
H1208  H     0.19521   0.61061   0.94628   0.00000  Uiso   1.00
N1209  N     0.16667   0.61907   0.83333   0.00000  Uiso   1.00
N1210  N     0.16667   0.38093   0.83333   0.00000  Uiso   1.00
O1211  O     0.10559   0.53821   0.83333   0.00000  Uiso   1.00
O1212  O     0.06178   0.42773   0.91807   0.00000  Uiso   1.00
O1213  O     0.26938   0.57132   0.74482   0.00000  Uiso   1.00
O1214  O     0.28333   0.61775   0.81029   0.00000  Uiso   1.00
O1215  O     0.29569   0.38362   0.84936   0.00000  Uiso   1.00
O1216  O     0.27495   0.40754   0.77112   0.00000  Uiso   1.00
O1217  O     0.05253   0.60075   0.86511   0.00000  Uiso   1.00
O1218  O     0.03350   0.61514   0.78369   0.00000  Uiso   1.00
O1219  O     0.20902   0.36849   0.95489   0.00000  Uiso   1.00
O1220  O     0.12886   0.62969   0.71034   0.00000  Uiso   1.00
O1221  O     0.13277   0.38537   0.71401   0.00000  Uiso   1.00
O1222  O     0.22774   0.46179   0.83334   0.00000  Uiso   1.00
O1223  O     0.24555   0.60363   0.90529   0.00000  Uiso   1.00
O1224  O     0.22774   0.53821   0.83334   0.00000  Uiso   1.00
O1225  O     0.10559   0.46179   0.83333   0.00000  Uiso   1.00
O1226  O     0.16667   0.53821   0.76178   0.00000  Uiso   1.00
O1227  O     0.16666   0.46179   0.90489   0.00000  Uiso   1.00
O1228  O     0.16666   0.53821   0.90489   0.00000  Uiso   1.00
O1229  O     0.16667   0.46179   0.76178   0.00000  Uiso   1.00
O1230  O     0.04562   0.38522   0.84999   0.00000  Uiso   1.00
Zn1231 Zn    0.16667   0.55104   0.83333   0.00000  Uiso   1.00
Zn1232 Zn    0.16667   0.44896   0.83333   0.00000  Uiso   1.00
C1233  C     0.41987   0.50070   0.83657   0.00000  Uiso   1.00
C1234  C     0.35198   0.54168   0.82413   0.00000  Uiso   1.00
C1235  C     0.62381   0.49778   0.81888   0.00000  Uiso   1.00
C1236  C     0.37481   0.50195   0.83867   0.00000  Uiso   1.00
C1237  C     0.52045   0.35659   0.87091   0.00000  Uiso   1.00
C1238  C     0.48036   0.64338   0.79513   0.00000  Uiso   1.00
C1239  C     0.47983   0.35815   0.79564   0.00000  Uiso   1.00
C1240  C     0.52030   0.64192   0.87086   0.00000  Uiso   1.00
C1241  C     0.37622   0.42166   0.87072   0.00000  Uiso   1.00
C1242  C     0.62036   0.57668   0.78559   0.00000  Uiso   1.00
C1243  C     0.62830   0.41355   0.81786   0.00000  Uiso   1.00
C1244  C     0.57956   0.49932   0.82755   0.00000  Uiso   1.00
C1245  C     0.36991   0.58720   0.82596   0.00000  Uiso   1.00
C1246  C     0.54346   0.38051   0.91115   0.00000  Uiso   1.00
C1247  C     0.45872   0.61909   0.75421   0.00000  Uiso   1.00
C1248  C     0.45523   0.38405   0.75740   0.00000  Uiso   1.00
C1249  C     0.54312   0.61651   0.91085   0.00000  Uiso   1.00
C1250  C     0.49985   0.50005   0.73965   0.00000  Uiso   1.00
C1251  C     0.50014   0.49995   0.92702   0.00000  Uiso   1.00
C1252  C     0.49995   0.50006   0.68850   0.00000  Uiso   1.00
C1253  C     0.50006   0.49994   0.97817   0.00000  Uiso   1.00
C1254  C     0.35473   0.46065   0.84489   0.00000  Uiso   1.00
C1255  C     0.64360   0.53833   0.81019   0.00000  Uiso   1.00
C1256  C     0.64674   0.45775   0.82903   0.00000  Uiso   1.00
H1257  H     0.40974   0.39939   0.93146   0.00000  Uiso   1.00
H1258  H     0.59664   0.63925   0.79190   0.00000  Uiso   1.00
H1259  H     0.59414   0.37779   0.76810   0.00000  Uiso   1.00
H1260  H     0.37862   0.64581   0.79024   0.00000  Uiso   1.00
H1261  H     0.56121   0.40950   0.90243   0.00000  Uiso   1.00
H1262  H     0.44054   0.59037   0.76259   0.00000  Uiso   1.00
H1263  H     0.42767   0.40287   0.76785   0.00000  Uiso   1.00
H1264  H     0.52854   0.61061   0.94628   0.00000  Uiso   1.00
N1265  N     0.50000   0.61907   0.83333   0.00000  Uiso   1.00
N1266  N     0.50000   0.38093   0.83333   0.00000  Uiso   1.00
O1267  O     0.43892   0.53821   0.83333   0.00000  Uiso   1.00
O1268  O     0.39512   0.42773   0.91807   0.00000  Uiso   1.00
O1269  O     0.60271   0.57132   0.74482   0.00000  Uiso   1.00
O1270  O     0.61666   0.61775   0.81029   0.00000  Uiso   1.00
O1271  O     0.62902   0.38362   0.84936   0.00000  Uiso   1.00
O1272  O     0.60828   0.40754   0.77112   0.00000  Uiso   1.00
O1273  O     0.38587   0.60075   0.86511   0.00000  Uiso   1.00
O1274  O     0.36683   0.61514   0.78369   0.00000  Uiso   1.00
O1275  O     0.54235   0.36849   0.95489   0.00000  Uiso   1.00
O1276  O     0.46219   0.62969   0.71034   0.00000  Uiso   1.00
O1277  O     0.46610   0.38537   0.71401   0.00000  Uiso   1.00
O1278  O     0.56108   0.46179   0.83334   0.00000  Uiso   1.00
O1279  O     0.57888   0.60363   0.90529   0.00000  Uiso   1.00
O1280  O     0.56108   0.53821   0.83334   0.00000  Uiso   1.00
O1281  O     0.43892   0.46179   0.83333   0.00000  Uiso   1.00
O1282  O     0.50000   0.53821   0.76178   0.00000  Uiso   1.00
O1283  O     0.50000   0.46179   0.90489   0.00000  Uiso   1.00
O1284  O     0.50000   0.53821   0.90489   0.00000  Uiso   1.00
O1285  O     0.50000   0.46179   0.76178   0.00000  Uiso   1.00
O1286  O     0.37896   0.38522   0.84999   0.00000  Uiso   1.00
Zn1287 Zn    0.50000   0.55104   0.83333   0.00000  Uiso   1.00
Zn1288 Zn    0.50000   0.44896   0.83333   0.00000  Uiso   1.00
C1289  C     0.75321   0.50070   0.83657   0.00000  Uiso   1.00
C1290  C     0.68531   0.54168   0.82413   0.00000  Uiso   1.00
C1291  C     0.95715   0.49778   0.81888   0.00000  Uiso   1.00
C1292  C     0.70814   0.50195   0.83867   0.00000  Uiso   1.00
C1293  C     0.85378   0.35659   0.87091   0.00000  Uiso   1.00
C1294  C     0.81369   0.64338   0.79513   0.00000  Uiso   1.00
C1295  C     0.81316   0.35815   0.79564   0.00000  Uiso   1.00
C1296  C     0.85363   0.64192   0.87086   0.00000  Uiso   1.00
C1297  C     0.70955   0.42166   0.87072   0.00000  Uiso   1.00
C1298  C     0.95369   0.57668   0.78559   0.00000  Uiso   1.00
C1299  C     0.96163   0.41355   0.81786   0.00000  Uiso   1.00
C1300  C     0.91290   0.49932   0.82755   0.00000  Uiso   1.00
C1301  C     0.70324   0.58720   0.82596   0.00000  Uiso   1.00
C1302  C     0.87679   0.38051   0.91115   0.00000  Uiso   1.00
C1303  C     0.79206   0.61909   0.75421   0.00000  Uiso   1.00
C1304  C     0.78856   0.38405   0.75740   0.00000  Uiso   1.00
C1305  C     0.87646   0.61651   0.91085   0.00000  Uiso   1.00
C1306  C     0.83319   0.50005   0.73965   0.00000  Uiso   1.00
C1307  C     0.83347   0.49995   0.92702   0.00000  Uiso   1.00
C1308  C     0.83329   0.50006   0.68850   0.00000  Uiso   1.00
C1309  C     0.83339   0.49994   0.97817   0.00000  Uiso   1.00
C1310  C     0.68807   0.46065   0.84489   0.00000  Uiso   1.00
C1311  C     0.97693   0.53833   0.81019   0.00000  Uiso   1.00
C1312  C     0.98007   0.45775   0.82903   0.00000  Uiso   1.00
H1313  H     0.74307   0.39939   0.93146   0.00000  Uiso   1.00
H1314  H     0.92997   0.63925   0.79190   0.00000  Uiso   1.00
H1315  H     0.92747   0.37779   0.76810   0.00000  Uiso   1.00
H1316  H     0.71196   0.64581   0.79024   0.00000  Uiso   1.00
H1317  H     0.89454   0.40950   0.90243   0.00000  Uiso   1.00
H1318  H     0.77387   0.59037   0.76259   0.00000  Uiso   1.00
H1319  H     0.76101   0.40287   0.76785   0.00000  Uiso   1.00
H1320  H     0.86187   0.61061   0.94628   0.00000  Uiso   1.00
N1321  N     0.83333   0.61907   0.83333   0.00000  Uiso   1.00
N1322  N     0.83333   0.38093   0.83333   0.00000  Uiso   1.00
O1323  O     0.77226   0.53821   0.83333   0.00000  Uiso   1.00
O1324  O     0.72845   0.42773   0.91807   0.00000  Uiso   1.00
O1325  O     0.93605   0.57132   0.74482   0.00000  Uiso   1.00
O1326  O     0.95000   0.61775   0.81029   0.00000  Uiso   1.00
O1327  O     0.96235   0.38362   0.84936   0.00000  Uiso   1.00
O1328  O     0.94162   0.40754   0.77112   0.00000  Uiso   1.00
O1329  O     0.71920   0.60075   0.86511   0.00000  Uiso   1.00
O1330  O     0.70017   0.61514   0.78369   0.00000  Uiso   1.00
O1331  O     0.87568   0.36849   0.95489   0.00000  Uiso   1.00
O1332  O     0.79552   0.62969   0.71034   0.00000  Uiso   1.00
O1333  O     0.79943   0.38537   0.71401   0.00000  Uiso   1.00
O1334  O     0.89441   0.46179   0.83334   0.00000  Uiso   1.00
O1335  O     0.91222   0.60363   0.90529   0.00000  Uiso   1.00
O1336  O     0.89441   0.53821   0.83334   0.00000  Uiso   1.00
O1337  O     0.77226   0.46179   0.83333   0.00000  Uiso   1.00
O1338  O     0.83334   0.53821   0.76178   0.00000  Uiso   1.00
O1339  O     0.83333   0.46179   0.90489   0.00000  Uiso   1.00
O1340  O     0.83333   0.53821   0.90489   0.00000  Uiso   1.00
O1341  O     0.83334   0.46179   0.76178   0.00000  Uiso   1.00
O1342  O     0.71229   0.38522   0.84999   0.00000  Uiso   1.00
Zn1343 Zn    0.83333   0.55104   0.83333   0.00000  Uiso   1.00
Zn1344 Zn    0.83333   0.44896   0.83333   0.00000  Uiso   1.00
C1345  C     0.08654   0.83403   0.83657   0.00000  Uiso   1.00
C1346  C     0.01864   0.87501   0.82413   0.00000  Uiso   1.00
C1347  C     0.29048   0.83111   0.81888   0.00000  Uiso   1.00
C1348  C     0.04148   0.83528   0.83867   0.00000  Uiso   1.00
C1349  C     0.18712   0.68992   0.87091   0.00000  Uiso   1.00
C1350  C     0.14703   0.97672   0.79513   0.00000  Uiso   1.00
C1351  C     0.14649   0.69149   0.79564   0.00000  Uiso   1.00
C1352  C     0.18696   0.97525   0.87086   0.00000  Uiso   1.00
C1353  C     0.04289   0.75499   0.87072   0.00000  Uiso   1.00
C1354  C     0.28703   0.91001   0.78559   0.00000  Uiso   1.00
C1355  C     0.29497   0.74688   0.81786   0.00000  Uiso   1.00
C1356  C     0.24623   0.83265   0.82755   0.00000  Uiso   1.00
C1357  C     0.03658   0.92053   0.82596   0.00000  Uiso   1.00
C1358  C     0.21012   0.71385   0.91115   0.00000  Uiso   1.00
C1359  C     0.12539   0.95242   0.75421   0.00000  Uiso   1.00
C1360  C     0.12189   0.71738   0.75740   0.00000  Uiso   1.00
C1361  C     0.20979   0.94985   0.91085   0.00000  Uiso   1.00
C1362  C     0.16652   0.83338   0.73965   0.00000  Uiso   1.00
C1363  C     0.16681   0.83329   0.92702   0.00000  Uiso   1.00
C1364  C     0.16662   0.83340   0.68850   0.00000  Uiso   1.00
C1365  C     0.16672   0.83327   0.97817   0.00000  Uiso   1.00
C1366  C     0.02140   0.79398   0.84489   0.00000  Uiso   1.00
C1367  C     0.31026   0.87166   0.81019   0.00000  Uiso   1.00
C1368  C     0.31340   0.79109   0.82903   0.00000  Uiso   1.00
H1369  H     0.07640   0.73273   0.93146   0.00000  Uiso   1.00
H1370  H     0.26331   0.97258   0.79190   0.00000  Uiso   1.00
H1371  H     0.26080   0.71112   0.76810   0.00000  Uiso   1.00
H1372  H     0.04529   0.97914   0.79024   0.00000  Uiso   1.00
H1373  H     0.22788   0.74283   0.90243   0.00000  Uiso   1.00
H1374  H     0.10721   0.92370   0.76259   0.00000  Uiso   1.00
H1375  H     0.09434   0.73620   0.76785   0.00000  Uiso   1.00
H1376  H     0.19521   0.94394   0.94628   0.00000  Uiso   1.00
N1377  N     0.16667   0.95240   0.83333   0.00000  Uiso   1.00
N1378  N     0.16667   0.71427   0.83333   0.00000  Uiso   1.00
O1379  O     0.10559   0.87154   0.83333   0.00000  Uiso   1.00
O1380  O     0.06178   0.76106   0.91807   0.00000  Uiso   1.00
O1381  O     0.26938   0.90466   0.74482   0.00000  Uiso   1.00
O1382  O     0.28333   0.95108   0.81029   0.00000  Uiso   1.00
O1383  O     0.29569   0.71696   0.84936   0.00000  Uiso   1.00
O1384  O     0.27495   0.74088   0.77112   0.00000  Uiso   1.00
O1385  O     0.05253   0.93408   0.86511   0.00000  Uiso   1.00
O1386  O     0.03350   0.94847   0.78369   0.00000  Uiso   1.00
O1387  O     0.20902   0.70182   0.95489   0.00000  Uiso   1.00
O1388  O     0.12886   0.96302   0.71034   0.00000  Uiso   1.00
O1389  O     0.13277   0.71870   0.71401   0.00000  Uiso   1.00
O1390  O     0.22774   0.79513   0.83334   0.00000  Uiso   1.00
O1391  O     0.24555   0.93696   0.90529   0.00000  Uiso   1.00
O1392  O     0.22774   0.87154   0.83334   0.00000  Uiso   1.00
O1393  O     0.10559   0.79513   0.83333   0.00000  Uiso   1.00
O1394  O     0.16667   0.87155   0.76178   0.00000  Uiso   1.00
O1395  O     0.16666   0.79512   0.90489   0.00000  Uiso   1.00
O1396  O     0.16666   0.87155   0.90489   0.00000  Uiso   1.00
O1397  O     0.16667   0.79512   0.76178   0.00000  Uiso   1.00
O1398  O     0.04562   0.71855   0.84999   0.00000  Uiso   1.00
Zn1399 Zn    0.16667   0.88437   0.83333   0.00000  Uiso   1.00
Zn1400 Zn    0.16667   0.78229   0.83333   0.00000  Uiso   1.00
C1401  C     0.41987   0.83403   0.83657   0.00000  Uiso   1.00
C1402  C     0.35198   0.87501   0.82413   0.00000  Uiso   1.00
C1403  C     0.62381   0.83111   0.81888   0.00000  Uiso   1.00
C1404  C     0.37481   0.83528   0.83867   0.00000  Uiso   1.00
C1405  C     0.52045   0.68992   0.87091   0.00000  Uiso   1.00
C1406  C     0.48036   0.97672   0.79513   0.00000  Uiso   1.00
C1407  C     0.47983   0.69149   0.79564   0.00000  Uiso   1.00
C1408  C     0.52030   0.97525   0.87086   0.00000  Uiso   1.00
C1409  C     0.37622   0.75499   0.87072   0.00000  Uiso   1.00
C1410  C     0.62036   0.91001   0.78559   0.00000  Uiso   1.00
C1411  C     0.62830   0.74688   0.81786   0.00000  Uiso   1.00
C1412  C     0.57956   0.83265   0.82755   0.00000  Uiso   1.00
C1413  C     0.36991   0.92053   0.82596   0.00000  Uiso   1.00
C1414  C     0.54346   0.71385   0.91115   0.00000  Uiso   1.00
C1415  C     0.45872   0.95242   0.75421   0.00000  Uiso   1.00
C1416  C     0.45523   0.71738   0.75740   0.00000  Uiso   1.00
C1417  C     0.54312   0.94985   0.91085   0.00000  Uiso   1.00
C1418  C     0.49985   0.83338   0.73965   0.00000  Uiso   1.00
C1419  C     0.50014   0.83329   0.92702   0.00000  Uiso   1.00
C1420  C     0.49995   0.83340   0.68850   0.00000  Uiso   1.00
C1421  C     0.50006   0.83327   0.97817   0.00000  Uiso   1.00
C1422  C     0.35473   0.79398   0.84489   0.00000  Uiso   1.00
C1423  C     0.64360   0.87166   0.81019   0.00000  Uiso   1.00
C1424  C     0.64674   0.79109   0.82903   0.00000  Uiso   1.00
H1425  H     0.40974   0.73273   0.93146   0.00000  Uiso   1.00
H1426  H     0.59664   0.97258   0.79190   0.00000  Uiso   1.00
H1427  H     0.59414   0.71112   0.76810   0.00000  Uiso   1.00
H1428  H     0.37862   0.97914   0.79024   0.00000  Uiso   1.00
H1429  H     0.56121   0.74283   0.90243   0.00000  Uiso   1.00
H1430  H     0.44054   0.92370   0.76259   0.00000  Uiso   1.00
H1431  H     0.42767   0.73620   0.76785   0.00000  Uiso   1.00
H1432  H     0.52854   0.94394   0.94628   0.00000  Uiso   1.00
N1433  N     0.50000   0.95240   0.83333   0.00000  Uiso   1.00
N1434  N     0.50000   0.71427   0.83333   0.00000  Uiso   1.00
O1435  O     0.43892   0.87154   0.83333   0.00000  Uiso   1.00
O1436  O     0.39512   0.76106   0.91807   0.00000  Uiso   1.00
O1437  O     0.60271   0.90466   0.74482   0.00000  Uiso   1.00
O1438  O     0.61666   0.95108   0.81029   0.00000  Uiso   1.00
O1439  O     0.62902   0.71696   0.84936   0.00000  Uiso   1.00
O1440  O     0.60828   0.74088   0.77112   0.00000  Uiso   1.00
O1441  O     0.38587   0.93408   0.86511   0.00000  Uiso   1.00
O1442  O     0.36683   0.94847   0.78369   0.00000  Uiso   1.00
O1443  O     0.54235   0.70182   0.95489   0.00000  Uiso   1.00
O1444  O     0.46219   0.96302   0.71034   0.00000  Uiso   1.00
O1445  O     0.46610   0.71870   0.71401   0.00000  Uiso   1.00
O1446  O     0.56108   0.79513   0.83334   0.00000  Uiso   1.00
O1447  O     0.57888   0.93696   0.90529   0.00000  Uiso   1.00
O1448  O     0.56108   0.87154   0.83334   0.00000  Uiso   1.00
O1449  O     0.43892   0.79513   0.83333   0.00000  Uiso   1.00
O1450  O     0.50000   0.87155   0.76178   0.00000  Uiso   1.00
O1451  O     0.50000   0.79512   0.90489   0.00000  Uiso   1.00
O1452  O     0.50000   0.87155   0.90489   0.00000  Uiso   1.00
O1453  O     0.50000   0.79512   0.76178   0.00000  Uiso   1.00
O1454  O     0.37896   0.71855   0.84999   0.00000  Uiso   1.00
Zn1455 Zn    0.50000   0.88437   0.83333   0.00000  Uiso   1.00
Zn1456 Zn    0.50000   0.78229   0.83333   0.00000  Uiso   1.00
C1457  C     0.75321   0.83403   0.83657   0.00000  Uiso   1.00
C1458  C     0.68531   0.87501   0.82413   0.00000  Uiso   1.00
C1459  C     0.95715   0.83111   0.81888   0.00000  Uiso   1.00
C1460  C     0.70814   0.83528   0.83867   0.00000  Uiso   1.00
C1461  C     0.85378   0.68992   0.87091   0.00000  Uiso   1.00
C1462  C     0.81369   0.97672   0.79513   0.00000  Uiso   1.00
C1463  C     0.81316   0.69149   0.79564   0.00000  Uiso   1.00
C1464  C     0.85363   0.97525   0.87086   0.00000  Uiso   1.00
C1465  C     0.70955   0.75499   0.87072   0.00000  Uiso   1.00
C1466  C     0.95369   0.91001   0.78559   0.00000  Uiso   1.00
C1467  C     0.96163   0.74688   0.81786   0.00000  Uiso   1.00
C1468  C     0.91290   0.83265   0.82755   0.00000  Uiso   1.00
C1469  C     0.70324   0.92053   0.82596   0.00000  Uiso   1.00
C1470  C     0.87679   0.71385   0.91115   0.00000  Uiso   1.00
C1471  C     0.79206   0.95242   0.75421   0.00000  Uiso   1.00
C1472  C     0.78856   0.71738   0.75740   0.00000  Uiso   1.00
C1473  C     0.87646   0.94985   0.91085   0.00000  Uiso   1.00
C1474  C     0.83319   0.83338   0.73965   0.00000  Uiso   1.00
C1475  C     0.83347   0.83329   0.92702   0.00000  Uiso   1.00
C1476  C     0.83329   0.83340   0.68850   0.00000  Uiso   1.00
C1477  C     0.83339   0.83327   0.97817   0.00000  Uiso   1.00
C1478  C     0.68807   0.79398   0.84489   0.00000  Uiso   1.00
C1479  C     0.97693   0.87166   0.81019   0.00000  Uiso   1.00
C1480  C     0.98007   0.79109   0.82903   0.00000  Uiso   1.00
H1481  H     0.74307   0.73273   0.93146   0.00000  Uiso   1.00
H1482  H     0.92997   0.97258   0.79190   0.00000  Uiso   1.00
H1483  H     0.92747   0.71112   0.76810   0.00000  Uiso   1.00
H1484  H     0.71196   0.97914   0.79024   0.00000  Uiso   1.00
H1485  H     0.89454   0.74283   0.90243   0.00000  Uiso   1.00
H1486  H     0.77387   0.92370   0.76259   0.00000  Uiso   1.00
H1487  H     0.76101   0.73620   0.76785   0.00000  Uiso   1.00
H1488  H     0.86187   0.94394   0.94628   0.00000  Uiso   1.00
N1489  N     0.83333   0.95240   0.83333   0.00000  Uiso   1.00
N1490  N     0.83333   0.71427   0.83333   0.00000  Uiso   1.00
O1491  O     0.77226   0.87154   0.83333   0.00000  Uiso   1.00
O1492  O     0.72845   0.76106   0.91807   0.00000  Uiso   1.00
O1493  O     0.93605   0.90466   0.74482   0.00000  Uiso   1.00
O1494  O     0.95000   0.95108   0.81029   0.00000  Uiso   1.00
O1495  O     0.96235   0.71696   0.84936   0.00000  Uiso   1.00
O1496  O     0.94162   0.74088   0.77112   0.00000  Uiso   1.00
O1497  O     0.71920   0.93408   0.86511   0.00000  Uiso   1.00
O1498  O     0.70017   0.94847   0.78369   0.00000  Uiso   1.00
O1499  O     0.87568   0.70182   0.95489   0.00000  Uiso   1.00
O1500  O     0.79552   0.96302   0.71034   0.00000  Uiso   1.00
O1501  O     0.79943   0.71870   0.71401   0.00000  Uiso   1.00
O1502  O     0.89441   0.79513   0.83334   0.00000  Uiso   1.00
O1503  O     0.91222   0.93696   0.90529   0.00000  Uiso   1.00
O1504  O     0.89441   0.87154   0.83334   0.00000  Uiso   1.00
O1505  O     0.77226   0.79513   0.83333   0.00000  Uiso   1.00
O1506  O     0.83334   0.87155   0.76178   0.00000  Uiso   1.00
O1507  O     0.83333   0.79512   0.90489   0.00000  Uiso   1.00
O1508  O     0.83333   0.87155   0.90489   0.00000  Uiso   1.00
O1509  O     0.83334   0.79512   0.76178   0.00000  Uiso   1.00
O1510  O     0.71229   0.71855   0.84999   0.00000  Uiso   1.00
Zn1511 Zn    0.83333   0.88437   0.83333   0.00000  Uiso   1.00
Zn1512 Zn    0.83333   0.78229   0.83333   0.00000  Uiso   1.00
loop_
_geom_bond_atom_site_label_1
_geom_bond_atom_site_label_2
_geom_bond_distance
_geom_bond_site_symmetry_2
_ccdc_geom_bond_type
C1     C4      1.456   .     S
C1     O35     1.295   .     A
C1     O49     1.302   .     A
C2     C4      1.423   .     A
C2     C13     1.490   .     S
C2     C135    1.390   1_455 S
C3     C23     1.404   .     A
C3     C24     1.407   .     A
C3     C12     1.453   .     S
C4     C22     1.418   .     A
C5     N34     1.375   .     A
C5     C14     1.480   .     S
C5     C344    1.431   1_545 S
C6     N33     1.375   .     A
C6     C15     1.478   .     S
C6     C175    1.434   .     S
C7     N34     1.371   .     A
C7     C16     1.474   .     S
C7     C342    1.434   1_545 S
C8     C17     1.472   .     S
C8     N33     1.371   .     A
C8     C173    1.431   .     S
C9     O54     1.223   .     D
C9     C22     1.492   .     S
C9     O36     1.398   .     S
C10    C23     1.488   .     S
C10    O38     1.396   .     S
C10    O37     1.223   .     D
C11    O39     1.223   .     D
C11    O40     1.399   .     S
C11    C24     1.487   .     S
C12    O48     1.301   .     A
C12    O46     1.293   .     A
C13    O41     1.223   .     D
C13    O42     1.399   .     S
C14    H29     1.079   .     S
C14    O43     1.221   .     D
C15    O44     1.220   .     D
C15    H30     1.078   .     S
C16    O45     1.221   .     D
C16    H31     1.082   .     S
C17    H32     1.085   .     S
C17    O47     1.219   .     D
C18    O50     1.283   .     A
C18    C20     1.364   .     S
C18    O53     1.282   .     A
C19    C21     1.364   .     S
C19    O51     1.283   .     A
C19    O52     1.282   .     A
C20    C1029   1.164   1_554 S
C21    C524    1.164   .     S
C22    C136    1.390   1_455 S
C23    C58     1.390   .     S
C24    C78     1.390   .     S
H25    O36     1.014   .     S
H26    O38     1.011   .     S
H27    O40     1.011   .     S
H28    O42     1.013   .     S
N33    Zn55    2.028   .     S
N34    Zn56    2.028   .     S
O35    Zn55    2.017   .     S
O46    Zn56    2.017   .     S
O48    Zn55    1.996   .     S
O49    Zn56    1.996   .     S
O50    Zn55    1.947   .     S
O51    Zn56    1.947   .     S
O52    Zn55    1.945   .     S
O53    Zn56    1.945   .     S
C57    C60     1.456   .     S
C57    O91     1.295   .     A
C57    O105    1.302   .     A
C58    C60     1.423   .     A
C58    C69     1.490   .     S
C59    C79     1.404   .     A
C59    C80     1.407   .     A
C59    C68     1.453   .     S
C60    C78     1.418   .     A
C61    N90     1.375   .     A
C61    C70     1.480   .     S
C61    C400    1.431   1_545 S
C62    N89     1.375   .     A
C62    C71     1.478   .     S
C62    C231    1.434   .     S
C63    N90     1.371   .     A
C63    C72     1.474   .     S
C63    C398    1.434   1_545 S
C64    C73     1.472   .     S
C64    N89     1.371   .     A
C64    C229    1.431   .     S
C65    O110    1.223   .     D
C65    C78     1.492   .     S
C65    O92     1.398   .     S
C66    C79     1.488   .     S
C66    O94     1.396   .     S
C66    O93     1.223   .     D
C67    O95     1.223   .     D
C67    O96     1.399   .     S
C67    C80     1.487   .     S
C68    O104    1.301   .     A
C68    O102    1.293   .     A
C69    O97     1.223   .     D
C69    O98     1.399   .     S
C70    H85     1.079   .     S
C70    O99     1.221   .     D
C71    O100    1.220   .     D
C71    H86     1.078   .     S
C72    O101    1.221   .     D
C72    H87     1.082   .     S
C73    H88     1.085   .     S
C73    O103    1.219   .     D
C74    O106    1.283   .     A
C74    C76     1.364   .     S
C74    O109    1.282   .     A
C75    C77     1.364   .     S
C75    O107    1.283   .     A
C75    O108    1.282   .     A
C76    C1085   1.164   1_554 S
C77    C580    1.164   .     S
C79    C114    1.390   .     S
C80    C134    1.390   .     S
H81    O92     1.014   .     S
H82    O94     1.011   .     S
H83    O96     1.011   .     S
H84    O98     1.013   .     S
N89    Zn111   2.028   .     S
N90    Zn112   2.028   .     S
O91    Zn111   2.017   .     S
O102   Zn112   2.017   .     S
O104   Zn111   1.996   .     S
O105   Zn112   1.996   .     S
O106   Zn111   1.947   .     S
O107   Zn112   1.947   .     S
O108   Zn111   1.945   .     S
O109   Zn112   1.945   .     S
C113   C116    1.456   .     S
C113   O147    1.295   .     A
C113   O161    1.302   .     A
C114   C116    1.423   .     A
C114   C125    1.490   .     S
C115   C135    1.404   .     A
C115   C136    1.407   .     A
C115   C124    1.453   .     S
C116   C134    1.418   .     A
C117   N146    1.375   .     A
C117   C126    1.480   .     S
C117   C456    1.431   1_545 S
C118   N145    1.375   .     A
C118   C127    1.478   .     S
C118   C287    1.434   .     S
C119   N146    1.371   .     A
C119   C128    1.474   .     S
C119   C454    1.434   1_545 S
C120   C129    1.472   .     S
C120   N145    1.371   .     A
C120   C285    1.431   .     S
C121   O166    1.223   .     D
C121   C134    1.492   .     S
C121   O148    1.398   .     S
C122   C135    1.488   .     S
C122   O150    1.396   .     S
C122   O149    1.223   .     D
C123   O151    1.223   .     D
C123   O152    1.399   .     S
C123   C136    1.487   .     S
C124   O160    1.301   .     A
C124   O158    1.293   .     A
C125   O153    1.223   .     D
C125   O154    1.399   .     S
C126   H141    1.079   .     S
C126   O155    1.221   .     D
C127   O156    1.220   .     D
C127   H142    1.078   .     S
C128   O157    1.221   .     D
C128   H143    1.082   .     S
C129   H144    1.085   .     S
C129   O159    1.219   .     D
C130   O162    1.283   .     A
C130   C132    1.364   .     S
C130   O165    1.282   .     A
C131   C133    1.364   .     S
C131   O163    1.283   .     A
C131   O164    1.282   .     A
C132   C1141   1.164   1_554 S
C133   C636    1.164   .     S
C135   C2      1.390   1_655 S
C136   C22     1.390   1_655 S
H137   O148    1.014   .     S
H138   O150    1.011   .     S
H139   O152    1.011   .     S
H140   O154    1.013   .     S
N145   Zn167   2.028   .     S
N146   Zn168   2.028   .     S
O147   Zn167   2.017   .     S
O158   Zn168   2.017   .     S
O160   Zn167   1.996   .     S
O161   Zn168   1.996   .     S
O162   Zn167   1.947   .     S
O163   Zn168   1.947   .     S
O164   Zn167   1.945   .     S
O165   Zn168   1.945   .     S
C169   C172    1.456   .     S
C169   O203    1.295   .     A
C169   O217    1.302   .     A
C170   C172    1.423   .     A
C170   C181    1.490   .     S
C170   C303    1.390   1_455 S
C171   C191    1.404   .     A
C171   C192    1.407   .     A
C171   C180    1.453   .     S
C172   C190    1.418   .     A
C173   N202    1.375   .     A
C173   C182    1.480   .     S
C174   N201    1.375   .     A
C174   C183    1.478   .     S
C174   C343    1.434   .     S
C175   N202    1.371   .     A
C175   C184    1.474   .     S
C176   C185    1.472   .     S
C176   N201    1.371   .     A
C176   C341    1.431   .     S
C177   O222    1.223   .     D
C177   C190    1.492   .     S
C177   O204    1.398   .     S
C178   C191    1.488   .     S
C178   O206    1.396   .     S
C178   O205    1.223   .     D
C179   O207    1.223   .     D
C179   O208    1.399   .     S
C179   C192    1.487   .     S
C180   O216    1.301   .     A
C180   O214    1.293   .     A
C181   O209    1.223   .     D
C181   O210    1.399   .     S
C182   H197    1.079   .     S
C182   O211    1.221   .     D
C183   O212    1.220   .     D
C183   H198    1.078   .     S
C184   O213    1.221   .     D
C184   H199    1.082   .     S
C185   H200    1.085   .     S
C185   O215    1.219   .     D
C186   O218    1.283   .     A
C186   C188    1.364   .     S
C186   O221    1.282   .     A
C187   C189    1.364   .     S
C187   O219    1.283   .     A
C187   O220    1.282   .     A
C188   C1197   1.164   1_554 S
C189   C692    1.164   .     S
C190   C304    1.390   1_455 S
C191   C226    1.390   .     S
C192   C246    1.390   .     S
H193   O204    1.014   .     S
H194   O206    1.011   .     S
H195   O208    1.011   .     S
H196   O210    1.013   .     S
N201   Zn223   2.028   .     S
N202   Zn224   2.028   .     S
O203   Zn223   2.017   .     S
O214   Zn224   2.017   .     S
O216   Zn223   1.996   .     S
O217   Zn224   1.996   .     S
O218   Zn223   1.947   .     S
O219   Zn224   1.947   .     S
O220   Zn223   1.945   .     S
O221   Zn224   1.945   .     S
C225   C228    1.456   .     S
C225   O259    1.295   .     A
C225   O273    1.302   .     A
C226   C228    1.423   .     A
C226   C237    1.490   .     S
C227   C247    1.404   .     A
C227   C248    1.407   .     A
C227   C236    1.453   .     S
C228   C246    1.418   .     A
C229   N258    1.375   .     A
C229   C238    1.480   .     S
C230   N257    1.375   .     A
C230   C239    1.478   .     S
C230   C399    1.434   .     S
C231   N258    1.371   .     A
C231   C240    1.474   .     S
C232   C241    1.472   .     S
C232   N257    1.371   .     A
C232   C397    1.431   .     S
C233   O278    1.223   .     D
C233   C246    1.492   .     S
C233   O260    1.398   .     S
C234   C247    1.488   .     S
C234   O262    1.396   .     S
C234   O261    1.223   .     D
C235   O263    1.223   .     D
C235   O264    1.399   .     S
C235   C248    1.487   .     S
C236   O272    1.301   .     A
C236   O270    1.293   .     A
C237   O265    1.223   .     D
C237   O266    1.399   .     S
C238   H253    1.079   .     S
C238   O267    1.221   .     D
C239   O268    1.220   .     D
C239   H254    1.078   .     S
C240   O269    1.221   .     D
C240   H255    1.082   .     S
C241   H256    1.085   .     S
C241   O271    1.219   .     D
C242   O274    1.283   .     A
C242   C244    1.364   .     S
C242   O277    1.282   .     A
C243   C245    1.364   .     S
C243   O275    1.283   .     A
C243   O276    1.282   .     A
C244   C1253   1.164   1_554 S
C245   C748    1.164   .     S
C247   C282    1.390   .     S
C248   C302    1.390   .     S
H249   O260    1.014   .     S
H250   O262    1.011   .     S
H251   O264    1.011   .     S
H252   O266    1.013   .     S
N257   Zn279   2.028   .     S
N258   Zn280   2.028   .     S
O259   Zn279   2.017   .     S
O270   Zn280   2.017   .     S
O272   Zn279   1.996   .     S
O273   Zn280   1.996   .     S
O274   Zn279   1.947   .     S
O275   Zn280   1.947   .     S
O276   Zn279   1.945   .     S
O277   Zn280   1.945   .     S
C281   C284    1.456   .     S
C281   O315    1.295   .     A
C281   O329    1.302   .     A
C282   C284    1.423   .     A
C282   C293    1.490   .     S
C283   C303    1.404   .     A
C283   C304    1.407   .     A
C283   C292    1.453   .     S
C284   C302    1.418   .     A
C285   N314    1.375   .     A
C285   C294    1.480   .     S
C286   N313    1.375   .     A
C286   C295    1.478   .     S
C286   C455    1.434   .     S
C287   N314    1.371   .     A
C287   C296    1.474   .     S
C288   C297    1.472   .     S
C288   N313    1.371   .     A
C288   C453    1.431   .     S
C289   O334    1.223   .     D
C289   C302    1.492   .     S
C289   O316    1.398   .     S
C290   C303    1.488   .     S
C290   O318    1.396   .     S
C290   O317    1.223   .     D
C291   O319    1.223   .     D
C291   O320    1.399   .     S
C291   C304    1.487   .     S
C292   O328    1.301   .     A
C292   O326    1.293   .     A
C293   O321    1.223   .     D
C293   O322    1.399   .     S
C294   H309    1.079   .     S
C294   O323    1.221   .     D
C295   O324    1.220   .     D
C295   H310    1.078   .     S
C296   O325    1.221   .     D
C296   H311    1.082   .     S
C297   H312    1.085   .     S
C297   O327    1.219   .     D
C298   O330    1.283   .     A
C298   C300    1.364   .     S
C298   O333    1.282   .     A
C299   C301    1.364   .     S
C299   O331    1.283   .     A
C299   O332    1.282   .     A
C300   C1309   1.164   1_554 S
C301   C804    1.164   .     S
C303   C170    1.390   1_655 S
C304   C190    1.390   1_655 S
H305   O316    1.014   .     S
H306   O318    1.011   .     S
H307   O320    1.011   .     S
H308   O322    1.013   .     S
N313   Zn335   2.028   .     S
N314   Zn336   2.028   .     S
O315   Zn335   2.017   .     S
O326   Zn336   2.017   .     S
O328   Zn335   1.996   .     S
O329   Zn336   1.996   .     S
O330   Zn335   1.947   .     S
O331   Zn336   1.947   .     S
O332   Zn335   1.945   .     S
O333   Zn336   1.945   .     S
C337   C340    1.456   .     S
C337   O371    1.295   .     A
C337   O385    1.302   .     A
C338   C340    1.423   .     A
C338   C349    1.490   .     S
C338   C471    1.390   1_455 S
C339   C359    1.404   .     A
C339   C360    1.407   .     A
C339   C348    1.453   .     S
C340   C358    1.418   .     A
C341   N370    1.375   .     A
C341   C350    1.480   .     S
C342   N369    1.375   .     A
C342   C351    1.478   .     S
C342   C7      1.434   1_565 S
C343   N370    1.371   .     A
C343   C352    1.474   .     S
C344   C353    1.472   .     S
C344   N369    1.371   .     A
C344   C5      1.431   1_565 S
C345   O390    1.223   .     D
C345   C358    1.492   .     S
C345   O372    1.398   .     S
C346   C359    1.488   .     S
C346   O374    1.396   .     S
C346   O373    1.223   .     D
C347   O375    1.223   .     D
C347   O376    1.399   .     S
C347   C360    1.487   .     S
C348   O384    1.301   .     A
C348   O382    1.293   .     A
C349   O377    1.223   .     D
C349   O378    1.399   .     S
C350   H365    1.079   .     S
C350   O379    1.221   .     D
C351   O380    1.220   .     D
C351   H366    1.078   .     S
C352   O381    1.221   .     D
C352   H367    1.082   .     S
C353   H368    1.085   .     S
C353   O383    1.219   .     D
C354   O386    1.283   .     A
C354   C356    1.364   .     S
C354   O389    1.282   .     A
C355   C357    1.364   .     S
C355   O387    1.283   .     A
C355   O388    1.282   .     A
C356   C1365   1.164   1_554 S
C357   C860    1.164   .     S
C358   C472    1.390   1_455 S
C359   C394    1.390   .     S
C360   C414    1.390   .     S
H361   O372    1.014   .     S
H362   O374    1.011   .     S
H363   O376    1.011   .     S
H364   O378    1.013   .     S
N369   Zn391   2.028   .     S
N370   Zn392   2.028   .     S
O371   Zn391   2.017   .     S
O382   Zn392   2.017   .     S
O384   Zn391   1.996   .     S
O385   Zn392   1.996   .     S
O386   Zn391   1.947   .     S
O387   Zn392   1.947   .     S
O388   Zn391   1.945   .     S
O389   Zn392   1.945   .     S
C393   C396    1.456   .     S
C393   O427    1.295   .     A
C393   O441    1.302   .     A
C394   C396    1.423   .     A
C394   C405    1.490   .     S
C395   C415    1.404   .     A
C395   C416    1.407   .     A
C395   C404    1.453   .     S
C396   C414    1.418   .     A
C397   N426    1.375   .     A
C397   C406    1.480   .     S
C398   N425    1.375   .     A
C398   C407    1.478   .     S
C398   C63     1.434   1_565 S
C399   N426    1.371   .     A
C399   C408    1.474   .     S
C400   C409    1.472   .     S
C400   N425    1.371   .     A
C400   C61     1.431   1_565 S
C401   O446    1.223   .     D
C401   C414    1.492   .     S
C401   O428    1.398   .     S
C402   C415    1.488   .     S
C402   O430    1.396   .     S
C402   O429    1.223   .     D
C403   O431    1.223   .     D
C403   O432    1.399   .     S
C403   C416    1.487   .     S
C404   O440    1.301   .     A
C404   O438    1.293   .     A
C405   O433    1.223   .     D
C405   O434    1.399   .     S
C406   H421    1.079   .     S
C406   O435    1.221   .     D
C407   O436    1.220   .     D
C407   H422    1.078   .     S
C408   O437    1.221   .     D
C408   H423    1.082   .     S
C409   H424    1.085   .     S
C409   O439    1.219   .     D
C410   O442    1.283   .     A
C410   C412    1.364   .     S
C410   O445    1.282   .     A
C411   C413    1.364   .     S
C411   O443    1.283   .     A
C411   O444    1.282   .     A
C412   C1421   1.164   1_554 S
C413   C916    1.164   .     S
C415   C450    1.390   .     S
C416   C470    1.390   .     S
H417   O428    1.014   .     S
H418   O430    1.011   .     S
H419   O432    1.011   .     S
H420   O434    1.013   .     S
N425   Zn447   2.028   .     S
N426   Zn448   2.028   .     S
O427   Zn447   2.017   .     S
O438   Zn448   2.017   .     S
O440   Zn447   1.996   .     S
O441   Zn448   1.996   .     S
O442   Zn447   1.947   .     S
O443   Zn448   1.947   .     S
O444   Zn447   1.945   .     S
O445   Zn448   1.945   .     S
C449   C452    1.456   .     S
C449   O483    1.295   .     A
C449   O497    1.302   .     A
C450   C452    1.423   .     A
C450   C461    1.490   .     S
C451   C471    1.404   .     A
C451   C472    1.407   .     A
C451   C460    1.453   .     S
C452   C470    1.418   .     A
C453   N482    1.375   .     A
C453   C462    1.480   .     S
C454   N481    1.375   .     A
C454   C463    1.478   .     S
C454   C119    1.434   1_565 S
C455   N482    1.371   .     A
C455   C464    1.474   .     S
C456   C465    1.472   .     S
C456   N481    1.371   .     A
C456   C117    1.431   1_565 S
C457   O502    1.223   .     D
C457   C470    1.492   .     S
C457   O484    1.398   .     S
C458   C471    1.488   .     S
C458   O486    1.396   .     S
C458   O485    1.223   .     D
C459   O487    1.223   .     D
C459   O488    1.399   .     S
C459   C472    1.487   .     S
C460   O496    1.301   .     A
C460   O494    1.293   .     A
C461   O489    1.223   .     D
C461   O490    1.399   .     S
C462   H477    1.079   .     S
C462   O491    1.221   .     D
C463   O492    1.220   .     D
C463   H478    1.078   .     S
C464   O493    1.221   .     D
C464   H479    1.082   .     S
C465   H480    1.085   .     S
C465   O495    1.219   .     D
C466   O498    1.283   .     A
C466   C468    1.364   .     S
C466   O501    1.282   .     A
C467   C469    1.364   .     S
C467   O499    1.283   .     A
C467   O500    1.282   .     A
C468   C1477   1.164   1_554 S
C469   C972    1.164   .     S
C471   C338    1.390   1_655 S
C472   C358    1.390   1_655 S
H473   O484    1.014   .     S
H474   O486    1.011   .     S
H475   O488    1.011   .     S
H476   O490    1.013   .     S
N481   Zn503   2.028   .     S
N482   Zn504   2.028   .     S
O483   Zn503   2.017   .     S
O494   Zn504   2.017   .     S
O496   Zn503   1.996   .     S
O497   Zn504   1.996   .     S
O498   Zn503   1.947   .     S
O499   Zn504   1.947   .     S
O500   Zn503   1.945   .     S
O501   Zn504   1.945   .     S
C505   C508    1.456   .     S
C505   O539    1.295   .     A
C505   O553    1.302   .     A
C506   C508    1.423   .     A
C506   C517    1.490   .     S
C506   C639    1.390   1_455 S
C507   C527    1.404   .     A
C507   C528    1.407   .     A
C507   C516    1.453   .     S
C508   C526    1.418   .     A
C509   N538    1.375   .     A
C509   C518    1.480   .     S
C509   C848    1.431   1_545 S
C510   N537    1.375   .     A
C510   C519    1.478   .     S
C510   C679    1.434   .     S
C511   N538    1.371   .     A
C511   C520    1.474   .     S
C511   C846    1.434   1_545 S
C512   C521    1.472   .     S
C512   N537    1.371   .     A
C512   C677    1.431   .     S
C513   O558    1.223   .     D
C513   C526    1.492   .     S
C513   O540    1.398   .     S
C514   C527    1.488   .     S
C514   O542    1.396   .     S
C514   O541    1.223   .     D
C515   O543    1.223   .     D
C515   O544    1.399   .     S
C515   C528    1.487   .     S
C516   O552    1.301   .     A
C516   O550    1.293   .     A
C517   O545    1.223   .     D
C517   O546    1.399   .     S
C518   H533    1.079   .     S
C518   O547    1.221   .     D
C519   O548    1.220   .     D
C519   H534    1.078   .     S
C520   O549    1.221   .     D
C520   H535    1.082   .     S
C521   H536    1.085   .     S
C521   O551    1.219   .     D
C522   O554    1.283   .     A
C522   C524    1.364   .     S
C522   O557    1.282   .     A
C523   C525    1.364   .     S
C523   O555    1.283   .     A
C523   O556    1.282   .     A
C525   C1028   1.164   .     S
C526   C640    1.390   1_455 S
C527   C562    1.390   .     S
C528   C582    1.390   .     S
H529   O540    1.014   .     S
H530   O542    1.011   .     S
H531   O544    1.011   .     S
H532   O546    1.013   .     S
N537   Zn559   2.028   .     S
N538   Zn560   2.028   .     S
O539   Zn559   2.017   .     S
O550   Zn560   2.017   .     S
O552   Zn559   1.996   .     S
O553   Zn560   1.996   .     S
O554   Zn559   1.947   .     S
O555   Zn560   1.947   .     S
O556   Zn559   1.945   .     S
O557   Zn560   1.945   .     S
C561   C564    1.456   .     S
C561   O595    1.295   .     A
C561   O609    1.302   .     A
C562   C564    1.423   .     A
C562   C573    1.490   .     S
C563   C583    1.404   .     A
C563   C584    1.407   .     A
C563   C572    1.453   .     S
C564   C582    1.418   .     A
C565   N594    1.375   .     A
C565   C574    1.480   .     S
C565   C904    1.431   1_545 S
C566   N593    1.375   .     A
C566   C575    1.478   .     S
C566   C735    1.434   .     S
C567   N594    1.371   .     A
C567   C576    1.474   .     S
C567   C902    1.434   1_545 S
C568   C577    1.472   .     S
C568   N593    1.371   .     A
C568   C733    1.431   .     S
C569   O614    1.223   .     D
C569   C582    1.492   .     S
C569   O596    1.398   .     S
C570   C583    1.488   .     S
C570   O598    1.396   .     S
C570   O597    1.223   .     D
C571   O599    1.223   .     D
C571   O600    1.399   .     S
C571   C584    1.487   .     S
C572   O608    1.301   .     A
C572   O606    1.293   .     A
C573   O601    1.223   .     D
C573   O602    1.399   .     S
C574   H589    1.079   .     S
C574   O603    1.221   .     D
C575   O604    1.220   .     D
C575   H590    1.078   .     S
C576   O605    1.221   .     D
C576   H591    1.082   .     S
C577   H592    1.085   .     S
C577   O607    1.219   .     D
C578   O610    1.283   .     A
C578   C580    1.364   .     S
C578   O613    1.282   .     A
C579   C581    1.364   .     S
C579   O611    1.283   .     A
C579   O612    1.282   .     A
C581   C1084   1.164   .     S
C583   C618    1.390   .     S
C584   C638    1.390   .     S
H585   O596    1.014   .     S
H586   O598    1.011   .     S
H587   O600    1.011   .     S
H588   O602    1.013   .     S
N593   Zn615   2.028   .     S
N594   Zn616   2.028   .     S
O595   Zn615   2.017   .     S
O606   Zn616   2.017   .     S
O608   Zn615   1.996   .     S
O609   Zn616   1.996   .     S
O610   Zn615   1.947   .     S
O611   Zn616   1.947   .     S
O612   Zn615   1.945   .     S
O613   Zn616   1.945   .     S
C617   C620    1.456   .     S
C617   O651    1.295   .     A
C617   O665    1.302   .     A
C618   C620    1.423   .     A
C618   C629    1.490   .     S
C619   C639    1.404   .     A
C619   C640    1.407   .     A
C619   C628    1.453   .     S
C620   C638    1.418   .     A
C621   N650    1.375   .     A
C621   C630    1.480   .     S
C621   C960    1.431   1_545 S
C622   N649    1.375   .     A
C622   C631    1.478   .     S
C622   C791    1.434   .     S
C623   N650    1.371   .     A
C623   C632    1.474   .     S
C623   C958    1.434   1_545 S
C624   C633    1.472   .     S
C624   N649    1.371   .     A
C624   C789    1.431   .     S
C625   O670    1.223   .     D
C625   C638    1.492   .     S
C625   O652    1.398   .     S
C626   C639    1.488   .     S
C626   O654    1.396   .     S
C626   O653    1.223   .     D
C627   O655    1.223   .     D
C627   O656    1.399   .     S
C627   C640    1.487   .     S
C628   O664    1.301   .     A
C628   O662    1.293   .     A
C629   O657    1.223   .     D
C629   O658    1.399   .     S
C630   H645    1.079   .     S
C630   O659    1.221   .     D
C631   O660    1.220   .     D
C631   H646    1.078   .     S
C632   O661    1.221   .     D
C632   H647    1.082   .     S
C633   H648    1.085   .     S
C633   O663    1.219   .     D
C634   O666    1.283   .     A
C634   C636    1.364   .     S
C634   O669    1.282   .     A
C635   C637    1.364   .     S
C635   O667    1.283   .     A
C635   O668    1.282   .     A
C637   C1140   1.164   .     S
C639   C506    1.390   1_655 S
C640   C526    1.390   1_655 S
H641   O652    1.014   .     S
H642   O654    1.011   .     S
H643   O656    1.011   .     S
H644   O658    1.013   .     S
N649   Zn671   2.028   .     S
N650   Zn672   2.028   .     S
O651   Zn671   2.017   .     S
O662   Zn672   2.017   .     S
O664   Zn671   1.996   .     S
O665   Zn672   1.996   .     S
O666   Zn671   1.947   .     S
O667   Zn672   1.947   .     S
O668   Zn671   1.945   .     S
O669   Zn672   1.945   .     S
C673   C676    1.456   .     S
C673   O707    1.295   .     A
C673   O721    1.302   .     A
C674   C676    1.423   .     A
C674   C685    1.490   .     S
C674   C807    1.390   1_455 S
C675   C695    1.404   .     A
C675   C696    1.407   .     A
C675   C684    1.453   .     S
C676   C694    1.418   .     A
C677   N706    1.375   .     A
C677   C686    1.480   .     S
C678   N705    1.375   .     A
C678   C687    1.478   .     S
C678   C847    1.434   .     S
C679   N706    1.371   .     A
C679   C688    1.474   .     S
C680   C689    1.472   .     S
C680   N705    1.371   .     A
C680   C845    1.431   .     S
C681   O726    1.223   .     D
C681   C694    1.492   .     S
C681   O708    1.398   .     S
C682   C695    1.488   .     S
C682   O710    1.396   .     S
C682   O709    1.223   .     D
C683   O711    1.223   .     D
C683   O712    1.399   .     S
C683   C696    1.487   .     S
C684   O720    1.301   .     A
C684   O718    1.293   .     A
C685   O713    1.223   .     D
C685   O714    1.399   .     S
C686   H701    1.079   .     S
C686   O715    1.221   .     D
C687   O716    1.220   .     D
C687   H702    1.078   .     S
C688   O717    1.221   .     D
C688   H703    1.082   .     S
C689   H704    1.085   .     S
C689   O719    1.219   .     D
C690   O722    1.283   .     A
C690   C692    1.364   .     S
C690   O725    1.282   .     A
C691   C693    1.364   .     S
C691   O723    1.283   .     A
C691   O724    1.282   .     A
C693   C1196   1.164   .     S
C694   C808    1.390   1_455 S
C695   C730    1.390   .     S
C696   C750    1.390   .     S
H697   O708    1.014   .     S
H698   O710    1.011   .     S
H699   O712    1.011   .     S
H700   O714    1.013   .     S
N705   Zn727   2.028   .     S
N706   Zn728   2.028   .     S
O707   Zn727   2.017   .     S
O718   Zn728   2.017   .     S
O720   Zn727   1.996   .     S
O721   Zn728   1.996   .     S
O722   Zn727   1.947   .     S
O723   Zn728   1.947   .     S
O724   Zn727   1.945   .     S
O725   Zn728   1.945   .     S
C729   C732    1.456   .     S
C729   O763    1.295   .     A
C729   O777    1.302   .     A
C730   C732    1.423   .     A
C730   C741    1.490   .     S
C731   C751    1.404   .     A
C731   C752    1.407   .     A
C731   C740    1.453   .     S
C732   C750    1.418   .     A
C733   N762    1.375   .     A
C733   C742    1.480   .     S
C734   N761    1.375   .     A
C734   C743    1.478   .     S
C734   C903    1.434   .     S
C735   N762    1.371   .     A
C735   C744    1.474   .     S
C736   C745    1.472   .     S
C736   N761    1.371   .     A
C736   C901    1.431   .     S
C737   O782    1.223   .     D
C737   C750    1.492   .     S
C737   O764    1.398   .     S
C738   C751    1.488   .     S
C738   O766    1.396   .     S
C738   O765    1.223   .     D
C739   O767    1.223   .     D
C739   O768    1.399   .     S
C739   C752    1.487   .     S
C740   O776    1.301   .     A
C740   O774    1.293   .     A
C741   O769    1.223   .     D
C741   O770    1.399   .     S
C742   H757    1.079   .     S
C742   O771    1.221   .     D
C743   O772    1.220   .     D
C743   H758    1.078   .     S
C744   O773    1.221   .     D
C744   H759    1.082   .     S
C745   H760    1.085   .     S
C745   O775    1.219   .     D
C746   O778    1.283   .     A
C746   C748    1.364   .     S
C746   O781    1.282   .     A
C747   C749    1.364   .     S
C747   O779    1.283   .     A
C747   O780    1.282   .     A
C749   C1252   1.164   .     S
C751   C786    1.390   .     S
C752   C806    1.390   .     S
H753   O764    1.014   .     S
H754   O766    1.011   .     S
H755   O768    1.011   .     S
H756   O770    1.013   .     S
N761   Zn783   2.028   .     S
N762   Zn784   2.028   .     S
O763   Zn783   2.017   .     S
O774   Zn784   2.017   .     S
O776   Zn783   1.996   .     S
O777   Zn784   1.996   .     S
O778   Zn783   1.947   .     S
O779   Zn784   1.947   .     S
O780   Zn783   1.945   .     S
O781   Zn784   1.945   .     S
C785   C788    1.456   .     S
C785   O819    1.295   .     A
C785   O833    1.302   .     A
C786   C788    1.423   .     A
C786   C797    1.490   .     S
C787   C807    1.404   .     A
C787   C808    1.407   .     A
C787   C796    1.453   .     S
C788   C806    1.418   .     A
C789   N818    1.375   .     A
C789   C798    1.480   .     S
C790   N817    1.375   .     A
C790   C799    1.478   .     S
C790   C959    1.434   .     S
C791   N818    1.371   .     A
C791   C800    1.474   .     S
C792   C801    1.472   .     S
C792   N817    1.371   .     A
C792   C957    1.431   .     S
C793   O838    1.223   .     D
C793   C806    1.492   .     S
C793   O820    1.398   .     S
C794   C807    1.488   .     S
C794   O822    1.396   .     S
C794   O821    1.223   .     D
C795   O823    1.223   .     D
C795   O824    1.399   .     S
C795   C808    1.487   .     S
C796   O832    1.301   .     A
C796   O830    1.293   .     A
C797   O825    1.223   .     D
C797   O826    1.399   .     S
C798   H813    1.079   .     S
C798   O827    1.221   .     D
C799   O828    1.220   .     D
C799   H814    1.078   .     S
C800   O829    1.221   .     D
C800   H815    1.082   .     S
C801   H816    1.085   .     S
C801   O831    1.219   .     D
C802   O834    1.283   .     A
C802   C804    1.364   .     S
C802   O837    1.282   .     A
C803   C805    1.364   .     S
C803   O835    1.283   .     A
C803   O836    1.282   .     A
C805   C1308   1.164   .     S
C807   C674    1.390   1_655 S
C808   C694    1.390   1_655 S
H809   O820    1.014   .     S
H810   O822    1.011   .     S
H811   O824    1.011   .     S
H812   O826    1.013   .     S
N817   Zn839   2.028   .     S
N818   Zn840   2.028   .     S
O819   Zn839   2.017   .     S
O830   Zn840   2.017   .     S
O832   Zn839   1.996   .     S
O833   Zn840   1.996   .     S
O834   Zn839   1.947   .     S
O835   Zn840   1.947   .     S
O836   Zn839   1.945   .     S
O837   Zn840   1.945   .     S
C841   C844    1.456   .     S
C841   O875    1.295   .     A
C841   O889    1.302   .     A
C842   C844    1.423   .     A
C842   C853    1.490   .     S
C842   C975    1.390   1_455 S
C843   C863    1.404   .     A
C843   C864    1.407   .     A
C843   C852    1.453   .     S
C844   C862    1.418   .     A
C845   N874    1.375   .     A
C845   C854    1.480   .     S
C846   N873    1.375   .     A
C846   C855    1.478   .     S
C846   C511    1.434   1_565 S
C847   N874    1.371   .     A
C847   C856    1.474   .     S
C848   C857    1.472   .     S
C848   N873    1.371   .     A
C848   C509    1.431   1_565 S
C849   O894    1.223   .     D
C849   C862    1.492   .     S
C849   O876    1.398   .     S
C850   C863    1.488   .     S
C850   O878    1.396   .     S
C850   O877    1.223   .     D
C851   O879    1.223   .     D
C851   O880    1.399   .     S
C851   C864    1.487   .     S
C852   O888    1.301   .     A
C852   O886    1.293   .     A
C853   O881    1.223   .     D
C853   O882    1.399   .     S
C854   H869    1.079   .     S
C854   O883    1.221   .     D
C855   O884    1.220   .     D
C855   H870    1.078   .     S
C856   O885    1.221   .     D
C856   H871    1.082   .     S
C857   H872    1.085   .     S
C857   O887    1.219   .     D
C858   O890    1.283   .     A
C858   C860    1.364   .     S
C858   O893    1.282   .     A
C859   C861    1.364   .     S
C859   O891    1.283   .     A
C859   O892    1.282   .     A
C861   C1364   1.164   .     S
C862   C976    1.390   1_455 S
C863   C898    1.390   .     S
C864   C918    1.390   .     S
H865   O876    1.014   .     S
H866   O878    1.011   .     S
H867   O880    1.011   .     S
H868   O882    1.013   .     S
N873   Zn895   2.028   .     S
N874   Zn896   2.028   .     S
O875   Zn895   2.017   .     S
O886   Zn896   2.017   .     S
O888   Zn895   1.996   .     S
O889   Zn896   1.996   .     S
O890   Zn895   1.947   .     S
O891   Zn896   1.947   .     S
O892   Zn895   1.945   .     S
O893   Zn896   1.945   .     S
C897   C900    1.456   .     S
C897   O931    1.295   .     A
C897   O945    1.302   .     A
C898   C900    1.423   .     A
C898   C909    1.490   .     S
C899   C919    1.404   .     A
C899   C920    1.407   .     A
C899   C908    1.453   .     S
C900   C918    1.418   .     A
C901   N930    1.375   .     A
C901   C910    1.480   .     S
C902   N929    1.375   .     A
C902   C911    1.478   .     S
C902   C567    1.434   1_565 S
C903   N930    1.371   .     A
C903   C912    1.474   .     S
C904   C913    1.472   .     S
C904   N929    1.371   .     A
C904   C565    1.431   1_565 S
C905   O950    1.223   .     D
C905   C918    1.492   .     S
C905   O932    1.398   .     S
C906   C919    1.488   .     S
C906   O934    1.396   .     S
C906   O933    1.223   .     D
C907   O935    1.223   .     D
C907   O936    1.399   .     S
C907   C920    1.487   .     S
C908   O944    1.301   .     A
C908   O942    1.293   .     A
C909   O937    1.223   .     D
C909   O938    1.399   .     S
C910   H925    1.079   .     S
C910   O939    1.221   .     D
C911   O940    1.220   .     D
C911   H926    1.078   .     S
C912   O941    1.221   .     D
C912   H927    1.082   .     S
C913   H928    1.085   .     S
C913   O943    1.219   .     D
C914   O946    1.283   .     A
C914   C916    1.364   .     S
C914   O949    1.282   .     A
C915   C917    1.364   .     S
C915   O947    1.283   .     A
C915   O948    1.282   .     A
C917   C1420   1.164   .     S
C919   C954    1.390   .     S
C920   C974    1.390   .     S
H921   O932    1.014   .     S
H922   O934    1.011   .     S
H923   O936    1.011   .     S
H924   O938    1.013   .     S
N929   Zn951   2.028   .     S
N930   Zn952   2.028   .     S
O931   Zn951   2.017   .     S
O942   Zn952   2.017   .     S
O944   Zn951   1.996   .     S
O945   Zn952   1.996   .     S
O946   Zn951   1.947   .     S
O947   Zn952   1.947   .     S
O948   Zn951   1.945   .     S
O949   Zn952   1.945   .     S
C953   C956    1.456   .     S
C953   O987    1.295   .     A
C953   O1001   1.302   .     A
C954   C956    1.423   .     A
C954   C965    1.490   .     S
C955   C975    1.404   .     A
C955   C976    1.407   .     A
C955   C964    1.453   .     S
C956   C974    1.418   .     A
C957   N986    1.375   .     A
C957   C966    1.480   .     S
C958   N985    1.375   .     A
C958   C967    1.478   .     S
C958   C623    1.434   1_565 S
C959   N986    1.371   .     A
C959   C968    1.474   .     S
C960   C969    1.472   .     S
C960   N985    1.371   .     A
C960   C621    1.431   1_565 S
C961   O1006   1.223   .     D
C961   C974    1.492   .     S
C961   O988    1.398   .     S
C962   C975    1.488   .     S
C962   O990    1.396   .     S
C962   O989    1.223   .     D
C963   O991    1.223   .     D
C963   O992    1.399   .     S
C963   C976    1.487   .     S
C964   O1000   1.301   .     A
C964   O998    1.293   .     A
C965   O993    1.223   .     D
C965   O994    1.399   .     S
C966   H981    1.079   .     S
C966   O995    1.221   .     D
C967   O996    1.220   .     D
C967   H982    1.078   .     S
C968   O997    1.221   .     D
C968   H983    1.082   .     S
C969   H984    1.085   .     S
C969   O999    1.219   .     D
C970   O1002   1.283   .     A
C970   C972    1.364   .     S
C970   O1005   1.282   .     A
C971   C973    1.364   .     S
C971   O1003   1.283   .     A
C971   O1004   1.282   .     A
C973   C1476   1.164   .     S
C975   C842    1.390   1_655 S
C976   C862    1.390   1_655 S
H977   O988    1.014   .     S
H978   O990    1.011   .     S
H979   O992    1.011   .     S
H980   O994    1.013   .     S
N985   Zn1007  2.028   .     S
N986   Zn1008  2.028   .     S
O987   Zn1007  2.017   .     S
O998   Zn1008  2.017   .     S
O1000  Zn1007  1.996   .     S
O1001  Zn1008  1.996   .     S
O1002  Zn1007  1.947   .     S
O1003  Zn1008  1.947   .     S
O1004  Zn1007  1.945   .     S
O1005  Zn1008  1.945   .     S
C1009  C1012   1.456   .     S
C1009  O1043   1.295   .     A
C1009  O1057   1.302   .     A
C1010  C1012   1.423   .     A
C1010  C1021   1.490   .     S
C1010  C1143   1.390   1_455 S
C1011  C1031   1.404   .     A
C1011  C1032   1.407   .     A
C1011  C1020   1.453   .     S
C1012  C1030   1.418   .     A
C1013  N1042   1.375   .     A
C1013  C1022   1.480   .     S
C1013  C1352   1.431   1_545 S
C1014  N1041   1.375   .     A
C1014  C1023   1.478   .     S
C1014  C1183   1.434   .     S
C1015  N1042   1.371   .     A
C1015  C1024   1.474   .     S
C1015  C1350   1.434   1_545 S
C1016  C1025   1.472   .     S
C1016  N1041   1.371   .     A
C1016  C1181   1.431   .     S
C1017  O1062   1.223   .     D
C1017  C1030   1.492   .     S
C1017  O1044   1.398   .     S
C1018  C1031   1.488   .     S
C1018  O1046   1.396   .     S
C1018  O1045   1.223   .     D
C1019  O1047   1.223   .     D
C1019  O1048   1.399   .     S
C1019  C1032   1.487   .     S
C1020  O1056   1.301   .     A
C1020  O1054   1.293   .     A
C1021  O1049   1.223   .     D
C1021  O1050   1.399   .     S
C1022  H1037   1.079   .     S
C1022  O1051   1.221   .     D
C1023  O1052   1.220   .     D
C1023  H1038   1.078   .     S
C1024  O1053   1.221   .     D
C1024  H1039   1.082   .     S
C1025  H1040   1.085   .     S
C1025  O1055   1.219   .     D
C1026  O1058   1.283   .     A
C1026  C1028   1.364   .     S
C1026  O1061   1.282   .     A
C1027  C1029   1.364   .     S
C1027  O1059   1.283   .     A
C1027  O1060   1.282   .     A
C1029  C20     1.164   1_556 S
C1030  C1144   1.390   1_455 S
C1031  C1066   1.390   .     S
C1032  C1086   1.390   .     S
H1033  O1044   1.014   .     S
H1034  O1046   1.011   .     S
H1035  O1048   1.011   .     S
H1036  O1050   1.013   .     S
N1041  Zn1063  2.028   .     S
N1042  Zn1064  2.028   .     S
O1043  Zn1063  2.017   .     S
O1054  Zn1064  2.017   .     S
O1056  Zn1063  1.996   .     S
O1057  Zn1064  1.996   .     S
O1058  Zn1063  1.947   .     S
O1059  Zn1064  1.947   .     S
O1060  Zn1063  1.945   .     S
O1061  Zn1064  1.945   .     S
C1065  C1068   1.456   .     S
C1065  O1099   1.295   .     A
C1065  O1113   1.302   .     A
C1066  C1068   1.423   .     A
C1066  C1077   1.490   .     S
C1067  C1087   1.404   .     A
C1067  C1088   1.407   .     A
C1067  C1076   1.453   .     S
C1068  C1086   1.418   .     A
C1069  N1098   1.375   .     A
C1069  C1078   1.480   .     S
C1069  C1408   1.431   1_545 S
C1070  N1097   1.375   .     A
C1070  C1079   1.478   .     S
C1070  C1239   1.434   .     S
C1071  N1098   1.371   .     A
C1071  C1080   1.474   .     S
C1071  C1406   1.434   1_545 S
C1072  C1081   1.472   .     S
C1072  N1097   1.371   .     A
C1072  C1237   1.431   .     S
C1073  O1118   1.223   .     D
C1073  C1086   1.492   .     S
C1073  O1100   1.398   .     S
C1074  C1087   1.488   .     S
C1074  O1102   1.396   .     S
C1074  O1101   1.223   .     D
C1075  O1103   1.223   .     D
C1075  O1104   1.399   .     S
C1075  C1088   1.487   .     S
C1076  O1112   1.301   .     A
C1076  O1110   1.293   .     A
C1077  O1105   1.223   .     D
C1077  O1106   1.399   .     S
C1078  H1093   1.079   .     S
C1078  O1107   1.221   .     D
C1079  O1108   1.220   .     D
C1079  H1094   1.078   .     S
C1080  O1109   1.221   .     D
C1080  H1095   1.082   .     S
C1081  H1096   1.085   .     S
C1081  O1111   1.219   .     D
C1082  O1114   1.283   .     A
C1082  C1084   1.364   .     S
C1082  O1117   1.282   .     A
C1083  C1085   1.364   .     S
C1083  O1115   1.283   .     A
C1083  O1116   1.282   .     A
C1085  C76     1.164   1_556 S
C1087  C1122   1.390   .     S
C1088  C1142   1.390   .     S
H1089  O1100   1.014   .     S
H1090  O1102   1.011   .     S
H1091  O1104   1.011   .     S
H1092  O1106   1.013   .     S
N1097  Zn1119  2.028   .     S
N1098  Zn1120  2.028   .     S
O1099  Zn1119  2.017   .     S
O1110  Zn1120  2.017   .     S
O1112  Zn1119  1.996   .     S
O1113  Zn1120  1.996   .     S
O1114  Zn1119  1.947   .     S
O1115  Zn1120  1.947   .     S
O1116  Zn1119  1.945   .     S
O1117  Zn1120  1.945   .     S
C1121  C1124   1.456   .     S
C1121  O1155   1.295   .     A
C1121  O1169   1.302   .     A
C1122  C1124   1.423   .     A
C1122  C1133   1.490   .     S
C1123  C1143   1.404   .     A
C1123  C1144   1.407   .     A
C1123  C1132   1.453   .     S
C1124  C1142   1.418   .     A
C1125  N1154   1.375   .     A
C1125  C1134   1.480   .     S
C1125  C1464   1.431   1_545 S
C1126  N1153   1.375   .     A
C1126  C1135   1.478   .     S
C1126  C1295   1.434   .     S
C1127  N1154   1.371   .     A
C1127  C1136   1.474   .     S
C1127  C1462   1.434   1_545 S
C1128  C1137   1.472   .     S
C1128  N1153   1.371   .     A
C1128  C1293   1.431   .     S
C1129  O1174   1.223   .     D
C1129  C1142   1.492   .     S
C1129  O1156   1.398   .     S
C1130  C1143   1.488   .     S
C1130  O1158   1.396   .     S
C1130  O1157   1.223   .     D
C1131  O1159   1.223   .     D
C1131  O1160   1.399   .     S
C1131  C1144   1.487   .     S
C1132  O1168   1.301   .     A
C1132  O1166   1.293   .     A
C1133  O1161   1.223   .     D
C1133  O1162   1.399   .     S
C1134  H1149   1.079   .     S
C1134  O1163   1.221   .     D
C1135  O1164   1.220   .     D
C1135  H1150   1.078   .     S
C1136  O1165   1.221   .     D
C1136  H1151   1.082   .     S
C1137  H1152   1.085   .     S
C1137  O1167   1.219   .     D
C1138  O1170   1.283   .     A
C1138  C1140   1.364   .     S
C1138  O1173   1.282   .     A
C1139  C1141   1.364   .     S
C1139  O1171   1.283   .     A
C1139  O1172   1.282   .     A
C1141  C132    1.164   1_556 S
C1143  C1010   1.390   1_655 S
C1144  C1030   1.390   1_655 S
H1145  O1156   1.014   .     S
H1146  O1158   1.011   .     S
H1147  O1160   1.011   .     S
H1148  O1162   1.013   .     S
N1153  Zn1175  2.028   .     S
N1154  Zn1176  2.028   .     S
O1155  Zn1175  2.017   .     S
O1166  Zn1176  2.017   .     S
O1168  Zn1175  1.996   .     S
O1169  Zn1176  1.996   .     S
O1170  Zn1175  1.947   .     S
O1171  Zn1176  1.947   .     S
O1172  Zn1175  1.945   .     S
O1173  Zn1176  1.945   .     S
C1177  C1180   1.456   .     S
C1177  O1211   1.295   .     A
C1177  O1225   1.302   .     A
C1178  C1180   1.423   .     A
C1178  C1189   1.490   .     S
C1178  C1311   1.390   1_455 S
C1179  C1199   1.404   .     A
C1179  C1200   1.407   .     A
C1179  C1188   1.453   .     S
C1180  C1198   1.418   .     A
C1181  N1210   1.375   .     A
C1181  C1190   1.480   .     S
C1182  N1209   1.375   .     A
C1182  C1191   1.478   .     S
C1182  C1351   1.434   .     S
C1183  N1210   1.371   .     A
C1183  C1192   1.474   .     S
C1184  C1193   1.472   .     S
C1184  N1209   1.371   .     A
C1184  C1349   1.431   .     S
C1185  O1230   1.223   .     D
C1185  C1198   1.492   .     S
C1185  O1212   1.398   .     S
C1186  C1199   1.488   .     S
C1186  O1214   1.396   .     S
C1186  O1213   1.223   .     D
C1187  O1215   1.223   .     D
C1187  O1216   1.399   .     S
C1187  C1200   1.487   .     S
C1188  O1224   1.301   .     A
C1188  O1222   1.293   .     A
C1189  O1217   1.223   .     D
C1189  O1218   1.399   .     S
C1190  H1205   1.079   .     S
C1190  O1219   1.221   .     D
C1191  O1220   1.220   .     D
C1191  H1206   1.078   .     S
C1192  O1221   1.221   .     D
C1192  H1207   1.082   .     S
C1193  H1208   1.085   .     S
C1193  O1223   1.219   .     D
C1194  O1226   1.283   .     A
C1194  C1196   1.364   .     S
C1194  O1229   1.282   .     A
C1195  C1197   1.364   .     S
C1195  O1227   1.283   .     A
C1195  O1228   1.282   .     A
C1197  C188    1.164   1_556 S
C1198  C1312   1.390   1_455 S
C1199  C1234   1.390   .     S
C1200  C1254   1.390   .     S
H1201  O1212   1.014   .     S
H1202  O1214   1.011   .     S
H1203  O1216   1.011   .     S
H1204  O1218   1.013   .     S
N1209  Zn1231  2.028   .     S
N1210  Zn1232  2.028   .     S
O1211  Zn1231  2.017   .     S
O1222  Zn1232  2.017   .     S
O1224  Zn1231  1.996   .     S
O1225  Zn1232  1.996   .     S
O1226  Zn1231  1.947   .     S
O1227  Zn1232  1.947   .     S
O1228  Zn1231  1.945   .     S
O1229  Zn1232  1.945   .     S
C1233  C1236   1.456   .     S
C1233  O1267   1.295   .     A
C1233  O1281   1.302   .     A
C1234  C1236   1.423   .     A
C1234  C1245   1.490   .     S
C1235  C1255   1.404   .     A
C1235  C1256   1.407   .     A
C1235  C1244   1.453   .     S
C1236  C1254   1.418   .     A
C1237  N1266   1.375   .     A
C1237  C1246   1.480   .     S
C1238  N1265   1.375   .     A
C1238  C1247   1.478   .     S
C1238  C1407   1.434   .     S
C1239  N1266   1.371   .     A
C1239  C1248   1.474   .     S
C1240  C1249   1.472   .     S
C1240  N1265   1.371   .     A
C1240  C1405   1.431   .     S
C1241  O1286   1.223   .     D
C1241  C1254   1.492   .     S
C1241  O1268   1.398   .     S
C1242  C1255   1.488   .     S
C1242  O1270   1.396   .     S
C1242  O1269   1.223   .     D
C1243  O1271   1.223   .     D
C1243  O1272   1.399   .     S
C1243  C1256   1.487   .     S
C1244  O1280   1.301   .     A
C1244  O1278   1.293   .     A
C1245  O1273   1.223   .     D
C1245  O1274   1.399   .     S
C1246  H1261   1.079   .     S
C1246  O1275   1.221   .     D
C1247  O1276   1.220   .     D
C1247  H1262   1.078   .     S
C1248  O1277   1.221   .     D
C1248  H1263   1.082   .     S
C1249  H1264   1.085   .     S
C1249  O1279   1.219   .     D
C1250  O1282   1.283   .     A
C1250  C1252   1.364   .     S
C1250  O1285   1.282   .     A
C1251  C1253   1.364   .     S
C1251  O1283   1.283   .     A
C1251  O1284   1.282   .     A
C1253  C244    1.164   1_556 S
C1255  C1290   1.390   .     S
C1256  C1310   1.390   .     S
H1257  O1268   1.014   .     S
H1258  O1270   1.011   .     S
H1259  O1272   1.011   .     S
H1260  O1274   1.013   .     S
N1265  Zn1287  2.028   .     S
N1266  Zn1288  2.028   .     S
O1267  Zn1287  2.017   .     S
O1278  Zn1288  2.017   .     S
O1280  Zn1287  1.996   .     S
O1281  Zn1288  1.996   .     S
O1282  Zn1287  1.947   .     S
O1283  Zn1288  1.947   .     S
O1284  Zn1287  1.945   .     S
O1285  Zn1288  1.945   .     S
C1289  C1292   1.456   .     S
C1289  O1323   1.295   .     A
C1289  O1337   1.302   .     A
C1290  C1292   1.423   .     A
C1290  C1301   1.490   .     S
C1291  C1311   1.404   .     A
C1291  C1312   1.407   .     A
C1291  C1300   1.453   .     S
C1292  C1310   1.418   .     A
C1293  N1322   1.375   .     A
C1293  C1302   1.480   .     S
C1294  N1321   1.375   .     A
C1294  C1303   1.478   .     S
C1294  C1463   1.434   .     S
C1295  N1322   1.371   .     A
C1295  C1304   1.474   .     S
C1296  C1305   1.472   .     S
C1296  N1321   1.371   .     A
C1296  C1461   1.431   .     S
C1297  O1342   1.223   .     D
C1297  C1310   1.492   .     S
C1297  O1324   1.398   .     S
C1298  C1311   1.488   .     S
C1298  O1326   1.396   .     S
C1298  O1325   1.223   .     D
C1299  O1327   1.223   .     D
C1299  O1328   1.399   .     S
C1299  C1312   1.487   .     S
C1300  O1336   1.301   .     A
C1300  O1334   1.293   .     A
C1301  O1329   1.223   .     D
C1301  O1330   1.399   .     S
C1302  H1317   1.079   .     S
C1302  O1331   1.221   .     D
C1303  O1332   1.220   .     D
C1303  H1318   1.078   .     S
C1304  O1333   1.221   .     D
C1304  H1319   1.082   .     S
C1305  H1320   1.085   .     S
C1305  O1335   1.219   .     D
C1306  O1338   1.283   .     A
C1306  C1308   1.364   .     S
C1306  O1341   1.282   .     A
C1307  C1309   1.364   .     S
C1307  O1339   1.283   .     A
C1307  O1340   1.282   .     A
C1309  C300    1.164   1_556 S
C1311  C1178   1.390   1_655 S
C1312  C1198   1.390   1_655 S
H1313  O1324   1.014   .     S
H1314  O1326   1.011   .     S
H1315  O1328   1.011   .     S
H1316  O1330   1.013   .     S
N1321  Zn1343  2.028   .     S
N1322  Zn1344  2.028   .     S
O1323  Zn1343  2.017   .     S
O1334  Zn1344  2.017   .     S
O1336  Zn1343  1.996   .     S
O1337  Zn1344  1.996   .     S
O1338  Zn1343  1.947   .     S
O1339  Zn1344  1.947   .     S
O1340  Zn1343  1.945   .     S
O1341  Zn1344  1.945   .     S
C1345  C1348   1.456   .     S
C1345  O1379   1.295   .     A
C1345  O1393   1.302   .     A
C1346  C1348   1.423   .     A
C1346  C1357   1.490   .     S
C1346  C1479   1.390   1_455 S
C1347  C1367   1.404   .     A
C1347  C1368   1.407   .     A
C1347  C1356   1.453   .     S
C1348  C1366   1.418   .     A
C1349  N1378   1.375   .     A
C1349  C1358   1.480   .     S
C1350  N1377   1.375   .     A
C1350  C1359   1.478   .     S
C1350  C1015   1.434   1_565 S
C1351  N1378   1.371   .     A
C1351  C1360   1.474   .     S
C1352  C1361   1.472   .     S
C1352  N1377   1.371   .     A
C1352  C1013   1.431   1_565 S
C1353  O1398   1.223   .     D
C1353  C1366   1.492   .     S
C1353  O1380   1.398   .     S
C1354  C1367   1.488   .     S
C1354  O1382   1.396   .     S
C1354  O1381   1.223   .     D
C1355  O1383   1.223   .     D
C1355  O1384   1.399   .     S
C1355  C1368   1.487   .     S
C1356  O1392   1.301   .     A
C1356  O1390   1.293   .     A
C1357  O1385   1.223   .     D
C1357  O1386   1.399   .     S
C1358  H1373   1.079   .     S
C1358  O1387   1.221   .     D
C1359  O1388   1.220   .     D
C1359  H1374   1.078   .     S
C1360  O1389   1.221   .     D
C1360  H1375   1.082   .     S
C1361  H1376   1.085   .     S
C1361  O1391   1.219   .     D
C1362  O1394   1.283   .     A
C1362  C1364   1.364   .     S
C1362  O1397   1.282   .     A
C1363  C1365   1.364   .     S
C1363  O1395   1.283   .     A
C1363  O1396   1.282   .     A
C1365  C356    1.164   1_556 S
C1366  C1480   1.390   1_455 S
C1367  C1402   1.390   .     S
C1368  C1422   1.390   .     S
H1369  O1380   1.014   .     S
H1370  O1382   1.011   .     S
H1371  O1384   1.011   .     S
H1372  O1386   1.013   .     S
N1377  Zn1399  2.028   .     S
N1378  Zn1400  2.028   .     S
O1379  Zn1399  2.017   .     S
O1390  Zn1400  2.017   .     S
O1392  Zn1399  1.996   .     S
O1393  Zn1400  1.996   .     S
O1394  Zn1399  1.947   .     S
O1395  Zn1400  1.947   .     S
O1396  Zn1399  1.945   .     S
O1397  Zn1400  1.945   .     S
C1401  C1404   1.456   .     S
C1401  O1435   1.295   .     A
C1401  O1449   1.302   .     A
C1402  C1404   1.423   .     A
C1402  C1413   1.490   .     S
C1403  C1423   1.404   .     A
C1403  C1424   1.407   .     A
C1403  C1412   1.453   .     S
C1404  C1422   1.418   .     A
C1405  N1434   1.375   .     A
C1405  C1414   1.480   .     S
C1406  N1433   1.375   .     A
C1406  C1415   1.478   .     S
C1406  C1071   1.434   1_565 S
C1407  N1434   1.371   .     A
C1407  C1416   1.474   .     S
C1408  C1417   1.472   .     S
C1408  N1433   1.371   .     A
C1408  C1069   1.431   1_565 S
C1409  O1454   1.223   .     D
C1409  C1422   1.492   .     S
C1409  O1436   1.398   .     S
C1410  C1423   1.488   .     S
C1410  O1438   1.396   .     S
C1410  O1437   1.223   .     D
C1411  O1439   1.223   .     D
C1411  O1440   1.399   .     S
C1411  C1424   1.487   .     S
C1412  O1448   1.301   .     A
C1412  O1446   1.293   .     A
C1413  O1441   1.223   .     D
C1413  O1442   1.399   .     S
C1414  H1429   1.079   .     S
C1414  O1443   1.221   .     D
C1415  O1444   1.220   .     D
C1415  H1430   1.078   .     S
C1416  O1445   1.221   .     D
C1416  H1431   1.082   .     S
C1417  H1432   1.085   .     S
C1417  O1447   1.219   .     D
C1418  O1450   1.283   .     A
C1418  C1420   1.364   .     S
C1418  O1453   1.282   .     A
C1419  C1421   1.364   .     S
C1419  O1451   1.283   .     A
C1419  O1452   1.282   .     A
C1421  C412    1.164   1_556 S
C1423  C1458   1.390   .     S
C1424  C1478   1.390   .     S
H1425  O1436   1.014   .     S
H1426  O1438   1.011   .     S
H1427  O1440   1.011   .     S
H1428  O1442   1.013   .     S
N1433  Zn1455  2.028   .     S
N1434  Zn1456  2.028   .     S
O1435  Zn1455  2.017   .     S
O1446  Zn1456  2.017   .     S
O1448  Zn1455  1.996   .     S
O1449  Zn1456  1.996   .     S
O1450  Zn1455  1.947   .     S
O1451  Zn1456  1.947   .     S
O1452  Zn1455  1.945   .     S
O1453  Zn1456  1.945   .     S
C1457  C1460   1.456   .     S
C1457  O1491   1.295   .     A
C1457  O1505   1.302   .     A
C1458  C1460   1.423   .     A
C1458  C1469   1.490   .     S
C1459  C1479   1.404   .     A
C1459  C1480   1.407   .     A
C1459  C1468   1.453   .     S
C1460  C1478   1.418   .     A
C1461  N1490   1.375   .     A
C1461  C1470   1.480   .     S
C1462  N1489   1.375   .     A
C1462  C1471   1.478   .     S
C1462  C1127   1.434   1_565 S
C1463  N1490   1.371   .     A
C1463  C1472   1.474   .     S
C1464  C1473   1.472   .     S
C1464  N1489   1.371   .     A
C1464  C1125   1.431   1_565 S
C1465  O1510   1.223   .     D
C1465  C1478   1.492   .     S
C1465  O1492   1.398   .     S
C1466  C1479   1.488   .     S
C1466  O1494   1.396   .     S
C1466  O1493   1.223   .     D
C1467  O1495   1.223   .     D
C1467  O1496   1.399   .     S
C1467  C1480   1.487   .     S
C1468  O1504   1.301   .     A
C1468  O1502   1.293   .     A
C1469  O1497   1.223   .     D
C1469  O1498   1.399   .     S
C1470  H1485   1.079   .     S
C1470  O1499   1.221   .     D
C1471  O1500   1.220   .     D
C1471  H1486   1.078   .     S
C1472  O1501   1.221   .     D
C1472  H1487   1.082   .     S
C1473  H1488   1.085   .     S
C1473  O1503   1.219   .     D
C1474  O1506   1.283   .     A
C1474  C1476   1.364   .     S
C1474  O1509   1.282   .     A
C1475  C1477   1.364   .     S
C1475  O1507   1.283   .     A
C1475  O1508   1.282   .     A
C1477  C468    1.164   1_556 S
C1479  C1346   1.390   1_655 S
C1480  C1366   1.390   1_655 S
H1481  O1492   1.014   .     S
H1482  O1494   1.011   .     S
H1483  O1496   1.011   .     S
H1484  O1498   1.013   .     S
N1489  Zn1511  2.028   .     S
N1490  Zn1512  2.028   .     S
O1491  Zn1511  2.017   .     S
O1502  Zn1512  2.017   .     S
O1504  Zn1511  1.996   .     S
O1505  Zn1512  1.996   .     S
O1506  Zn1511  1.947   .     S
O1507  Zn1512  1.947   .     S
O1508  Zn1511  1.945   .     S
O1509  Zn1512  1.945   .     S
