data_str_m3_o10_o16_pcu_sym.47
_audit_creation_date              2020-01-03
_audit_creation_method            'Materials Studio'
_symmetry_space_group_name_H-M    'P1'
_symmetry_Int_Tables_number       1
_symmetry_cell_setting            triclinic
loop_
_symmetry_equiv_pos_as_xyz
  x,y,z
_cell_length_a                    23.4939
_cell_length_b                    25.7118
_cell_length_c                    35.9980
_cell_angle_alpha                 91.7638
_cell_angle_beta                  101.1508
_cell_angle_gamma                 94.0527
loop_
_atom_site_label
_atom_site_type_symbol
_atom_site_fract_x
_atom_site_fract_y
_atom_site_fract_z
_atom_site_U_iso_or_equiv
_atom_site_adp_type
_atom_site_occupancy
C1     C     0.01467   0.26487   0.16535   0.00000  Uiso   1.00
C2     C     0.05236   0.17022   0.27848   0.00000  Uiso   1.00
C3     C     0.02187   0.31933   0.16374   0.00000  Uiso   1.00
C4     C     0.03549   0.16928   0.23712   0.00000  Uiso   1.00
C5     C     0.31003   0.01375   0.16662   0.00000  Uiso   1.00
C6     C     0.31807   0.06838   0.16670   0.00000  Uiso   1.00
C7     C     0.29774   0.16373   0.09634   0.00000  Uiso   1.00
C8     C     0.26764   0.09487   0.00165   0.00000  Uiso   1.00
C9     C     0.27795   0.15452   0.05591   0.00000  Uiso   1.00
C10    C     0.02555   0.20359   0.30048   0.00000  Uiso   1.00
C11    C     0.04829   0.21173   0.00569   0.00000  Uiso   1.00
C12    C     0.13074   0.16216   0.33195   0.00000  Uiso   1.00
C13    C     0.10059   0.19153   0.02201   0.00000  Uiso   1.00
C14    C     0.31613   0.27685   0.27959   0.00000  Uiso   1.00
C15    C     0.25943   0.29664   0.25920   0.00000  Uiso   1.00
C16    C     0.11656   0.19424   0.06396   0.00000  Uiso   1.00
C17    C     0.08008   0.06321   0.25065   0.00000  Uiso   1.00
C18    C     0.10039   0.14371   0.29574   0.00000  Uiso   1.00
C19    C     0.18924   0.14963   0.00948   0.00000  Uiso   1.00
C20    C     0.21135   0.11042   0.32217   0.00000  Uiso   1.00
C21    C     0.17580   0.08506   0.29056   0.00000  Uiso   1.00
C22    C     0.11971   0.09983   0.27795   0.00000  Uiso   1.00
C23    C     0.22706   0.17590   0.03982   0.00000  Uiso   1.00
C24    C     0.30008   0.11545   0.03614   0.00000  Uiso   1.00
H25    H     0.00700   0.09895   0.04826   0.00000  Uiso   1.00
H26    H     0.01610   0.28380   0.26165   0.00000  Uiso   1.00
H27    H     0.33029   0.29934   0.30715   0.00000  Uiso   1.00
H28    H     0.22515   0.29003   0.27628   0.00000  Uiso   1.00
H29    H     0.26565   0.00563   0.25479   0.00000  Uiso   1.00
H30    H     0.24509   0.27579   0.23115   0.00000  Uiso   1.00
H31    H     0.14106   0.16422   0.07853   0.00000  Uiso   1.00
H32    H     0.09753   0.03759   0.23185   0.00000  Uiso   1.00
H33    H     0.26759   0.32996   0.16966   0.00000  Uiso   1.00
H34    H     0.15681   0.12413   0.13958   0.00000  Uiso   1.00
H35    H     0.17649   0.20870   0.19411   0.00000  Uiso   1.00
H36    H     0.19085   0.05225   0.27660   0.00000  Uiso   1.00
H37    H     0.28464   0.06434   0.31986   0.00000  Uiso   1.00
H38    H     0.21576   0.21069   0.05340   0.00000  Uiso   1.00
H39    H     0.02418   0.23326   0.02300   0.00000  Uiso   1.00
H40    H     0.06427   0.00312   0.16061   0.00000  Uiso   1.00
N41    N     0.14493   0.15223   0.15695   0.00000  Uiso   1.00
N42    N     0.18840   0.18110   0.17638   0.00000  Uiso   1.00
O43    O     0.29769   0.24629   0.16905   0.00000  Uiso   1.00
O44    O     0.10242   0.22987   0.08262   0.00000  Uiso   1.00
O45    O     0.02801   0.05905   0.25054   0.00000  Uiso   1.00
O46    O     0.05742   0.23704   0.16282   0.00000  Uiso   1.00
O47    O     0.31490   0.17358   0.22253   0.00000  Uiso   1.00
O48    O     0.07463   0.16433   0.21631   0.00000  Uiso   1.00
O49    O     0.27592   0.09629   0.17051   0.00000  Uiso   1.00
O50    O     0.03565   0.08704   0.16428   0.00000  Uiso   1.00
O51    O     0.25870   0.16901   0.11703   0.00000  Uiso   1.00
O52    O     0.01843   0.15976   0.11080   0.00000  Uiso   1.00
O53    O     0.30649   0.22318   0.28528   0.00000  Uiso   1.00
Zn54   Zn    0.27119   0.17284   0.17082   0.00000  Uiso   1.00
Zn55   Zn    0.06214   0.16049   0.16251   0.00000  Uiso   1.00
C56    C     0.34800   0.26487   0.16535   0.00000  Uiso   1.00
C57    C     0.38569   0.17022   0.27848   0.00000  Uiso   1.00
C58    C     0.35521   0.31933   0.16374   0.00000  Uiso   1.00
C59    C     0.36882   0.16928   0.23712   0.00000  Uiso   1.00
C60    C     0.64336   0.01375   0.16662   0.00000  Uiso   1.00
C61    C     0.65140   0.06838   0.16670   0.00000  Uiso   1.00
C62    C     0.63108   0.16373   0.09634   0.00000  Uiso   1.00
C63    C     0.60098   0.09487   0.00165   0.00000  Uiso   1.00
C64    C     0.61129   0.15452   0.05591   0.00000  Uiso   1.00
C65    C     0.35888   0.20359   0.30048   0.00000  Uiso   1.00
C66    C     0.38162   0.21173   0.00569   0.00000  Uiso   1.00
C67    C     0.46408   0.16216   0.33195   0.00000  Uiso   1.00
C68    C     0.43392   0.19153   0.02201   0.00000  Uiso   1.00
C69    C     0.64947   0.27685   0.27959   0.00000  Uiso   1.00
C70    C     0.59276   0.29664   0.25920   0.00000  Uiso   1.00
C71    C     0.44989   0.19424   0.06396   0.00000  Uiso   1.00
C72    C     0.41342   0.06321   0.25065   0.00000  Uiso   1.00
C73    C     0.43372   0.14371   0.29574   0.00000  Uiso   1.00
C74    C     0.52257   0.14963   0.00948   0.00000  Uiso   1.00
C75    C     0.54468   0.11042   0.32217   0.00000  Uiso   1.00
C76    C     0.50913   0.08506   0.29056   0.00000  Uiso   1.00
C77    C     0.45304   0.09983   0.27795   0.00000  Uiso   1.00
C78    C     0.56039   0.17590   0.03982   0.00000  Uiso   1.00
C79    C     0.63341   0.11545   0.03614   0.00000  Uiso   1.00
H80    H     0.34034   0.09895   0.04826   0.00000  Uiso   1.00
H81    H     0.34943   0.28380   0.26165   0.00000  Uiso   1.00
H82    H     0.66363   0.29934   0.30715   0.00000  Uiso   1.00
H83    H     0.55849   0.29003   0.27628   0.00000  Uiso   1.00
H84    H     0.59899   0.00563   0.25479   0.00000  Uiso   1.00
H85    H     0.57842   0.27579   0.23115   0.00000  Uiso   1.00
H86    H     0.47439   0.16422   0.07853   0.00000  Uiso   1.00
H87    H     0.43086   0.03759   0.23185   0.00000  Uiso   1.00
H88    H     0.60092   0.32996   0.16966   0.00000  Uiso   1.00
H89    H     0.49014   0.12413   0.13958   0.00000  Uiso   1.00
H90    H     0.50982   0.20870   0.19411   0.00000  Uiso   1.00
H91    H     0.52418   0.05225   0.27660   0.00000  Uiso   1.00
H92    H     0.61798   0.06434   0.31986   0.00000  Uiso   1.00
H93    H     0.54909   0.21069   0.05340   0.00000  Uiso   1.00
H94    H     0.35752   0.23326   0.02300   0.00000  Uiso   1.00
H95    H     0.39760   0.00312   0.16061   0.00000  Uiso   1.00
N96    N     0.47827   0.15223   0.15695   0.00000  Uiso   1.00
N97    N     0.52173   0.18110   0.17638   0.00000  Uiso   1.00
O98    O     0.63102   0.24629   0.16905   0.00000  Uiso   1.00
O99    O     0.43575   0.22987   0.08262   0.00000  Uiso   1.00
O100   O     0.36134   0.05905   0.25054   0.00000  Uiso   1.00
O101   O     0.39075   0.23704   0.16282   0.00000  Uiso   1.00
O102   O     0.64823   0.17358   0.22253   0.00000  Uiso   1.00
O103   O     0.40796   0.16433   0.21631   0.00000  Uiso   1.00
O104   O     0.60925   0.09629   0.17051   0.00000  Uiso   1.00
O105   O     0.36898   0.08704   0.16428   0.00000  Uiso   1.00
O106   O     0.59204   0.16901   0.11703   0.00000  Uiso   1.00
O107   O     0.35177   0.15976   0.11080   0.00000  Uiso   1.00
O108   O     0.63982   0.22318   0.28528   0.00000  Uiso   1.00
Zn109  Zn    0.60453   0.17284   0.17082   0.00000  Uiso   1.00
Zn110  Zn    0.39547   0.16049   0.16251   0.00000  Uiso   1.00
C111   C     0.68134   0.26487   0.16535   0.00000  Uiso   1.00
C112   C     0.71902   0.17022   0.27848   0.00000  Uiso   1.00
C113   C     0.68854   0.31933   0.16374   0.00000  Uiso   1.00
C114   C     0.70216   0.16928   0.23712   0.00000  Uiso   1.00
C115   C     0.97669   0.01375   0.16662   0.00000  Uiso   1.00
C116   C     0.98473   0.06838   0.16670   0.00000  Uiso   1.00
C117   C     0.96441   0.16373   0.09634   0.00000  Uiso   1.00
C118   C     0.93431   0.09487   0.00165   0.00000  Uiso   1.00
C119   C     0.94462   0.15452   0.05591   0.00000  Uiso   1.00
C120   C     0.69222   0.20359   0.30048   0.00000  Uiso   1.00
C121   C     0.71496   0.21173   0.00569   0.00000  Uiso   1.00
C122   C     0.79741   0.16216   0.33195   0.00000  Uiso   1.00
C123   C     0.76726   0.19153   0.02201   0.00000  Uiso   1.00
C124   C     0.98280   0.27685   0.27959   0.00000  Uiso   1.00
C125   C     0.92610   0.29664   0.25920   0.00000  Uiso   1.00
C126   C     0.78322   0.19424   0.06396   0.00000  Uiso   1.00
C127   C     0.74675   0.06321   0.25065   0.00000  Uiso   1.00
C128   C     0.76706   0.14371   0.29574   0.00000  Uiso   1.00
C129   C     0.85590   0.14963   0.00948   0.00000  Uiso   1.00
C130   C     0.87801   0.11042   0.32217   0.00000  Uiso   1.00
C131   C     0.84246   0.08506   0.29056   0.00000  Uiso   1.00
C132   C     0.78638   0.09983   0.27795   0.00000  Uiso   1.00
C133   C     0.89373   0.17590   0.03982   0.00000  Uiso   1.00
C134   C     0.96674   0.11545   0.03614   0.00000  Uiso   1.00
H135   H     0.67367   0.09895   0.04826   0.00000  Uiso   1.00
H136   H     0.68277   0.28380   0.26165   0.00000  Uiso   1.00
H137   H     0.99696   0.29934   0.30715   0.00000  Uiso   1.00
H138   H     0.89182   0.29003   0.27628   0.00000  Uiso   1.00
H139   H     0.93232   0.00563   0.25479   0.00000  Uiso   1.00
H140   H     0.91175   0.27579   0.23115   0.00000  Uiso   1.00
H141   H     0.80772   0.16422   0.07853   0.00000  Uiso   1.00
H142   H     0.76420   0.03759   0.23185   0.00000  Uiso   1.00
H143   H     0.93425   0.32996   0.16966   0.00000  Uiso   1.00
H144   H     0.82347   0.12413   0.13958   0.00000  Uiso   1.00
H145   H     0.84316   0.20870   0.19411   0.00000  Uiso   1.00
H146   H     0.85751   0.05225   0.27660   0.00000  Uiso   1.00
H147   H     0.95131   0.06434   0.31986   0.00000  Uiso   1.00
H148   H     0.88243   0.21069   0.05340   0.00000  Uiso   1.00
H149   H     0.69085   0.23326   0.02300   0.00000  Uiso   1.00
H150   H     0.73094   0.00312   0.16061   0.00000  Uiso   1.00
N151   N     0.81160   0.15223   0.15695   0.00000  Uiso   1.00
N152   N     0.85507   0.18110   0.17638   0.00000  Uiso   1.00
O153   O     0.96435   0.24629   0.16905   0.00000  Uiso   1.00
O154   O     0.76909   0.22987   0.08262   0.00000  Uiso   1.00
O155   O     0.69468   0.05905   0.25054   0.00000  Uiso   1.00
O156   O     0.72408   0.23704   0.16282   0.00000  Uiso   1.00
O157   O     0.98157   0.17358   0.22253   0.00000  Uiso   1.00
O158   O     0.74130   0.16433   0.21631   0.00000  Uiso   1.00
O159   O     0.94258   0.09629   0.17051   0.00000  Uiso   1.00
O160   O     0.70231   0.08704   0.16428   0.00000  Uiso   1.00
O161   O     0.92537   0.16901   0.11703   0.00000  Uiso   1.00
O162   O     0.68510   0.15976   0.11080   0.00000  Uiso   1.00
O163   O     0.97316   0.22318   0.28528   0.00000  Uiso   1.00
Zn164  Zn    0.93786   0.17284   0.17082   0.00000  Uiso   1.00
Zn165  Zn    0.72881   0.16049   0.16251   0.00000  Uiso   1.00
C166   C     0.01467   0.59821   0.16535   0.00000  Uiso   1.00
C167   C     0.05236   0.50355   0.27848   0.00000  Uiso   1.00
C168   C     0.02187   0.65266   0.16374   0.00000  Uiso   1.00
C169   C     0.03549   0.50261   0.23712   0.00000  Uiso   1.00
C170   C     0.31003   0.34708   0.16662   0.00000  Uiso   1.00
C171   C     0.31807   0.40171   0.16670   0.00000  Uiso   1.00
C172   C     0.29774   0.49706   0.09634   0.00000  Uiso   1.00
C173   C     0.26764   0.42821   0.00165   0.00000  Uiso   1.00
C174   C     0.27795   0.48786   0.05591   0.00000  Uiso   1.00
C175   C     0.02555   0.53692   0.30048   0.00000  Uiso   1.00
C176   C     0.04829   0.54506   0.00569   0.00000  Uiso   1.00
C177   C     0.13074   0.49550   0.33195   0.00000  Uiso   1.00
C178   C     0.10059   0.52486   0.02201   0.00000  Uiso   1.00
C179   C     0.31613   0.61018   0.27959   0.00000  Uiso   1.00
C180   C     0.25943   0.62997   0.25920   0.00000  Uiso   1.00
C181   C     0.11656   0.52757   0.06396   0.00000  Uiso   1.00
C182   C     0.08008   0.39654   0.25065   0.00000  Uiso   1.00
C183   C     0.10039   0.47704   0.29574   0.00000  Uiso   1.00
C184   C     0.18924   0.48296   0.00948   0.00000  Uiso   1.00
C185   C     0.21135   0.44376   0.32217   0.00000  Uiso   1.00
C186   C     0.17580   0.41839   0.29056   0.00000  Uiso   1.00
C187   C     0.11971   0.43316   0.27795   0.00000  Uiso   1.00
C188   C     0.22706   0.50923   0.03982   0.00000  Uiso   1.00
C189   C     0.30008   0.44878   0.03614   0.00000  Uiso   1.00
H190   H     0.00700   0.43229   0.04826   0.00000  Uiso   1.00
H191   H     0.01610   0.61714   0.26165   0.00000  Uiso   1.00
H192   H     0.33029   0.63268   0.30715   0.00000  Uiso   1.00
H193   H     0.22515   0.62336   0.27628   0.00000  Uiso   1.00
H194   H     0.26565   0.33897   0.25479   0.00000  Uiso   1.00
H195   H     0.24509   0.60912   0.23115   0.00000  Uiso   1.00
H196   H     0.14106   0.49755   0.07853   0.00000  Uiso   1.00
H197   H     0.09753   0.37093   0.23185   0.00000  Uiso   1.00
H198   H     0.26759   0.66330   0.16966   0.00000  Uiso   1.00
H199   H     0.15681   0.45746   0.13958   0.00000  Uiso   1.00
H200   H     0.17649   0.54204   0.19411   0.00000  Uiso   1.00
H201   H     0.19085   0.38559   0.27660   0.00000  Uiso   1.00
H202   H     0.28464   0.39767   0.31986   0.00000  Uiso   1.00
H203   H     0.21576   0.54402   0.05340   0.00000  Uiso   1.00
H204   H     0.02418   0.56660   0.02300   0.00000  Uiso   1.00
H205   H     0.06427   0.33645   0.16061   0.00000  Uiso   1.00
N206   N     0.14493   0.48556   0.15695   0.00000  Uiso   1.00
N207   N     0.18840   0.51444   0.17638   0.00000  Uiso   1.00
O208   O     0.29769   0.57963   0.16905   0.00000  Uiso   1.00
O209   O     0.10242   0.56321   0.08262   0.00000  Uiso   1.00
O210   O     0.02801   0.39239   0.25054   0.00000  Uiso   1.00
O211   O     0.05742   0.57038   0.16282   0.00000  Uiso   1.00
O212   O     0.31490   0.50691   0.22253   0.00000  Uiso   1.00
O213   O     0.07463   0.49766   0.21631   0.00000  Uiso   1.00
O214   O     0.27592   0.42962   0.17051   0.00000  Uiso   1.00
O215   O     0.03565   0.42037   0.16428   0.00000  Uiso   1.00
O216   O     0.25870   0.50234   0.11703   0.00000  Uiso   1.00
O217   O     0.01843   0.49309   0.11080   0.00000  Uiso   1.00
O218   O     0.30649   0.55651   0.28528   0.00000  Uiso   1.00
Zn219  Zn    0.27119   0.50618   0.17082   0.00000  Uiso   1.00
Zn220  Zn    0.06214   0.49382   0.16251   0.00000  Uiso   1.00
C221   C     0.34800   0.59821   0.16535   0.00000  Uiso   1.00
C222   C     0.38569   0.50355   0.27848   0.00000  Uiso   1.00
C223   C     0.35521   0.65266   0.16374   0.00000  Uiso   1.00
C224   C     0.36882   0.50261   0.23712   0.00000  Uiso   1.00
C225   C     0.64336   0.34708   0.16662   0.00000  Uiso   1.00
C226   C     0.65140   0.40171   0.16670   0.00000  Uiso   1.00
C227   C     0.63108   0.49706   0.09634   0.00000  Uiso   1.00
C228   C     0.60098   0.42821   0.00165   0.00000  Uiso   1.00
C229   C     0.61129   0.48786   0.05591   0.00000  Uiso   1.00
C230   C     0.35888   0.53692   0.30048   0.00000  Uiso   1.00
C231   C     0.38162   0.54506   0.00569   0.00000  Uiso   1.00
C232   C     0.46408   0.49550   0.33195   0.00000  Uiso   1.00
C233   C     0.43392   0.52486   0.02201   0.00000  Uiso   1.00
C234   C     0.64947   0.61018   0.27959   0.00000  Uiso   1.00
C235   C     0.59276   0.62997   0.25920   0.00000  Uiso   1.00
C236   C     0.44989   0.52757   0.06396   0.00000  Uiso   1.00
C237   C     0.41342   0.39654   0.25065   0.00000  Uiso   1.00
C238   C     0.43372   0.47704   0.29574   0.00000  Uiso   1.00
C239   C     0.52257   0.48296   0.00948   0.00000  Uiso   1.00
C240   C     0.54468   0.44376   0.32217   0.00000  Uiso   1.00
C241   C     0.50913   0.41839   0.29056   0.00000  Uiso   1.00
C242   C     0.45304   0.43316   0.27795   0.00000  Uiso   1.00
C243   C     0.56039   0.50923   0.03982   0.00000  Uiso   1.00
C244   C     0.63341   0.44878   0.03614   0.00000  Uiso   1.00
H245   H     0.34034   0.43229   0.04826   0.00000  Uiso   1.00
H246   H     0.34943   0.61714   0.26165   0.00000  Uiso   1.00
H247   H     0.66363   0.63268   0.30715   0.00000  Uiso   1.00
H248   H     0.55849   0.62336   0.27628   0.00000  Uiso   1.00
H249   H     0.59899   0.33897   0.25479   0.00000  Uiso   1.00
H250   H     0.57842   0.60912   0.23115   0.00000  Uiso   1.00
H251   H     0.47439   0.49755   0.07853   0.00000  Uiso   1.00
H252   H     0.43086   0.37093   0.23185   0.00000  Uiso   1.00
H253   H     0.60092   0.66330   0.16966   0.00000  Uiso   1.00
H254   H     0.49014   0.45746   0.13958   0.00000  Uiso   1.00
H255   H     0.50982   0.54204   0.19411   0.00000  Uiso   1.00
H256   H     0.52418   0.38559   0.27660   0.00000  Uiso   1.00
H257   H     0.61798   0.39767   0.31986   0.00000  Uiso   1.00
H258   H     0.54909   0.54402   0.05340   0.00000  Uiso   1.00
H259   H     0.35752   0.56660   0.02300   0.00000  Uiso   1.00
H260   H     0.39760   0.33645   0.16061   0.00000  Uiso   1.00
N261   N     0.47827   0.48556   0.15695   0.00000  Uiso   1.00
N262   N     0.52173   0.51444   0.17638   0.00000  Uiso   1.00
O263   O     0.63102   0.57963   0.16905   0.00000  Uiso   1.00
O264   O     0.43575   0.56321   0.08262   0.00000  Uiso   1.00
O265   O     0.36134   0.39239   0.25054   0.00000  Uiso   1.00
O266   O     0.39075   0.57038   0.16282   0.00000  Uiso   1.00
O267   O     0.64823   0.50691   0.22253   0.00000  Uiso   1.00
O268   O     0.40796   0.49766   0.21631   0.00000  Uiso   1.00
O269   O     0.60925   0.42962   0.17051   0.00000  Uiso   1.00
O270   O     0.36898   0.42037   0.16428   0.00000  Uiso   1.00
O271   O     0.59204   0.50234   0.11703   0.00000  Uiso   1.00
O272   O     0.35177   0.49309   0.11080   0.00000  Uiso   1.00
O273   O     0.63982   0.55651   0.28528   0.00000  Uiso   1.00
Zn274  Zn    0.60453   0.50618   0.17082   0.00000  Uiso   1.00
Zn275  Zn    0.39547   0.49382   0.16251   0.00000  Uiso   1.00
C276   C     0.68134   0.59821   0.16535   0.00000  Uiso   1.00
C277   C     0.71902   0.50355   0.27848   0.00000  Uiso   1.00
C278   C     0.68854   0.65266   0.16374   0.00000  Uiso   1.00
C279   C     0.70216   0.50261   0.23712   0.00000  Uiso   1.00
C280   C     0.97669   0.34708   0.16662   0.00000  Uiso   1.00
C281   C     0.98473   0.40171   0.16670   0.00000  Uiso   1.00
C282   C     0.96441   0.49706   0.09634   0.00000  Uiso   1.00
C283   C     0.93431   0.42821   0.00165   0.00000  Uiso   1.00
C284   C     0.94462   0.48786   0.05591   0.00000  Uiso   1.00
C285   C     0.69222   0.53692   0.30048   0.00000  Uiso   1.00
C286   C     0.71496   0.54506   0.00569   0.00000  Uiso   1.00
C287   C     0.79741   0.49550   0.33195   0.00000  Uiso   1.00
C288   C     0.76726   0.52486   0.02201   0.00000  Uiso   1.00
C289   C     0.98280   0.61018   0.27959   0.00000  Uiso   1.00
C290   C     0.92610   0.62997   0.25920   0.00000  Uiso   1.00
C291   C     0.78322   0.52757   0.06396   0.00000  Uiso   1.00
C292   C     0.74675   0.39654   0.25065   0.00000  Uiso   1.00
C293   C     0.76706   0.47704   0.29574   0.00000  Uiso   1.00
C294   C     0.85590   0.48296   0.00948   0.00000  Uiso   1.00
C295   C     0.87801   0.44376   0.32217   0.00000  Uiso   1.00
C296   C     0.84246   0.41839   0.29056   0.00000  Uiso   1.00
C297   C     0.78638   0.43316   0.27795   0.00000  Uiso   1.00
C298   C     0.89373   0.50923   0.03982   0.00000  Uiso   1.00
C299   C     0.96674   0.44878   0.03614   0.00000  Uiso   1.00
H300   H     0.67367   0.43229   0.04826   0.00000  Uiso   1.00
H301   H     0.68277   0.61714   0.26165   0.00000  Uiso   1.00
H302   H     0.99696   0.63268   0.30715   0.00000  Uiso   1.00
H303   H     0.89182   0.62336   0.27628   0.00000  Uiso   1.00
H304   H     0.93232   0.33897   0.25479   0.00000  Uiso   1.00
H305   H     0.91175   0.60912   0.23115   0.00000  Uiso   1.00
H306   H     0.80772   0.49755   0.07853   0.00000  Uiso   1.00
H307   H     0.76420   0.37093   0.23185   0.00000  Uiso   1.00
H308   H     0.93425   0.66330   0.16966   0.00000  Uiso   1.00
H309   H     0.82347   0.45746   0.13958   0.00000  Uiso   1.00
H310   H     0.84316   0.54204   0.19411   0.00000  Uiso   1.00
H311   H     0.85751   0.38559   0.27660   0.00000  Uiso   1.00
H312   H     0.95131   0.39767   0.31986   0.00000  Uiso   1.00
H313   H     0.88243   0.54402   0.05340   0.00000  Uiso   1.00
H314   H     0.69085   0.56660   0.02300   0.00000  Uiso   1.00
H315   H     0.73094   0.33645   0.16061   0.00000  Uiso   1.00
N316   N     0.81160   0.48556   0.15695   0.00000  Uiso   1.00
N317   N     0.85507   0.51444   0.17638   0.00000  Uiso   1.00
O318   O     0.96435   0.57963   0.16905   0.00000  Uiso   1.00
O319   O     0.76909   0.56321   0.08262   0.00000  Uiso   1.00
O320   O     0.69468   0.39239   0.25054   0.00000  Uiso   1.00
O321   O     0.72408   0.57038   0.16282   0.00000  Uiso   1.00
O322   O     0.98157   0.50691   0.22253   0.00000  Uiso   1.00
O323   O     0.74130   0.49766   0.21631   0.00000  Uiso   1.00
O324   O     0.94258   0.42962   0.17051   0.00000  Uiso   1.00
O325   O     0.70231   0.42037   0.16428   0.00000  Uiso   1.00
O326   O     0.92537   0.50234   0.11703   0.00000  Uiso   1.00
O327   O     0.68510   0.49309   0.11080   0.00000  Uiso   1.00
O328   O     0.97316   0.55651   0.28528   0.00000  Uiso   1.00
Zn329  Zn    0.93786   0.50618   0.17082   0.00000  Uiso   1.00
Zn330  Zn    0.72881   0.49382   0.16251   0.00000  Uiso   1.00
C331   C     0.01467   0.93154   0.16535   0.00000  Uiso   1.00
C332   C     0.05236   0.83688   0.27848   0.00000  Uiso   1.00
C333   C     0.02187   0.98600   0.16374   0.00000  Uiso   1.00
C334   C     0.03549   0.83595   0.23712   0.00000  Uiso   1.00
C335   C     0.31003   0.68042   0.16662   0.00000  Uiso   1.00
C336   C     0.31807   0.73505   0.16670   0.00000  Uiso   1.00
C337   C     0.29774   0.83039   0.09634   0.00000  Uiso   1.00
C338   C     0.26764   0.76154   0.00165   0.00000  Uiso   1.00
C339   C     0.27795   0.82119   0.05591   0.00000  Uiso   1.00
C340   C     0.02555   0.87026   0.30048   0.00000  Uiso   1.00
C341   C     0.04829   0.87839   0.00569   0.00000  Uiso   1.00
C342   C     0.13074   0.82883   0.33195   0.00000  Uiso   1.00
C343   C     0.10059   0.85820   0.02201   0.00000  Uiso   1.00
C344   C     0.31613   0.94351   0.27959   0.00000  Uiso   1.00
C345   C     0.25943   0.96331   0.25920   0.00000  Uiso   1.00
C346   C     0.11656   0.86091   0.06396   0.00000  Uiso   1.00
C347   C     0.08008   0.72988   0.25065   0.00000  Uiso   1.00
C348   C     0.10039   0.81037   0.29574   0.00000  Uiso   1.00
C349   C     0.18924   0.81629   0.00948   0.00000  Uiso   1.00
C350   C     0.21135   0.77709   0.32217   0.00000  Uiso   1.00
C351   C     0.17580   0.75172   0.29056   0.00000  Uiso   1.00
C352   C     0.11971   0.76649   0.27795   0.00000  Uiso   1.00
C353   C     0.22706   0.84256   0.03982   0.00000  Uiso   1.00
C354   C     0.30008   0.78212   0.03614   0.00000  Uiso   1.00
H355   H     0.00700   0.76562   0.04826   0.00000  Uiso   1.00
H356   H     0.01610   0.95047   0.26165   0.00000  Uiso   1.00
H357   H     0.33029   0.96601   0.30715   0.00000  Uiso   1.00
H358   H     0.22515   0.95670   0.27628   0.00000  Uiso   1.00
H359   H     0.26565   0.67230   0.25479   0.00000  Uiso   1.00
H360   H     0.24509   0.94245   0.23115   0.00000  Uiso   1.00
H361   H     0.14106   0.83088   0.07853   0.00000  Uiso   1.00
H362   H     0.09753   0.70426   0.23185   0.00000  Uiso   1.00
H363   H     0.26759   0.99663   0.16966   0.00000  Uiso   1.00
H364   H     0.15681   0.79079   0.13958   0.00000  Uiso   1.00
H365   H     0.17649   0.87537   0.19411   0.00000  Uiso   1.00
H366   H     0.19085   0.71892   0.27660   0.00000  Uiso   1.00
H367   H     0.28464   0.73100   0.31986   0.00000  Uiso   1.00
H368   H     0.21576   0.87735   0.05340   0.00000  Uiso   1.00
H369   H     0.02418   0.89993   0.02300   0.00000  Uiso   1.00
H370   H     0.06427   0.66979   0.16061   0.00000  Uiso   1.00
N371   N     0.14493   0.81890   0.15695   0.00000  Uiso   1.00
N372   N     0.18840   0.84777   0.17638   0.00000  Uiso   1.00
O373   O     0.29769   0.91296   0.16905   0.00000  Uiso   1.00
O374   O     0.10242   0.89654   0.08262   0.00000  Uiso   1.00
O375   O     0.02801   0.72572   0.25054   0.00000  Uiso   1.00
O376   O     0.05742   0.90371   0.16282   0.00000  Uiso   1.00
O377   O     0.31490   0.84024   0.22253   0.00000  Uiso   1.00
O378   O     0.07463   0.83099   0.21631   0.00000  Uiso   1.00
O379   O     0.27592   0.76296   0.17051   0.00000  Uiso   1.00
O380   O     0.03565   0.75371   0.16428   0.00000  Uiso   1.00
O381   O     0.25870   0.83567   0.11703   0.00000  Uiso   1.00
O382   O     0.01843   0.82642   0.11080   0.00000  Uiso   1.00
O383   O     0.30649   0.88985   0.28528   0.00000  Uiso   1.00
Zn384  Zn    0.27119   0.83951   0.17082   0.00000  Uiso   1.00
Zn385  Zn    0.06214   0.82716   0.16251   0.00000  Uiso   1.00
C386   C     0.34800   0.93154   0.16535   0.00000  Uiso   1.00
C387   C     0.38569   0.83688   0.27848   0.00000  Uiso   1.00
C388   C     0.35521   0.98600   0.16374   0.00000  Uiso   1.00
C389   C     0.36882   0.83595   0.23712   0.00000  Uiso   1.00
C390   C     0.64336   0.68042   0.16662   0.00000  Uiso   1.00
C391   C     0.65140   0.73505   0.16670   0.00000  Uiso   1.00
C392   C     0.63108   0.83039   0.09634   0.00000  Uiso   1.00
C393   C     0.60098   0.76154   0.00165   0.00000  Uiso   1.00
C394   C     0.61129   0.82119   0.05591   0.00000  Uiso   1.00
C395   C     0.35888   0.87026   0.30048   0.00000  Uiso   1.00
C396   C     0.38162   0.87839   0.00569   0.00000  Uiso   1.00
C397   C     0.46408   0.82883   0.33195   0.00000  Uiso   1.00
C398   C     0.43392   0.85820   0.02201   0.00000  Uiso   1.00
C399   C     0.64947   0.94351   0.27959   0.00000  Uiso   1.00
C400   C     0.59276   0.96331   0.25920   0.00000  Uiso   1.00
C401   C     0.44989   0.86091   0.06396   0.00000  Uiso   1.00
C402   C     0.41342   0.72988   0.25065   0.00000  Uiso   1.00
C403   C     0.43372   0.81037   0.29574   0.00000  Uiso   1.00
C404   C     0.52257   0.81629   0.00948   0.00000  Uiso   1.00
C405   C     0.54468   0.77709   0.32217   0.00000  Uiso   1.00
C406   C     0.50913   0.75172   0.29056   0.00000  Uiso   1.00
C407   C     0.45304   0.76649   0.27795   0.00000  Uiso   1.00
C408   C     0.56039   0.84256   0.03982   0.00000  Uiso   1.00
C409   C     0.63341   0.78212   0.03614   0.00000  Uiso   1.00
H410   H     0.34034   0.76562   0.04826   0.00000  Uiso   1.00
H411   H     0.34943   0.95047   0.26165   0.00000  Uiso   1.00
H412   H     0.66363   0.96601   0.30715   0.00000  Uiso   1.00
H413   H     0.55849   0.95670   0.27628   0.00000  Uiso   1.00
H414   H     0.59899   0.67230   0.25479   0.00000  Uiso   1.00
H415   H     0.57842   0.94245   0.23115   0.00000  Uiso   1.00
H416   H     0.47439   0.83088   0.07853   0.00000  Uiso   1.00
H417   H     0.43086   0.70426   0.23185   0.00000  Uiso   1.00
H418   H     0.60092   0.99663   0.16966   0.00000  Uiso   1.00
H419   H     0.49014   0.79079   0.13958   0.00000  Uiso   1.00
H420   H     0.50982   0.87537   0.19411   0.00000  Uiso   1.00
H421   H     0.52418   0.71892   0.27660   0.00000  Uiso   1.00
H422   H     0.61798   0.73100   0.31986   0.00000  Uiso   1.00
H423   H     0.54909   0.87735   0.05340   0.00000  Uiso   1.00
H424   H     0.35752   0.89993   0.02300   0.00000  Uiso   1.00
H425   H     0.39760   0.66979   0.16061   0.00000  Uiso   1.00
N426   N     0.47827   0.81890   0.15695   0.00000  Uiso   1.00
N427   N     0.52173   0.84777   0.17638   0.00000  Uiso   1.00
O428   O     0.63102   0.91296   0.16905   0.00000  Uiso   1.00
O429   O     0.43575   0.89654   0.08262   0.00000  Uiso   1.00
O430   O     0.36134   0.72572   0.25054   0.00000  Uiso   1.00
O431   O     0.39075   0.90371   0.16282   0.00000  Uiso   1.00
O432   O     0.64823   0.84024   0.22253   0.00000  Uiso   1.00
O433   O     0.40796   0.83099   0.21631   0.00000  Uiso   1.00
O434   O     0.60925   0.76296   0.17051   0.00000  Uiso   1.00
O435   O     0.36898   0.75371   0.16428   0.00000  Uiso   1.00
O436   O     0.59204   0.83567   0.11703   0.00000  Uiso   1.00
O437   O     0.35177   0.82642   0.11080   0.00000  Uiso   1.00
O438   O     0.63982   0.88985   0.28528   0.00000  Uiso   1.00
Zn439  Zn    0.60453   0.83951   0.17082   0.00000  Uiso   1.00
Zn440  Zn    0.39547   0.82716   0.16251   0.00000  Uiso   1.00
C441   C     0.68134   0.93154   0.16535   0.00000  Uiso   1.00
C442   C     0.71902   0.83688   0.27848   0.00000  Uiso   1.00
C443   C     0.68854   0.98600   0.16374   0.00000  Uiso   1.00
C444   C     0.70216   0.83595   0.23712   0.00000  Uiso   1.00
C445   C     0.97669   0.68042   0.16662   0.00000  Uiso   1.00
C446   C     0.98473   0.73505   0.16670   0.00000  Uiso   1.00
C447   C     0.96441   0.83039   0.09634   0.00000  Uiso   1.00
C448   C     0.93431   0.76154   0.00165   0.00000  Uiso   1.00
C449   C     0.94462   0.82119   0.05591   0.00000  Uiso   1.00
C450   C     0.69222   0.87026   0.30048   0.00000  Uiso   1.00
C451   C     0.71496   0.87839   0.00569   0.00000  Uiso   1.00
C452   C     0.79741   0.82883   0.33195   0.00000  Uiso   1.00
C453   C     0.76726   0.85820   0.02201   0.00000  Uiso   1.00
C454   C     0.98280   0.94351   0.27959   0.00000  Uiso   1.00
C455   C     0.92610   0.96331   0.25920   0.00000  Uiso   1.00
C456   C     0.78322   0.86091   0.06396   0.00000  Uiso   1.00
C457   C     0.74675   0.72988   0.25065   0.00000  Uiso   1.00
C458   C     0.76706   0.81037   0.29574   0.00000  Uiso   1.00
C459   C     0.85590   0.81629   0.00948   0.00000  Uiso   1.00
C460   C     0.87801   0.77709   0.32217   0.00000  Uiso   1.00
C461   C     0.84246   0.75172   0.29056   0.00000  Uiso   1.00
C462   C     0.78638   0.76649   0.27795   0.00000  Uiso   1.00
C463   C     0.89373   0.84256   0.03982   0.00000  Uiso   1.00
C464   C     0.96674   0.78212   0.03614   0.00000  Uiso   1.00
H465   H     0.67367   0.76562   0.04826   0.00000  Uiso   1.00
H466   H     0.68277   0.95047   0.26165   0.00000  Uiso   1.00
H467   H     0.99696   0.96601   0.30715   0.00000  Uiso   1.00
H468   H     0.89182   0.95670   0.27628   0.00000  Uiso   1.00
H469   H     0.93232   0.67230   0.25479   0.00000  Uiso   1.00
H470   H     0.91175   0.94245   0.23115   0.00000  Uiso   1.00
H471   H     0.80772   0.83088   0.07853   0.00000  Uiso   1.00
H472   H     0.76420   0.70426   0.23185   0.00000  Uiso   1.00
H473   H     0.93425   0.99663   0.16966   0.00000  Uiso   1.00
H474   H     0.82347   0.79079   0.13958   0.00000  Uiso   1.00
H475   H     0.84316   0.87537   0.19411   0.00000  Uiso   1.00
H476   H     0.85751   0.71892   0.27660   0.00000  Uiso   1.00
H477   H     0.95131   0.73100   0.31986   0.00000  Uiso   1.00
H478   H     0.88243   0.87735   0.05340   0.00000  Uiso   1.00
H479   H     0.69085   0.89993   0.02300   0.00000  Uiso   1.00
H480   H     0.73094   0.66979   0.16061   0.00000  Uiso   1.00
N481   N     0.81160   0.81890   0.15695   0.00000  Uiso   1.00
N482   N     0.85507   0.84777   0.17638   0.00000  Uiso   1.00
O483   O     0.96435   0.91296   0.16905   0.00000  Uiso   1.00
O484   O     0.76909   0.89654   0.08262   0.00000  Uiso   1.00
O485   O     0.69468   0.72572   0.25054   0.00000  Uiso   1.00
O486   O     0.72408   0.90371   0.16282   0.00000  Uiso   1.00
O487   O     0.98157   0.84024   0.22253   0.00000  Uiso   1.00
O488   O     0.74130   0.83099   0.21631   0.00000  Uiso   1.00
O489   O     0.94258   0.76296   0.17051   0.00000  Uiso   1.00
O490   O     0.70231   0.75371   0.16428   0.00000  Uiso   1.00
O491   O     0.92537   0.83567   0.11703   0.00000  Uiso   1.00
O492   O     0.68510   0.82642   0.11080   0.00000  Uiso   1.00
O493   O     0.97316   0.88985   0.28528   0.00000  Uiso   1.00
Zn494  Zn    0.93786   0.83951   0.17082   0.00000  Uiso   1.00
Zn495  Zn    0.72881   0.82716   0.16251   0.00000  Uiso   1.00
C496   C     0.01467   0.26487   0.49869   0.00000  Uiso   1.00
C497   C     0.05236   0.17022   0.61181   0.00000  Uiso   1.00
C498   C     0.02187   0.31933   0.49707   0.00000  Uiso   1.00
C499   C     0.03549   0.16928   0.57045   0.00000  Uiso   1.00
C500   C     0.31003   0.01375   0.49995   0.00000  Uiso   1.00
C501   C     0.31807   0.06838   0.50004   0.00000  Uiso   1.00
C502   C     0.29774   0.16373   0.42967   0.00000  Uiso   1.00
C503   C     0.26764   0.09487   0.33498   0.00000  Uiso   1.00
C504   C     0.27795   0.15452   0.38925   0.00000  Uiso   1.00
C505   C     0.02555   0.20359   0.63381   0.00000  Uiso   1.00
C506   C     0.04829   0.21173   0.33903   0.00000  Uiso   1.00
C507   C     0.13074   0.16216   0.66528   0.00000  Uiso   1.00
C508   C     0.10059   0.19153   0.35534   0.00000  Uiso   1.00
C509   C     0.31613   0.27685   0.61292   0.00000  Uiso   1.00
C510   C     0.25943   0.29664   0.59254   0.00000  Uiso   1.00
C511   C     0.11656   0.19424   0.39730   0.00000  Uiso   1.00
C512   C     0.08008   0.06321   0.58398   0.00000  Uiso   1.00
C513   C     0.10039   0.14371   0.62908   0.00000  Uiso   1.00
C514   C     0.18924   0.14963   0.34281   0.00000  Uiso   1.00
C515   C     0.21135   0.11042   0.65550   0.00000  Uiso   1.00
C516   C     0.17580   0.08506   0.62389   0.00000  Uiso   1.00
C517   C     0.11971   0.09983   0.61128   0.00000  Uiso   1.00
C518   C     0.22706   0.17590   0.37316   0.00000  Uiso   1.00
C519   C     0.30008   0.11545   0.36947   0.00000  Uiso   1.00
H520   H     0.00700   0.09895   0.38159   0.00000  Uiso   1.00
H521   H     0.01610   0.28380   0.59498   0.00000  Uiso   1.00
H522   H     0.33029   0.29934   0.64049   0.00000  Uiso   1.00
H523   H     0.22515   0.29003   0.60962   0.00000  Uiso   1.00
H524   H     0.26565   0.00563   0.58813   0.00000  Uiso   1.00
H525   H     0.24509   0.27579   0.56448   0.00000  Uiso   1.00
H526   H     0.14106   0.16422   0.41186   0.00000  Uiso   1.00
H527   H     0.09753   0.03759   0.56519   0.00000  Uiso   1.00
H528   H     0.26759   0.32996   0.50299   0.00000  Uiso   1.00
H529   H     0.15681   0.12413   0.47291   0.00000  Uiso   1.00
H530   H     0.17649   0.20870   0.52745   0.00000  Uiso   1.00
H531   H     0.19085   0.05225   0.60994   0.00000  Uiso   1.00
H532   H     0.28464   0.06434   0.65319   0.00000  Uiso   1.00
H533   H     0.21576   0.21069   0.38674   0.00000  Uiso   1.00
H534   H     0.02418   0.23326   0.35633   0.00000  Uiso   1.00
H535   H     0.06427   0.00312   0.49395   0.00000  Uiso   1.00
N536   N     0.14493   0.15223   0.49028   0.00000  Uiso   1.00
N537   N     0.18840   0.18110   0.50972   0.00000  Uiso   1.00
O538   O     0.29769   0.24629   0.50238   0.00000  Uiso   1.00
O539   O     0.10242   0.22987   0.41595   0.00000  Uiso   1.00
O540   O     0.02801   0.05905   0.58387   0.00000  Uiso   1.00
O541   O     0.05742   0.23704   0.49616   0.00000  Uiso   1.00
O542   O     0.31490   0.17358   0.55587   0.00000  Uiso   1.00
O543   O     0.07463   0.16433   0.54964   0.00000  Uiso   1.00
O544   O     0.27592   0.09629   0.50384   0.00000  Uiso   1.00
O545   O     0.03565   0.08704   0.49762   0.00000  Uiso   1.00
O546   O     0.25870   0.16901   0.45036   0.00000  Uiso   1.00
O547   O     0.01843   0.15976   0.44413   0.00000  Uiso   1.00
O548   O     0.30649   0.22318   0.61861   0.00000  Uiso   1.00
Zn549  Zn    0.27119   0.17284   0.50416   0.00000  Uiso   1.00
Zn550  Zn    0.06214   0.16049   0.49584   0.00000  Uiso   1.00
C551   C     0.34800   0.26487   0.49869   0.00000  Uiso   1.00
C552   C     0.38569   0.17022   0.61181   0.00000  Uiso   1.00
C553   C     0.35521   0.31933   0.49707   0.00000  Uiso   1.00
C554   C     0.36882   0.16928   0.57045   0.00000  Uiso   1.00
C555   C     0.64336   0.01375   0.49995   0.00000  Uiso   1.00
C556   C     0.65140   0.06838   0.50004   0.00000  Uiso   1.00
C557   C     0.63108   0.16373   0.42967   0.00000  Uiso   1.00
C558   C     0.60098   0.09487   0.33498   0.00000  Uiso   1.00
C559   C     0.61129   0.15452   0.38925   0.00000  Uiso   1.00
C560   C     0.35888   0.20359   0.63381   0.00000  Uiso   1.00
C561   C     0.38162   0.21173   0.33903   0.00000  Uiso   1.00
C562   C     0.46408   0.16216   0.66528   0.00000  Uiso   1.00
C563   C     0.43392   0.19153   0.35534   0.00000  Uiso   1.00
C564   C     0.64947   0.27685   0.61292   0.00000  Uiso   1.00
C565   C     0.59276   0.29664   0.59254   0.00000  Uiso   1.00
C566   C     0.44989   0.19424   0.39730   0.00000  Uiso   1.00
C567   C     0.41342   0.06321   0.58398   0.00000  Uiso   1.00
C568   C     0.43372   0.14371   0.62908   0.00000  Uiso   1.00
C569   C     0.52257   0.14963   0.34281   0.00000  Uiso   1.00
C570   C     0.54468   0.11042   0.65550   0.00000  Uiso   1.00
C571   C     0.50913   0.08506   0.62389   0.00000  Uiso   1.00
C572   C     0.45304   0.09983   0.61128   0.00000  Uiso   1.00
C573   C     0.56039   0.17590   0.37316   0.00000  Uiso   1.00
C574   C     0.63341   0.11545   0.36947   0.00000  Uiso   1.00
H575   H     0.34034   0.09895   0.38159   0.00000  Uiso   1.00
H576   H     0.34943   0.28380   0.59498   0.00000  Uiso   1.00
H577   H     0.66363   0.29934   0.64049   0.00000  Uiso   1.00
H578   H     0.55849   0.29003   0.60962   0.00000  Uiso   1.00
H579   H     0.59899   0.00563   0.58813   0.00000  Uiso   1.00
H580   H     0.57842   0.27579   0.56448   0.00000  Uiso   1.00
H581   H     0.47439   0.16422   0.41186   0.00000  Uiso   1.00
H582   H     0.43086   0.03759   0.56519   0.00000  Uiso   1.00
H583   H     0.60092   0.32996   0.50299   0.00000  Uiso   1.00
H584   H     0.49014   0.12413   0.47291   0.00000  Uiso   1.00
H585   H     0.50982   0.20870   0.52745   0.00000  Uiso   1.00
H586   H     0.52418   0.05225   0.60994   0.00000  Uiso   1.00
H587   H     0.61798   0.06434   0.65319   0.00000  Uiso   1.00
H588   H     0.54909   0.21069   0.38674   0.00000  Uiso   1.00
H589   H     0.35752   0.23326   0.35633   0.00000  Uiso   1.00
H590   H     0.39760   0.00312   0.49395   0.00000  Uiso   1.00
N591   N     0.47827   0.15223   0.49028   0.00000  Uiso   1.00
N592   N     0.52173   0.18110   0.50972   0.00000  Uiso   1.00
O593   O     0.63102   0.24629   0.50238   0.00000  Uiso   1.00
O594   O     0.43575   0.22987   0.41595   0.00000  Uiso   1.00
O595   O     0.36134   0.05905   0.58387   0.00000  Uiso   1.00
O596   O     0.39075   0.23704   0.49616   0.00000  Uiso   1.00
O597   O     0.64823   0.17358   0.55587   0.00000  Uiso   1.00
O598   O     0.40796   0.16433   0.54964   0.00000  Uiso   1.00
O599   O     0.60925   0.09629   0.50384   0.00000  Uiso   1.00
O600   O     0.36898   0.08704   0.49762   0.00000  Uiso   1.00
O601   O     0.59204   0.16901   0.45036   0.00000  Uiso   1.00
O602   O     0.35177   0.15976   0.44413   0.00000  Uiso   1.00
O603   O     0.63982   0.22318   0.61861   0.00000  Uiso   1.00
Zn604  Zn    0.60453   0.17284   0.50416   0.00000  Uiso   1.00
Zn605  Zn    0.39547   0.16049   0.49584   0.00000  Uiso   1.00
C606   C     0.68134   0.26487   0.49869   0.00000  Uiso   1.00
C607   C     0.71902   0.17022   0.61181   0.00000  Uiso   1.00
C608   C     0.68854   0.31933   0.49707   0.00000  Uiso   1.00
C609   C     0.70216   0.16928   0.57045   0.00000  Uiso   1.00
C610   C     0.97669   0.01375   0.49995   0.00000  Uiso   1.00
C611   C     0.98473   0.06838   0.50004   0.00000  Uiso   1.00
C612   C     0.96441   0.16373   0.42967   0.00000  Uiso   1.00
C613   C     0.93431   0.09487   0.33498   0.00000  Uiso   1.00
C614   C     0.94462   0.15452   0.38925   0.00000  Uiso   1.00
C615   C     0.69222   0.20359   0.63381   0.00000  Uiso   1.00
C616   C     0.71496   0.21173   0.33903   0.00000  Uiso   1.00
C617   C     0.79741   0.16216   0.66528   0.00000  Uiso   1.00
C618   C     0.76726   0.19153   0.35534   0.00000  Uiso   1.00
C619   C     0.98280   0.27685   0.61292   0.00000  Uiso   1.00
C620   C     0.92610   0.29664   0.59254   0.00000  Uiso   1.00
C621   C     0.78322   0.19424   0.39730   0.00000  Uiso   1.00
C622   C     0.74675   0.06321   0.58398   0.00000  Uiso   1.00
C623   C     0.76706   0.14371   0.62908   0.00000  Uiso   1.00
C624   C     0.85590   0.14963   0.34281   0.00000  Uiso   1.00
C625   C     0.87801   0.11042   0.65550   0.00000  Uiso   1.00
C626   C     0.84246   0.08506   0.62389   0.00000  Uiso   1.00
C627   C     0.78638   0.09983   0.61128   0.00000  Uiso   1.00
C628   C     0.89373   0.17590   0.37316   0.00000  Uiso   1.00
C629   C     0.96674   0.11545   0.36947   0.00000  Uiso   1.00
H630   H     0.67367   0.09895   0.38159   0.00000  Uiso   1.00
H631   H     0.68277   0.28380   0.59498   0.00000  Uiso   1.00
H632   H     0.99696   0.29934   0.64049   0.00000  Uiso   1.00
H633   H     0.89182   0.29003   0.60962   0.00000  Uiso   1.00
H634   H     0.93232   0.00563   0.58813   0.00000  Uiso   1.00
H635   H     0.91175   0.27579   0.56448   0.00000  Uiso   1.00
H636   H     0.80772   0.16422   0.41186   0.00000  Uiso   1.00
H637   H     0.76420   0.03759   0.56519   0.00000  Uiso   1.00
H638   H     0.93425   0.32996   0.50299   0.00000  Uiso   1.00
H639   H     0.82347   0.12413   0.47291   0.00000  Uiso   1.00
H640   H     0.84316   0.20870   0.52745   0.00000  Uiso   1.00
H641   H     0.85751   0.05225   0.60994   0.00000  Uiso   1.00
H642   H     0.95131   0.06434   0.65319   0.00000  Uiso   1.00
H643   H     0.88243   0.21069   0.38674   0.00000  Uiso   1.00
H644   H     0.69085   0.23326   0.35633   0.00000  Uiso   1.00
H645   H     0.73094   0.00312   0.49395   0.00000  Uiso   1.00
N646   N     0.81160   0.15223   0.49028   0.00000  Uiso   1.00
N647   N     0.85507   0.18110   0.50972   0.00000  Uiso   1.00
O648   O     0.96435   0.24629   0.50238   0.00000  Uiso   1.00
O649   O     0.76909   0.22987   0.41595   0.00000  Uiso   1.00
O650   O     0.69468   0.05905   0.58387   0.00000  Uiso   1.00
O651   O     0.72408   0.23704   0.49616   0.00000  Uiso   1.00
O652   O     0.98157   0.17358   0.55587   0.00000  Uiso   1.00
O653   O     0.74130   0.16433   0.54964   0.00000  Uiso   1.00
O654   O     0.94258   0.09629   0.50384   0.00000  Uiso   1.00
O655   O     0.70231   0.08704   0.49762   0.00000  Uiso   1.00
O656   O     0.92537   0.16901   0.45036   0.00000  Uiso   1.00
O657   O     0.68510   0.15976   0.44413   0.00000  Uiso   1.00
O658   O     0.97316   0.22318   0.61861   0.00000  Uiso   1.00
Zn659  Zn    0.93786   0.17284   0.50416   0.00000  Uiso   1.00
Zn660  Zn    0.72881   0.16049   0.49584   0.00000  Uiso   1.00
C661   C     0.01467   0.59821   0.49869   0.00000  Uiso   1.00
C662   C     0.05236   0.50355   0.61181   0.00000  Uiso   1.00
C663   C     0.02187   0.65266   0.49707   0.00000  Uiso   1.00
C664   C     0.03549   0.50261   0.57045   0.00000  Uiso   1.00
C665   C     0.31003   0.34708   0.49995   0.00000  Uiso   1.00
C666   C     0.31807   0.40171   0.50004   0.00000  Uiso   1.00
C667   C     0.29774   0.49706   0.42967   0.00000  Uiso   1.00
C668   C     0.26764   0.42821   0.33498   0.00000  Uiso   1.00
C669   C     0.27795   0.48786   0.38925   0.00000  Uiso   1.00
C670   C     0.02555   0.53692   0.63381   0.00000  Uiso   1.00
C671   C     0.04829   0.54506   0.33903   0.00000  Uiso   1.00
C672   C     0.13074   0.49550   0.66528   0.00000  Uiso   1.00
C673   C     0.10059   0.52486   0.35534   0.00000  Uiso   1.00
C674   C     0.31613   0.61018   0.61292   0.00000  Uiso   1.00
C675   C     0.25943   0.62997   0.59254   0.00000  Uiso   1.00
C676   C     0.11656   0.52757   0.39730   0.00000  Uiso   1.00
C677   C     0.08008   0.39654   0.58398   0.00000  Uiso   1.00
C678   C     0.10039   0.47704   0.62908   0.00000  Uiso   1.00
C679   C     0.18924   0.48296   0.34281   0.00000  Uiso   1.00
C680   C     0.21135   0.44376   0.65550   0.00000  Uiso   1.00
C681   C     0.17580   0.41839   0.62389   0.00000  Uiso   1.00
C682   C     0.11971   0.43316   0.61128   0.00000  Uiso   1.00
C683   C     0.22706   0.50923   0.37316   0.00000  Uiso   1.00
C684   C     0.30008   0.44878   0.36947   0.00000  Uiso   1.00
H685   H     0.00700   0.43229   0.38159   0.00000  Uiso   1.00
H686   H     0.01610   0.61714   0.59498   0.00000  Uiso   1.00
H687   H     0.33029   0.63268   0.64049   0.00000  Uiso   1.00
H688   H     0.22515   0.62336   0.60962   0.00000  Uiso   1.00
H689   H     0.26565   0.33897   0.58813   0.00000  Uiso   1.00
H690   H     0.24509   0.60912   0.56448   0.00000  Uiso   1.00
H691   H     0.14106   0.49755   0.41186   0.00000  Uiso   1.00
H692   H     0.09753   0.37093   0.56519   0.00000  Uiso   1.00
H693   H     0.26759   0.66330   0.50299   0.00000  Uiso   1.00
H694   H     0.15681   0.45746   0.47291   0.00000  Uiso   1.00
H695   H     0.17649   0.54204   0.52745   0.00000  Uiso   1.00
H696   H     0.19085   0.38559   0.60994   0.00000  Uiso   1.00
H697   H     0.28464   0.39767   0.65319   0.00000  Uiso   1.00
H698   H     0.21576   0.54402   0.38674   0.00000  Uiso   1.00
H699   H     0.02418   0.56660   0.35633   0.00000  Uiso   1.00
H700   H     0.06427   0.33645   0.49395   0.00000  Uiso   1.00
N701   N     0.14493   0.48556   0.49028   0.00000  Uiso   1.00
N702   N     0.18840   0.51444   0.50972   0.00000  Uiso   1.00
O703   O     0.29769   0.57963   0.50238   0.00000  Uiso   1.00
O704   O     0.10242   0.56321   0.41595   0.00000  Uiso   1.00
O705   O     0.02801   0.39239   0.58387   0.00000  Uiso   1.00
O706   O     0.05742   0.57038   0.49616   0.00000  Uiso   1.00
O707   O     0.31490   0.50691   0.55587   0.00000  Uiso   1.00
O708   O     0.07463   0.49766   0.54964   0.00000  Uiso   1.00
O709   O     0.27592   0.42962   0.50384   0.00000  Uiso   1.00
O710   O     0.03565   0.42037   0.49762   0.00000  Uiso   1.00
O711   O     0.25870   0.50234   0.45036   0.00000  Uiso   1.00
O712   O     0.01843   0.49309   0.44413   0.00000  Uiso   1.00
O713   O     0.30649   0.55651   0.61861   0.00000  Uiso   1.00
Zn714  Zn    0.27119   0.50618   0.50416   0.00000  Uiso   1.00
Zn715  Zn    0.06214   0.49382   0.49584   0.00000  Uiso   1.00
C716   C     0.34800   0.59821   0.49869   0.00000  Uiso   1.00
C717   C     0.38569   0.50355   0.61181   0.00000  Uiso   1.00
C718   C     0.35521   0.65266   0.49707   0.00000  Uiso   1.00
C719   C     0.36882   0.50261   0.57045   0.00000  Uiso   1.00
C720   C     0.64336   0.34708   0.49995   0.00000  Uiso   1.00
C721   C     0.65140   0.40171   0.50004   0.00000  Uiso   1.00
C722   C     0.63108   0.49706   0.42967   0.00000  Uiso   1.00
C723   C     0.60098   0.42821   0.33498   0.00000  Uiso   1.00
C724   C     0.61129   0.48786   0.38925   0.00000  Uiso   1.00
C725   C     0.35888   0.53692   0.63381   0.00000  Uiso   1.00
C726   C     0.38162   0.54506   0.33903   0.00000  Uiso   1.00
C727   C     0.46408   0.49550   0.66528   0.00000  Uiso   1.00
C728   C     0.43392   0.52486   0.35534   0.00000  Uiso   1.00
C729   C     0.64947   0.61018   0.61292   0.00000  Uiso   1.00
C730   C     0.59276   0.62997   0.59254   0.00000  Uiso   1.00
C731   C     0.44989   0.52757   0.39730   0.00000  Uiso   1.00
C732   C     0.41342   0.39654   0.58398   0.00000  Uiso   1.00
C733   C     0.43372   0.47704   0.62908   0.00000  Uiso   1.00
C734   C     0.52257   0.48296   0.34281   0.00000  Uiso   1.00
C735   C     0.54468   0.44376   0.65550   0.00000  Uiso   1.00
C736   C     0.50913   0.41839   0.62389   0.00000  Uiso   1.00
C737   C     0.45304   0.43316   0.61128   0.00000  Uiso   1.00
C738   C     0.56039   0.50923   0.37316   0.00000  Uiso   1.00
C739   C     0.63341   0.44878   0.36947   0.00000  Uiso   1.00
H740   H     0.34034   0.43229   0.38159   0.00000  Uiso   1.00
H741   H     0.34943   0.61714   0.59498   0.00000  Uiso   1.00
H742   H     0.66363   0.63268   0.64049   0.00000  Uiso   1.00
H743   H     0.55849   0.62336   0.60962   0.00000  Uiso   1.00
H744   H     0.59899   0.33897   0.58813   0.00000  Uiso   1.00
H745   H     0.57842   0.60912   0.56448   0.00000  Uiso   1.00
H746   H     0.47439   0.49755   0.41186   0.00000  Uiso   1.00
H747   H     0.43086   0.37093   0.56519   0.00000  Uiso   1.00
H748   H     0.60092   0.66330   0.50299   0.00000  Uiso   1.00
H749   H     0.49014   0.45746   0.47291   0.00000  Uiso   1.00
H750   H     0.50982   0.54204   0.52745   0.00000  Uiso   1.00
H751   H     0.52418   0.38559   0.60994   0.00000  Uiso   1.00
H752   H     0.61798   0.39767   0.65319   0.00000  Uiso   1.00
H753   H     0.54909   0.54402   0.38674   0.00000  Uiso   1.00
H754   H     0.35752   0.56660   0.35633   0.00000  Uiso   1.00
H755   H     0.39760   0.33645   0.49395   0.00000  Uiso   1.00
N756   N     0.47827   0.48556   0.49028   0.00000  Uiso   1.00
N757   N     0.52173   0.51444   0.50972   0.00000  Uiso   1.00
O758   O     0.63102   0.57963   0.50238   0.00000  Uiso   1.00
O759   O     0.43575   0.56321   0.41595   0.00000  Uiso   1.00
O760   O     0.36134   0.39239   0.58387   0.00000  Uiso   1.00
O761   O     0.39075   0.57038   0.49616   0.00000  Uiso   1.00
O762   O     0.64823   0.50691   0.55587   0.00000  Uiso   1.00
O763   O     0.40796   0.49766   0.54964   0.00000  Uiso   1.00
O764   O     0.60925   0.42962   0.50384   0.00000  Uiso   1.00
O765   O     0.36898   0.42037   0.49762   0.00000  Uiso   1.00
O766   O     0.59204   0.50234   0.45036   0.00000  Uiso   1.00
O767   O     0.35177   0.49309   0.44413   0.00000  Uiso   1.00
O768   O     0.63982   0.55651   0.61861   0.00000  Uiso   1.00
Zn769  Zn    0.60453   0.50618   0.50416   0.00000  Uiso   1.00
Zn770  Zn    0.39547   0.49382   0.49584   0.00000  Uiso   1.00
C771   C     0.68134   0.59821   0.49869   0.00000  Uiso   1.00
C772   C     0.71902   0.50355   0.61181   0.00000  Uiso   1.00
C773   C     0.68854   0.65266   0.49707   0.00000  Uiso   1.00
C774   C     0.70216   0.50261   0.57045   0.00000  Uiso   1.00
C775   C     0.97669   0.34708   0.49995   0.00000  Uiso   1.00
C776   C     0.98473   0.40171   0.50004   0.00000  Uiso   1.00
C777   C     0.96441   0.49706   0.42967   0.00000  Uiso   1.00
C778   C     0.93431   0.42821   0.33498   0.00000  Uiso   1.00
C779   C     0.94462   0.48786   0.38925   0.00000  Uiso   1.00
C780   C     0.69222   0.53692   0.63381   0.00000  Uiso   1.00
C781   C     0.71496   0.54506   0.33903   0.00000  Uiso   1.00
C782   C     0.79741   0.49550   0.66528   0.00000  Uiso   1.00
C783   C     0.76726   0.52486   0.35534   0.00000  Uiso   1.00
C784   C     0.98280   0.61018   0.61292   0.00000  Uiso   1.00
C785   C     0.92610   0.62997   0.59254   0.00000  Uiso   1.00
C786   C     0.78322   0.52757   0.39730   0.00000  Uiso   1.00
C787   C     0.74675   0.39654   0.58398   0.00000  Uiso   1.00
C788   C     0.76706   0.47704   0.62908   0.00000  Uiso   1.00
C789   C     0.85590   0.48296   0.34281   0.00000  Uiso   1.00
C790   C     0.87801   0.44376   0.65550   0.00000  Uiso   1.00
C791   C     0.84246   0.41839   0.62389   0.00000  Uiso   1.00
C792   C     0.78638   0.43316   0.61128   0.00000  Uiso   1.00
C793   C     0.89373   0.50923   0.37316   0.00000  Uiso   1.00
C794   C     0.96674   0.44878   0.36947   0.00000  Uiso   1.00
H795   H     0.67367   0.43229   0.38159   0.00000  Uiso   1.00
H796   H     0.68277   0.61714   0.59498   0.00000  Uiso   1.00
H797   H     0.99696   0.63268   0.64049   0.00000  Uiso   1.00
H798   H     0.89182   0.62336   0.60962   0.00000  Uiso   1.00
H799   H     0.93232   0.33897   0.58813   0.00000  Uiso   1.00
H800   H     0.91175   0.60912   0.56448   0.00000  Uiso   1.00
H801   H     0.80772   0.49755   0.41186   0.00000  Uiso   1.00
H802   H     0.76420   0.37093   0.56519   0.00000  Uiso   1.00
H803   H     0.93425   0.66330   0.50299   0.00000  Uiso   1.00
H804   H     0.82347   0.45746   0.47291   0.00000  Uiso   1.00
H805   H     0.84316   0.54204   0.52745   0.00000  Uiso   1.00
H806   H     0.85751   0.38559   0.60994   0.00000  Uiso   1.00
H807   H     0.95131   0.39767   0.65319   0.00000  Uiso   1.00
H808   H     0.88243   0.54402   0.38674   0.00000  Uiso   1.00
H809   H     0.69085   0.56660   0.35633   0.00000  Uiso   1.00
H810   H     0.73094   0.33645   0.49395   0.00000  Uiso   1.00
N811   N     0.81160   0.48556   0.49028   0.00000  Uiso   1.00
N812   N     0.85507   0.51444   0.50972   0.00000  Uiso   1.00
O813   O     0.96435   0.57963   0.50238   0.00000  Uiso   1.00
O814   O     0.76909   0.56321   0.41595   0.00000  Uiso   1.00
O815   O     0.69468   0.39239   0.58387   0.00000  Uiso   1.00
O816   O     0.72408   0.57038   0.49616   0.00000  Uiso   1.00
O817   O     0.98157   0.50691   0.55587   0.00000  Uiso   1.00
O818   O     0.74130   0.49766   0.54964   0.00000  Uiso   1.00
O819   O     0.94258   0.42962   0.50384   0.00000  Uiso   1.00
O820   O     0.70231   0.42037   0.49762   0.00000  Uiso   1.00
O821   O     0.92537   0.50234   0.45036   0.00000  Uiso   1.00
O822   O     0.68510   0.49309   0.44413   0.00000  Uiso   1.00
O823   O     0.97316   0.55651   0.61861   0.00000  Uiso   1.00
Zn824  Zn    0.93786   0.50618   0.50416   0.00000  Uiso   1.00
Zn825  Zn    0.72881   0.49382   0.49584   0.00000  Uiso   1.00
C826   C     0.01467   0.93154   0.49869   0.00000  Uiso   1.00
C827   C     0.05236   0.83688   0.61181   0.00000  Uiso   1.00
C828   C     0.02187   0.98600   0.49707   0.00000  Uiso   1.00
C829   C     0.03549   0.83595   0.57045   0.00000  Uiso   1.00
C830   C     0.31003   0.68042   0.49995   0.00000  Uiso   1.00
C831   C     0.31807   0.73505   0.50004   0.00000  Uiso   1.00
C832   C     0.29774   0.83039   0.42967   0.00000  Uiso   1.00
C833   C     0.26764   0.76154   0.33498   0.00000  Uiso   1.00
C834   C     0.27795   0.82119   0.38925   0.00000  Uiso   1.00
C835   C     0.02555   0.87026   0.63381   0.00000  Uiso   1.00
C836   C     0.04829   0.87839   0.33903   0.00000  Uiso   1.00
C837   C     0.13074   0.82883   0.66528   0.00000  Uiso   1.00
C838   C     0.10059   0.85820   0.35534   0.00000  Uiso   1.00
C839   C     0.31613   0.94351   0.61292   0.00000  Uiso   1.00
C840   C     0.25943   0.96331   0.59254   0.00000  Uiso   1.00
C841   C     0.11656   0.86091   0.39730   0.00000  Uiso   1.00
C842   C     0.08008   0.72988   0.58398   0.00000  Uiso   1.00
C843   C     0.10039   0.81037   0.62908   0.00000  Uiso   1.00
C844   C     0.18924   0.81629   0.34281   0.00000  Uiso   1.00
C845   C     0.21135   0.77709   0.65550   0.00000  Uiso   1.00
C846   C     0.17580   0.75172   0.62389   0.00000  Uiso   1.00
C847   C     0.11971   0.76649   0.61128   0.00000  Uiso   1.00
C848   C     0.22706   0.84256   0.37316   0.00000  Uiso   1.00
C849   C     0.30008   0.78212   0.36947   0.00000  Uiso   1.00
H850   H     0.00700   0.76562   0.38159   0.00000  Uiso   1.00
H851   H     0.01610   0.95047   0.59498   0.00000  Uiso   1.00
H852   H     0.33029   0.96601   0.64049   0.00000  Uiso   1.00
H853   H     0.22515   0.95670   0.60962   0.00000  Uiso   1.00
H854   H     0.26565   0.67230   0.58813   0.00000  Uiso   1.00
H855   H     0.24509   0.94245   0.56448   0.00000  Uiso   1.00
H856   H     0.14106   0.83088   0.41186   0.00000  Uiso   1.00
H857   H     0.09753   0.70426   0.56519   0.00000  Uiso   1.00
H858   H     0.26759   0.99663   0.50299   0.00000  Uiso   1.00
H859   H     0.15681   0.79079   0.47291   0.00000  Uiso   1.00
H860   H     0.17649   0.87537   0.52745   0.00000  Uiso   1.00
H861   H     0.19085   0.71892   0.60994   0.00000  Uiso   1.00
H862   H     0.28464   0.73100   0.65319   0.00000  Uiso   1.00
H863   H     0.21576   0.87735   0.38674   0.00000  Uiso   1.00
H864   H     0.02418   0.89993   0.35633   0.00000  Uiso   1.00
H865   H     0.06427   0.66979   0.49395   0.00000  Uiso   1.00
N866   N     0.14493   0.81890   0.49028   0.00000  Uiso   1.00
N867   N     0.18840   0.84777   0.50972   0.00000  Uiso   1.00
O868   O     0.29769   0.91296   0.50238   0.00000  Uiso   1.00
O869   O     0.10242   0.89654   0.41595   0.00000  Uiso   1.00
O870   O     0.02801   0.72572   0.58387   0.00000  Uiso   1.00
O871   O     0.05742   0.90371   0.49616   0.00000  Uiso   1.00
O872   O     0.31490   0.84024   0.55587   0.00000  Uiso   1.00
O873   O     0.07463   0.83099   0.54964   0.00000  Uiso   1.00
O874   O     0.27592   0.76296   0.50384   0.00000  Uiso   1.00
O875   O     0.03565   0.75371   0.49762   0.00000  Uiso   1.00
O876   O     0.25870   0.83567   0.45036   0.00000  Uiso   1.00
O877   O     0.01843   0.82642   0.44413   0.00000  Uiso   1.00
O878   O     0.30649   0.88985   0.61861   0.00000  Uiso   1.00
Zn879  Zn    0.27119   0.83951   0.50416   0.00000  Uiso   1.00
Zn880  Zn    0.06214   0.82716   0.49584   0.00000  Uiso   1.00
C881   C     0.34800   0.93154   0.49869   0.00000  Uiso   1.00
C882   C     0.38569   0.83688   0.61181   0.00000  Uiso   1.00
C883   C     0.35521   0.98600   0.49707   0.00000  Uiso   1.00
C884   C     0.36882   0.83595   0.57045   0.00000  Uiso   1.00
C885   C     0.64336   0.68042   0.49995   0.00000  Uiso   1.00
C886   C     0.65140   0.73505   0.50004   0.00000  Uiso   1.00
C887   C     0.63108   0.83039   0.42967   0.00000  Uiso   1.00
C888   C     0.60098   0.76154   0.33498   0.00000  Uiso   1.00
C889   C     0.61129   0.82119   0.38925   0.00000  Uiso   1.00
C890   C     0.35888   0.87026   0.63381   0.00000  Uiso   1.00
C891   C     0.38162   0.87839   0.33903   0.00000  Uiso   1.00
C892   C     0.46408   0.82883   0.66528   0.00000  Uiso   1.00
C893   C     0.43392   0.85820   0.35534   0.00000  Uiso   1.00
C894   C     0.64947   0.94351   0.61292   0.00000  Uiso   1.00
C895   C     0.59276   0.96331   0.59254   0.00000  Uiso   1.00
C896   C     0.44989   0.86091   0.39730   0.00000  Uiso   1.00
C897   C     0.41342   0.72988   0.58398   0.00000  Uiso   1.00
C898   C     0.43372   0.81037   0.62908   0.00000  Uiso   1.00
C899   C     0.52257   0.81629   0.34281   0.00000  Uiso   1.00
C900   C     0.54468   0.77709   0.65550   0.00000  Uiso   1.00
C901   C     0.50913   0.75172   0.62389   0.00000  Uiso   1.00
C902   C     0.45304   0.76649   0.61128   0.00000  Uiso   1.00
C903   C     0.56039   0.84256   0.37316   0.00000  Uiso   1.00
C904   C     0.63341   0.78212   0.36947   0.00000  Uiso   1.00
H905   H     0.34034   0.76562   0.38159   0.00000  Uiso   1.00
H906   H     0.34943   0.95047   0.59498   0.00000  Uiso   1.00
H907   H     0.66363   0.96601   0.64049   0.00000  Uiso   1.00
H908   H     0.55849   0.95670   0.60962   0.00000  Uiso   1.00
H909   H     0.59899   0.67230   0.58813   0.00000  Uiso   1.00
H910   H     0.57842   0.94245   0.56448   0.00000  Uiso   1.00
H911   H     0.47439   0.83088   0.41186   0.00000  Uiso   1.00
H912   H     0.43086   0.70426   0.56519   0.00000  Uiso   1.00
H913   H     0.60092   0.99663   0.50299   0.00000  Uiso   1.00
H914   H     0.49014   0.79079   0.47291   0.00000  Uiso   1.00
H915   H     0.50982   0.87537   0.52745   0.00000  Uiso   1.00
H916   H     0.52418   0.71892   0.60994   0.00000  Uiso   1.00
H917   H     0.61798   0.73100   0.65319   0.00000  Uiso   1.00
H918   H     0.54909   0.87735   0.38674   0.00000  Uiso   1.00
H919   H     0.35752   0.89993   0.35633   0.00000  Uiso   1.00
H920   H     0.39760   0.66979   0.49395   0.00000  Uiso   1.00
N921   N     0.47827   0.81890   0.49028   0.00000  Uiso   1.00
N922   N     0.52173   0.84777   0.50972   0.00000  Uiso   1.00
O923   O     0.63102   0.91296   0.50238   0.00000  Uiso   1.00
O924   O     0.43575   0.89654   0.41595   0.00000  Uiso   1.00
O925   O     0.36134   0.72572   0.58387   0.00000  Uiso   1.00
O926   O     0.39075   0.90371   0.49616   0.00000  Uiso   1.00
O927   O     0.64823   0.84024   0.55587   0.00000  Uiso   1.00
O928   O     0.40796   0.83099   0.54964   0.00000  Uiso   1.00
O929   O     0.60925   0.76296   0.50384   0.00000  Uiso   1.00
O930   O     0.36898   0.75371   0.49762   0.00000  Uiso   1.00
O931   O     0.59204   0.83567   0.45036   0.00000  Uiso   1.00
O932   O     0.35177   0.82642   0.44413   0.00000  Uiso   1.00
O933   O     0.63982   0.88985   0.61861   0.00000  Uiso   1.00
Zn934  Zn    0.60453   0.83951   0.50416   0.00000  Uiso   1.00
Zn935  Zn    0.39547   0.82716   0.49584   0.00000  Uiso   1.00
C936   C     0.68134   0.93154   0.49869   0.00000  Uiso   1.00
C937   C     0.71902   0.83688   0.61181   0.00000  Uiso   1.00
C938   C     0.68854   0.98600   0.49707   0.00000  Uiso   1.00
C939   C     0.70216   0.83595   0.57045   0.00000  Uiso   1.00
C940   C     0.97669   0.68042   0.49995   0.00000  Uiso   1.00
C941   C     0.98473   0.73505   0.50004   0.00000  Uiso   1.00
C942   C     0.96441   0.83039   0.42967   0.00000  Uiso   1.00
C943   C     0.93431   0.76154   0.33498   0.00000  Uiso   1.00
C944   C     0.94462   0.82119   0.38925   0.00000  Uiso   1.00
C945   C     0.69222   0.87026   0.63381   0.00000  Uiso   1.00
C946   C     0.71496   0.87839   0.33903   0.00000  Uiso   1.00
C947   C     0.79741   0.82883   0.66528   0.00000  Uiso   1.00
C948   C     0.76726   0.85820   0.35534   0.00000  Uiso   1.00
C949   C     0.98280   0.94351   0.61292   0.00000  Uiso   1.00
C950   C     0.92610   0.96331   0.59254   0.00000  Uiso   1.00
C951   C     0.78322   0.86091   0.39730   0.00000  Uiso   1.00
C952   C     0.74675   0.72988   0.58398   0.00000  Uiso   1.00
C953   C     0.76706   0.81037   0.62908   0.00000  Uiso   1.00
C954   C     0.85590   0.81629   0.34281   0.00000  Uiso   1.00
C955   C     0.87801   0.77709   0.65550   0.00000  Uiso   1.00
C956   C     0.84246   0.75172   0.62389   0.00000  Uiso   1.00
C957   C     0.78638   0.76649   0.61128   0.00000  Uiso   1.00
C958   C     0.89373   0.84256   0.37316   0.00000  Uiso   1.00
C959   C     0.96674   0.78212   0.36947   0.00000  Uiso   1.00
H960   H     0.67367   0.76562   0.38159   0.00000  Uiso   1.00
H961   H     0.68277   0.95047   0.59498   0.00000  Uiso   1.00
H962   H     0.99696   0.96601   0.64049   0.00000  Uiso   1.00
H963   H     0.89182   0.95670   0.60962   0.00000  Uiso   1.00
H964   H     0.93232   0.67230   0.58813   0.00000  Uiso   1.00
H965   H     0.91175   0.94245   0.56448   0.00000  Uiso   1.00
H966   H     0.80772   0.83088   0.41186   0.00000  Uiso   1.00
H967   H     0.76420   0.70426   0.56519   0.00000  Uiso   1.00
H968   H     0.93425   0.99663   0.50299   0.00000  Uiso   1.00
H969   H     0.82347   0.79079   0.47291   0.00000  Uiso   1.00
H970   H     0.84316   0.87537   0.52745   0.00000  Uiso   1.00
H971   H     0.85751   0.71892   0.60994   0.00000  Uiso   1.00
H972   H     0.95131   0.73100   0.65319   0.00000  Uiso   1.00
H973   H     0.88243   0.87735   0.38674   0.00000  Uiso   1.00
H974   H     0.69085   0.89993   0.35633   0.00000  Uiso   1.00
H975   H     0.73094   0.66979   0.49395   0.00000  Uiso   1.00
N976   N     0.81160   0.81890   0.49028   0.00000  Uiso   1.00
N977   N     0.85507   0.84777   0.50972   0.00000  Uiso   1.00
O978   O     0.96435   0.91296   0.50238   0.00000  Uiso   1.00
O979   O     0.76909   0.89654   0.41595   0.00000  Uiso   1.00
O980   O     0.69468   0.72572   0.58387   0.00000  Uiso   1.00
O981   O     0.72408   0.90371   0.49616   0.00000  Uiso   1.00
O982   O     0.98157   0.84024   0.55587   0.00000  Uiso   1.00
O983   O     0.74130   0.83099   0.54964   0.00000  Uiso   1.00
O984   O     0.94258   0.76296   0.50384   0.00000  Uiso   1.00
O985   O     0.70231   0.75371   0.49762   0.00000  Uiso   1.00
O986   O     0.92537   0.83567   0.45036   0.00000  Uiso   1.00
O987   O     0.68510   0.82642   0.44413   0.00000  Uiso   1.00
O988   O     0.97316   0.88985   0.61861   0.00000  Uiso   1.00
Zn989  Zn    0.93786   0.83951   0.50416   0.00000  Uiso   1.00
Zn990  Zn    0.72881   0.82716   0.49584   0.00000  Uiso   1.00
C991   C     0.01467   0.26487   0.83202   0.00000  Uiso   1.00
C992   C     0.05236   0.17022   0.94515   0.00000  Uiso   1.00
C993   C     0.02187   0.31933   0.83041   0.00000  Uiso   1.00
C994   C     0.03549   0.16928   0.90379   0.00000  Uiso   1.00
C995   C     0.31003   0.01375   0.83329   0.00000  Uiso   1.00
C996   C     0.31807   0.06838   0.83337   0.00000  Uiso   1.00
C997   C     0.29774   0.16373   0.76300   0.00000  Uiso   1.00
C998   C     0.26764   0.09487   0.66831   0.00000  Uiso   1.00
C999   C     0.27795   0.15452   0.72258   0.00000  Uiso   1.00
C1000  C     0.02555   0.20359   0.96715   0.00000  Uiso   1.00
C1001  C     0.04829   0.21173   0.67236   0.00000  Uiso   1.00
C1002  C     0.13074   0.16216   0.99861   0.00000  Uiso   1.00
C1003  C     0.10059   0.19153   0.68868   0.00000  Uiso   1.00
C1004  C     0.31613   0.27685   0.94625   0.00000  Uiso   1.00
C1005  C     0.25943   0.29664   0.92587   0.00000  Uiso   1.00
C1006  C     0.11656   0.19424   0.73063   0.00000  Uiso   1.00
C1007  C     0.08008   0.06321   0.91731   0.00000  Uiso   1.00
C1008  C     0.10039   0.14371   0.96241   0.00000  Uiso   1.00
C1009  C     0.18924   0.14963   0.67615   0.00000  Uiso   1.00
C1010  C     0.21135   0.11042   0.98884   0.00000  Uiso   1.00
C1011  C     0.17580   0.08506   0.95722   0.00000  Uiso   1.00
C1012  C     0.11971   0.09983   0.94461   0.00000  Uiso   1.00
C1013  C     0.22706   0.17590   0.70649   0.00000  Uiso   1.00
C1014  C     0.30008   0.11545   0.70280   0.00000  Uiso   1.00
H1015  H     0.00700   0.09895   0.71492   0.00000  Uiso   1.00
H1016  H     0.01610   0.28380   0.92831   0.00000  Uiso   1.00
H1017  H     0.33029   0.29934   0.97382   0.00000  Uiso   1.00
H1018  H     0.22515   0.29003   0.94295   0.00000  Uiso   1.00
H1019  H     0.26565   0.00563   0.92146   0.00000  Uiso   1.00
H1020  H     0.24509   0.27579   0.89782   0.00000  Uiso   1.00
H1021  H     0.14106   0.16422   0.74520   0.00000  Uiso   1.00
H1022  H     0.09753   0.03759   0.89852   0.00000  Uiso   1.00
H1023  H     0.26759   0.32996   0.83632   0.00000  Uiso   1.00
H1024  H     0.15681   0.12413   0.80625   0.00000  Uiso   1.00
H1025  H     0.17649   0.20870   0.86078   0.00000  Uiso   1.00
H1026  H     0.19085   0.05225   0.94327   0.00000  Uiso   1.00
H1027  H     0.28464   0.06434   0.98652   0.00000  Uiso   1.00
H1028  H     0.21576   0.21069   0.72007   0.00000  Uiso   1.00
H1029  H     0.02418   0.23326   0.68966   0.00000  Uiso   1.00
H1030  H     0.06427   0.00312   0.82728   0.00000  Uiso   1.00
N1031  N     0.14493   0.15223   0.82362   0.00000  Uiso   1.00
N1032  N     0.18840   0.18110   0.84305   0.00000  Uiso   1.00
O1033  O     0.29769   0.24629   0.83572   0.00000  Uiso   1.00
O1034  O     0.10242   0.22987   0.74928   0.00000  Uiso   1.00
O1035  O     0.02801   0.05905   0.91721   0.00000  Uiso   1.00
O1036  O     0.05742   0.23704   0.82949   0.00000  Uiso   1.00
O1037  O     0.31490   0.17358   0.88920   0.00000  Uiso   1.00
O1038  O     0.07463   0.16433   0.88297   0.00000  Uiso   1.00
O1039  O     0.27592   0.09629   0.83718   0.00000  Uiso   1.00
O1040  O     0.03565   0.08704   0.83095   0.00000  Uiso   1.00
O1041  O     0.25870   0.16901   0.78369   0.00000  Uiso   1.00
O1042  O     0.01843   0.15976   0.77747   0.00000  Uiso   1.00
O1043  O     0.30649   0.22318   0.95195   0.00000  Uiso   1.00
Zn1044 Zn    0.27119   0.17284   0.83749   0.00000  Uiso   1.00
Zn1045 Zn    0.06214   0.16049   0.82918   0.00000  Uiso   1.00
C1046  C     0.34800   0.26487   0.83202   0.00000  Uiso   1.00
C1047  C     0.38569   0.17022   0.94515   0.00000  Uiso   1.00
C1048  C     0.35521   0.31933   0.83041   0.00000  Uiso   1.00
C1049  C     0.36882   0.16928   0.90379   0.00000  Uiso   1.00
C1050  C     0.64336   0.01375   0.83329   0.00000  Uiso   1.00
C1051  C     0.65140   0.06838   0.83337   0.00000  Uiso   1.00
C1052  C     0.63108   0.16373   0.76300   0.00000  Uiso   1.00
C1053  C     0.60098   0.09487   0.66831   0.00000  Uiso   1.00
C1054  C     0.61129   0.15452   0.72258   0.00000  Uiso   1.00
C1055  C     0.35888   0.20359   0.96715   0.00000  Uiso   1.00
C1056  C     0.38162   0.21173   0.67236   0.00000  Uiso   1.00
C1057  C     0.46408   0.16216   0.99861   0.00000  Uiso   1.00
C1058  C     0.43392   0.19153   0.68868   0.00000  Uiso   1.00
C1059  C     0.64947   0.27685   0.94625   0.00000  Uiso   1.00
C1060  C     0.59276   0.29664   0.92587   0.00000  Uiso   1.00
C1061  C     0.44989   0.19424   0.73063   0.00000  Uiso   1.00
C1062  C     0.41342   0.06321   0.91731   0.00000  Uiso   1.00
C1063  C     0.43372   0.14371   0.96241   0.00000  Uiso   1.00
C1064  C     0.52257   0.14963   0.67615   0.00000  Uiso   1.00
C1065  C     0.54468   0.11042   0.98884   0.00000  Uiso   1.00
C1066  C     0.50913   0.08506   0.95722   0.00000  Uiso   1.00
C1067  C     0.45304   0.09983   0.94461   0.00000  Uiso   1.00
C1068  C     0.56039   0.17590   0.70649   0.00000  Uiso   1.00
C1069  C     0.63341   0.11545   0.70280   0.00000  Uiso   1.00
H1070  H     0.34034   0.09895   0.71492   0.00000  Uiso   1.00
H1071  H     0.34943   0.28380   0.92831   0.00000  Uiso   1.00
H1072  H     0.66363   0.29934   0.97382   0.00000  Uiso   1.00
H1073  H     0.55849   0.29003   0.94295   0.00000  Uiso   1.00
H1074  H     0.59899   0.00563   0.92146   0.00000  Uiso   1.00
H1075  H     0.57842   0.27579   0.89782   0.00000  Uiso   1.00
H1076  H     0.47439   0.16422   0.74520   0.00000  Uiso   1.00
H1077  H     0.43086   0.03759   0.89852   0.00000  Uiso   1.00
H1078  H     0.60092   0.32996   0.83632   0.00000  Uiso   1.00
H1079  H     0.49014   0.12413   0.80625   0.00000  Uiso   1.00
H1080  H     0.50982   0.20870   0.86078   0.00000  Uiso   1.00
H1081  H     0.52418   0.05225   0.94327   0.00000  Uiso   1.00
H1082  H     0.61798   0.06434   0.98652   0.00000  Uiso   1.00
H1083  H     0.54909   0.21069   0.72007   0.00000  Uiso   1.00
H1084  H     0.35752   0.23326   0.68966   0.00000  Uiso   1.00
H1085  H     0.39760   0.00312   0.82728   0.00000  Uiso   1.00
N1086  N     0.47827   0.15223   0.82362   0.00000  Uiso   1.00
N1087  N     0.52173   0.18110   0.84305   0.00000  Uiso   1.00
O1088  O     0.63102   0.24629   0.83572   0.00000  Uiso   1.00
O1089  O     0.43575   0.22987   0.74928   0.00000  Uiso   1.00
O1090  O     0.36134   0.05905   0.91721   0.00000  Uiso   1.00
O1091  O     0.39075   0.23704   0.82949   0.00000  Uiso   1.00
O1092  O     0.64823   0.17358   0.88920   0.00000  Uiso   1.00
O1093  O     0.40796   0.16433   0.88297   0.00000  Uiso   1.00
O1094  O     0.60925   0.09629   0.83718   0.00000  Uiso   1.00
O1095  O     0.36898   0.08704   0.83095   0.00000  Uiso   1.00
O1096  O     0.59204   0.16901   0.78369   0.00000  Uiso   1.00
O1097  O     0.35177   0.15976   0.77747   0.00000  Uiso   1.00
O1098  O     0.63982   0.22318   0.95195   0.00000  Uiso   1.00
Zn1099 Zn    0.60453   0.17284   0.83749   0.00000  Uiso   1.00
Zn1100 Zn    0.39547   0.16049   0.82918   0.00000  Uiso   1.00
C1101  C     0.68134   0.26487   0.83202   0.00000  Uiso   1.00
C1102  C     0.71902   0.17022   0.94515   0.00000  Uiso   1.00
C1103  C     0.68854   0.31933   0.83041   0.00000  Uiso   1.00
C1104  C     0.70216   0.16928   0.90379   0.00000  Uiso   1.00
C1105  C     0.97669   0.01375   0.83329   0.00000  Uiso   1.00
C1106  C     0.98473   0.06838   0.83337   0.00000  Uiso   1.00
C1107  C     0.96441   0.16373   0.76300   0.00000  Uiso   1.00
C1108  C     0.93431   0.09487   0.66831   0.00000  Uiso   1.00
C1109  C     0.94462   0.15452   0.72258   0.00000  Uiso   1.00
C1110  C     0.69222   0.20359   0.96715   0.00000  Uiso   1.00
C1111  C     0.71496   0.21173   0.67236   0.00000  Uiso   1.00
C1112  C     0.79741   0.16216   0.99861   0.00000  Uiso   1.00
C1113  C     0.76726   0.19153   0.68868   0.00000  Uiso   1.00
C1114  C     0.98280   0.27685   0.94625   0.00000  Uiso   1.00
C1115  C     0.92610   0.29664   0.92587   0.00000  Uiso   1.00
C1116  C     0.78322   0.19424   0.73063   0.00000  Uiso   1.00
C1117  C     0.74675   0.06321   0.91731   0.00000  Uiso   1.00
C1118  C     0.76706   0.14371   0.96241   0.00000  Uiso   1.00
C1119  C     0.85590   0.14963   0.67615   0.00000  Uiso   1.00
C1120  C     0.87801   0.11042   0.98884   0.00000  Uiso   1.00
C1121  C     0.84246   0.08506   0.95722   0.00000  Uiso   1.00
C1122  C     0.78638   0.09983   0.94461   0.00000  Uiso   1.00
C1123  C     0.89373   0.17590   0.70649   0.00000  Uiso   1.00
C1124  C     0.96674   0.11545   0.70280   0.00000  Uiso   1.00
H1125  H     0.67367   0.09895   0.71492   0.00000  Uiso   1.00
H1126  H     0.68277   0.28380   0.92831   0.00000  Uiso   1.00
H1127  H     0.99696   0.29934   0.97382   0.00000  Uiso   1.00
H1128  H     0.89182   0.29003   0.94295   0.00000  Uiso   1.00
H1129  H     0.93232   0.00563   0.92146   0.00000  Uiso   1.00
H1130  H     0.91175   0.27579   0.89782   0.00000  Uiso   1.00
H1131  H     0.80772   0.16422   0.74520   0.00000  Uiso   1.00
H1132  H     0.76420   0.03759   0.89852   0.00000  Uiso   1.00
H1133  H     0.93425   0.32996   0.83632   0.00000  Uiso   1.00
H1134  H     0.82347   0.12413   0.80625   0.00000  Uiso   1.00
H1135  H     0.84316   0.20870   0.86078   0.00000  Uiso   1.00
H1136  H     0.85751   0.05225   0.94327   0.00000  Uiso   1.00
H1137  H     0.95131   0.06434   0.98652   0.00000  Uiso   1.00
H1138  H     0.88243   0.21069   0.72007   0.00000  Uiso   1.00
H1139  H     0.69085   0.23326   0.68966   0.00000  Uiso   1.00
H1140  H     0.73094   0.00312   0.82728   0.00000  Uiso   1.00
N1141  N     0.81160   0.15223   0.82362   0.00000  Uiso   1.00
N1142  N     0.85507   0.18110   0.84305   0.00000  Uiso   1.00
O1143  O     0.96435   0.24629   0.83572   0.00000  Uiso   1.00
O1144  O     0.76909   0.22987   0.74928   0.00000  Uiso   1.00
O1145  O     0.69468   0.05905   0.91721   0.00000  Uiso   1.00
O1146  O     0.72408   0.23704   0.82949   0.00000  Uiso   1.00
O1147  O     0.98157   0.17358   0.88920   0.00000  Uiso   1.00
O1148  O     0.74130   0.16433   0.88297   0.00000  Uiso   1.00
O1149  O     0.94258   0.09629   0.83718   0.00000  Uiso   1.00
O1150  O     0.70231   0.08704   0.83095   0.00000  Uiso   1.00
O1151  O     0.92537   0.16901   0.78369   0.00000  Uiso   1.00
O1152  O     0.68510   0.15976   0.77747   0.00000  Uiso   1.00
O1153  O     0.97316   0.22318   0.95195   0.00000  Uiso   1.00
Zn1154 Zn    0.93786   0.17284   0.83749   0.00000  Uiso   1.00
Zn1155 Zn    0.72881   0.16049   0.82918   0.00000  Uiso   1.00
C1156  C     0.01467   0.59821   0.83202   0.00000  Uiso   1.00
C1157  C     0.05236   0.50355   0.94515   0.00000  Uiso   1.00
C1158  C     0.02187   0.65266   0.83041   0.00000  Uiso   1.00
C1159  C     0.03549   0.50261   0.90379   0.00000  Uiso   1.00
C1160  C     0.31003   0.34708   0.83329   0.00000  Uiso   1.00
C1161  C     0.31807   0.40171   0.83337   0.00000  Uiso   1.00
C1162  C     0.29774   0.49706   0.76300   0.00000  Uiso   1.00
C1163  C     0.26764   0.42821   0.66831   0.00000  Uiso   1.00
C1164  C     0.27795   0.48786   0.72258   0.00000  Uiso   1.00
C1165  C     0.02555   0.53692   0.96715   0.00000  Uiso   1.00
C1166  C     0.04829   0.54506   0.67236   0.00000  Uiso   1.00
C1167  C     0.13074   0.49550   0.99861   0.00000  Uiso   1.00
C1168  C     0.10059   0.52486   0.68868   0.00000  Uiso   1.00
C1169  C     0.31613   0.61018   0.94625   0.00000  Uiso   1.00
C1170  C     0.25943   0.62997   0.92587   0.00000  Uiso   1.00
C1171  C     0.11656   0.52757   0.73063   0.00000  Uiso   1.00
C1172  C     0.08008   0.39654   0.91731   0.00000  Uiso   1.00
C1173  C     0.10039   0.47704   0.96241   0.00000  Uiso   1.00
C1174  C     0.18924   0.48296   0.67615   0.00000  Uiso   1.00
C1175  C     0.21135   0.44376   0.98884   0.00000  Uiso   1.00
C1176  C     0.17580   0.41839   0.95722   0.00000  Uiso   1.00
C1177  C     0.11971   0.43316   0.94461   0.00000  Uiso   1.00
C1178  C     0.22706   0.50923   0.70649   0.00000  Uiso   1.00
C1179  C     0.30008   0.44878   0.70280   0.00000  Uiso   1.00
H1180  H     0.00700   0.43229   0.71492   0.00000  Uiso   1.00
H1181  H     0.01610   0.61714   0.92831   0.00000  Uiso   1.00
H1182  H     0.33029   0.63268   0.97382   0.00000  Uiso   1.00
H1183  H     0.22515   0.62336   0.94295   0.00000  Uiso   1.00
H1184  H     0.26565   0.33897   0.92146   0.00000  Uiso   1.00
H1185  H     0.24509   0.60912   0.89782   0.00000  Uiso   1.00
H1186  H     0.14106   0.49755   0.74520   0.00000  Uiso   1.00
H1187  H     0.09753   0.37093   0.89852   0.00000  Uiso   1.00
H1188  H     0.26759   0.66330   0.83632   0.00000  Uiso   1.00
H1189  H     0.15681   0.45746   0.80625   0.00000  Uiso   1.00
H1190  H     0.17649   0.54204   0.86078   0.00000  Uiso   1.00
H1191  H     0.19085   0.38559   0.94327   0.00000  Uiso   1.00
H1192  H     0.28464   0.39767   0.98652   0.00000  Uiso   1.00
H1193  H     0.21576   0.54402   0.72007   0.00000  Uiso   1.00
H1194  H     0.02418   0.56660   0.68966   0.00000  Uiso   1.00
H1195  H     0.06427   0.33645   0.82728   0.00000  Uiso   1.00
N1196  N     0.14493   0.48556   0.82362   0.00000  Uiso   1.00
N1197  N     0.18840   0.51444   0.84305   0.00000  Uiso   1.00
O1198  O     0.29769   0.57963   0.83572   0.00000  Uiso   1.00
O1199  O     0.10242   0.56321   0.74928   0.00000  Uiso   1.00
O1200  O     0.02801   0.39239   0.91721   0.00000  Uiso   1.00
O1201  O     0.05742   0.57038   0.82949   0.00000  Uiso   1.00
O1202  O     0.31490   0.50691   0.88920   0.00000  Uiso   1.00
O1203  O     0.07463   0.49766   0.88297   0.00000  Uiso   1.00
O1204  O     0.27592   0.42962   0.83718   0.00000  Uiso   1.00
O1205  O     0.03565   0.42037   0.83095   0.00000  Uiso   1.00
O1206  O     0.25870   0.50234   0.78369   0.00000  Uiso   1.00
O1207  O     0.01843   0.49309   0.77747   0.00000  Uiso   1.00
O1208  O     0.30649   0.55651   0.95195   0.00000  Uiso   1.00
Zn1209 Zn    0.27119   0.50618   0.83749   0.00000  Uiso   1.00
Zn1210 Zn    0.06214   0.49382   0.82918   0.00000  Uiso   1.00
C1211  C     0.34800   0.59821   0.83202   0.00000  Uiso   1.00
C1212  C     0.38569   0.50355   0.94515   0.00000  Uiso   1.00
C1213  C     0.35521   0.65266   0.83041   0.00000  Uiso   1.00
C1214  C     0.36882   0.50261   0.90379   0.00000  Uiso   1.00
C1215  C     0.64336   0.34708   0.83329   0.00000  Uiso   1.00
C1216  C     0.65140   0.40171   0.83337   0.00000  Uiso   1.00
C1217  C     0.63108   0.49706   0.76300   0.00000  Uiso   1.00
C1218  C     0.60098   0.42821   0.66831   0.00000  Uiso   1.00
C1219  C     0.61129   0.48786   0.72258   0.00000  Uiso   1.00
C1220  C     0.35888   0.53692   0.96715   0.00000  Uiso   1.00
C1221  C     0.38162   0.54506   0.67236   0.00000  Uiso   1.00
C1222  C     0.46408   0.49550   0.99861   0.00000  Uiso   1.00
C1223  C     0.43392   0.52486   0.68868   0.00000  Uiso   1.00
C1224  C     0.64947   0.61018   0.94625   0.00000  Uiso   1.00
C1225  C     0.59276   0.62997   0.92587   0.00000  Uiso   1.00
C1226  C     0.44989   0.52757   0.73063   0.00000  Uiso   1.00
C1227  C     0.41342   0.39654   0.91731   0.00000  Uiso   1.00
C1228  C     0.43372   0.47704   0.96241   0.00000  Uiso   1.00
C1229  C     0.52257   0.48296   0.67615   0.00000  Uiso   1.00
C1230  C     0.54468   0.44376   0.98884   0.00000  Uiso   1.00
C1231  C     0.50913   0.41839   0.95722   0.00000  Uiso   1.00
C1232  C     0.45304   0.43316   0.94461   0.00000  Uiso   1.00
C1233  C     0.56039   0.50923   0.70649   0.00000  Uiso   1.00
C1234  C     0.63341   0.44878   0.70280   0.00000  Uiso   1.00
H1235  H     0.34034   0.43229   0.71492   0.00000  Uiso   1.00
H1236  H     0.34943   0.61714   0.92831   0.00000  Uiso   1.00
H1237  H     0.66363   0.63268   0.97382   0.00000  Uiso   1.00
H1238  H     0.55849   0.62336   0.94295   0.00000  Uiso   1.00
H1239  H     0.59899   0.33897   0.92146   0.00000  Uiso   1.00
H1240  H     0.57842   0.60912   0.89782   0.00000  Uiso   1.00
H1241  H     0.47439   0.49755   0.74520   0.00000  Uiso   1.00
H1242  H     0.43086   0.37093   0.89852   0.00000  Uiso   1.00
H1243  H     0.60092   0.66330   0.83632   0.00000  Uiso   1.00
H1244  H     0.49014   0.45746   0.80625   0.00000  Uiso   1.00
H1245  H     0.50982   0.54204   0.86078   0.00000  Uiso   1.00
H1246  H     0.52418   0.38559   0.94327   0.00000  Uiso   1.00
H1247  H     0.61798   0.39767   0.98652   0.00000  Uiso   1.00
H1248  H     0.54909   0.54402   0.72007   0.00000  Uiso   1.00
H1249  H     0.35752   0.56660   0.68966   0.00000  Uiso   1.00
H1250  H     0.39760   0.33645   0.82728   0.00000  Uiso   1.00
N1251  N     0.47827   0.48556   0.82362   0.00000  Uiso   1.00
N1252  N     0.52173   0.51444   0.84305   0.00000  Uiso   1.00
O1253  O     0.63102   0.57963   0.83572   0.00000  Uiso   1.00
O1254  O     0.43575   0.56321   0.74928   0.00000  Uiso   1.00
O1255  O     0.36134   0.39239   0.91721   0.00000  Uiso   1.00
O1256  O     0.39075   0.57038   0.82949   0.00000  Uiso   1.00
O1257  O     0.64823   0.50691   0.88920   0.00000  Uiso   1.00
O1258  O     0.40796   0.49766   0.88297   0.00000  Uiso   1.00
O1259  O     0.60925   0.42962   0.83718   0.00000  Uiso   1.00
O1260  O     0.36898   0.42037   0.83095   0.00000  Uiso   1.00
O1261  O     0.59204   0.50234   0.78369   0.00000  Uiso   1.00
O1262  O     0.35177   0.49309   0.77747   0.00000  Uiso   1.00
O1263  O     0.63982   0.55651   0.95195   0.00000  Uiso   1.00
Zn1264 Zn    0.60453   0.50618   0.83749   0.00000  Uiso   1.00
Zn1265 Zn    0.39547   0.49382   0.82918   0.00000  Uiso   1.00
C1266  C     0.68134   0.59821   0.83202   0.00000  Uiso   1.00
C1267  C     0.71902   0.50355   0.94515   0.00000  Uiso   1.00
C1268  C     0.68854   0.65266   0.83041   0.00000  Uiso   1.00
C1269  C     0.70216   0.50261   0.90379   0.00000  Uiso   1.00
C1270  C     0.97669   0.34708   0.83329   0.00000  Uiso   1.00
C1271  C     0.98473   0.40171   0.83337   0.00000  Uiso   1.00
C1272  C     0.96441   0.49706   0.76300   0.00000  Uiso   1.00
C1273  C     0.93431   0.42821   0.66831   0.00000  Uiso   1.00
C1274  C     0.94462   0.48786   0.72258   0.00000  Uiso   1.00
C1275  C     0.69222   0.53692   0.96715   0.00000  Uiso   1.00
C1276  C     0.71496   0.54506   0.67236   0.00000  Uiso   1.00
C1277  C     0.79741   0.49550   0.99861   0.00000  Uiso   1.00
C1278  C     0.76726   0.52486   0.68868   0.00000  Uiso   1.00
C1279  C     0.98280   0.61018   0.94625   0.00000  Uiso   1.00
C1280  C     0.92610   0.62997   0.92587   0.00000  Uiso   1.00
C1281  C     0.78322   0.52757   0.73063   0.00000  Uiso   1.00
C1282  C     0.74675   0.39654   0.91731   0.00000  Uiso   1.00
C1283  C     0.76706   0.47704   0.96241   0.00000  Uiso   1.00
C1284  C     0.85590   0.48296   0.67615   0.00000  Uiso   1.00
C1285  C     0.87801   0.44376   0.98884   0.00000  Uiso   1.00
C1286  C     0.84246   0.41839   0.95722   0.00000  Uiso   1.00
C1287  C     0.78638   0.43316   0.94461   0.00000  Uiso   1.00
C1288  C     0.89373   0.50923   0.70649   0.00000  Uiso   1.00
C1289  C     0.96674   0.44878   0.70280   0.00000  Uiso   1.00
H1290  H     0.67367   0.43229   0.71492   0.00000  Uiso   1.00
H1291  H     0.68277   0.61714   0.92831   0.00000  Uiso   1.00
H1292  H     0.99696   0.63268   0.97382   0.00000  Uiso   1.00
H1293  H     0.89182   0.62336   0.94295   0.00000  Uiso   1.00
H1294  H     0.93232   0.33897   0.92146   0.00000  Uiso   1.00
H1295  H     0.91175   0.60912   0.89782   0.00000  Uiso   1.00
H1296  H     0.80772   0.49755   0.74520   0.00000  Uiso   1.00
H1297  H     0.76420   0.37093   0.89852   0.00000  Uiso   1.00
H1298  H     0.93425   0.66330   0.83632   0.00000  Uiso   1.00
H1299  H     0.82347   0.45746   0.80625   0.00000  Uiso   1.00
H1300  H     0.84316   0.54204   0.86078   0.00000  Uiso   1.00
H1301  H     0.85751   0.38559   0.94327   0.00000  Uiso   1.00
H1302  H     0.95131   0.39767   0.98652   0.00000  Uiso   1.00
H1303  H     0.88243   0.54402   0.72007   0.00000  Uiso   1.00
H1304  H     0.69085   0.56660   0.68966   0.00000  Uiso   1.00
H1305  H     0.73094   0.33645   0.82728   0.00000  Uiso   1.00
N1306  N     0.81160   0.48556   0.82362   0.00000  Uiso   1.00
N1307  N     0.85507   0.51444   0.84305   0.00000  Uiso   1.00
O1308  O     0.96435   0.57963   0.83572   0.00000  Uiso   1.00
O1309  O     0.76909   0.56321   0.74928   0.00000  Uiso   1.00
O1310  O     0.69468   0.39239   0.91721   0.00000  Uiso   1.00
O1311  O     0.72408   0.57038   0.82949   0.00000  Uiso   1.00
O1312  O     0.98157   0.50691   0.88920   0.00000  Uiso   1.00
O1313  O     0.74130   0.49766   0.88297   0.00000  Uiso   1.00
O1314  O     0.94258   0.42962   0.83718   0.00000  Uiso   1.00
O1315  O     0.70231   0.42037   0.83095   0.00000  Uiso   1.00
O1316  O     0.92537   0.50234   0.78369   0.00000  Uiso   1.00
O1317  O     0.68510   0.49309   0.77747   0.00000  Uiso   1.00
O1318  O     0.97316   0.55651   0.95195   0.00000  Uiso   1.00
Zn1319 Zn    0.93786   0.50618   0.83749   0.00000  Uiso   1.00
Zn1320 Zn    0.72881   0.49382   0.82918   0.00000  Uiso   1.00
C1321  C     0.01467   0.93154   0.83202   0.00000  Uiso   1.00
C1322  C     0.05236   0.83688   0.94515   0.00000  Uiso   1.00
C1323  C     0.02187   0.98600   0.83041   0.00000  Uiso   1.00
C1324  C     0.03549   0.83595   0.90379   0.00000  Uiso   1.00
C1325  C     0.31003   0.68042   0.83329   0.00000  Uiso   1.00
C1326  C     0.31807   0.73505   0.83337   0.00000  Uiso   1.00
C1327  C     0.29774   0.83039   0.76300   0.00000  Uiso   1.00
C1328  C     0.26764   0.76154   0.66831   0.00000  Uiso   1.00
C1329  C     0.27795   0.82119   0.72258   0.00000  Uiso   1.00
C1330  C     0.02555   0.87026   0.96715   0.00000  Uiso   1.00
C1331  C     0.04829   0.87839   0.67236   0.00000  Uiso   1.00
C1332  C     0.13074   0.82883   0.99861   0.00000  Uiso   1.00
C1333  C     0.10059   0.85820   0.68868   0.00000  Uiso   1.00
C1334  C     0.31613   0.94351   0.94625   0.00000  Uiso   1.00
C1335  C     0.25943   0.96331   0.92587   0.00000  Uiso   1.00
C1336  C     0.11656   0.86091   0.73063   0.00000  Uiso   1.00
C1337  C     0.08008   0.72988   0.91731   0.00000  Uiso   1.00
C1338  C     0.10039   0.81037   0.96241   0.00000  Uiso   1.00
C1339  C     0.18924   0.81629   0.67615   0.00000  Uiso   1.00
C1340  C     0.21135   0.77709   0.98884   0.00000  Uiso   1.00
C1341  C     0.17580   0.75172   0.95722   0.00000  Uiso   1.00
C1342  C     0.11971   0.76649   0.94461   0.00000  Uiso   1.00
C1343  C     0.22706   0.84256   0.70649   0.00000  Uiso   1.00
C1344  C     0.30008   0.78212   0.70280   0.00000  Uiso   1.00
H1345  H     0.00700   0.76562   0.71492   0.00000  Uiso   1.00
H1346  H     0.01610   0.95047   0.92831   0.00000  Uiso   1.00
H1347  H     0.33029   0.96601   0.97382   0.00000  Uiso   1.00
H1348  H     0.22515   0.95670   0.94295   0.00000  Uiso   1.00
H1349  H     0.26565   0.67230   0.92146   0.00000  Uiso   1.00
H1350  H     0.24509   0.94245   0.89782   0.00000  Uiso   1.00
H1351  H     0.14106   0.83088   0.74520   0.00000  Uiso   1.00
H1352  H     0.09753   0.70426   0.89852   0.00000  Uiso   1.00
H1353  H     0.26759   0.99663   0.83632   0.00000  Uiso   1.00
H1354  H     0.15681   0.79079   0.80625   0.00000  Uiso   1.00
H1355  H     0.17649   0.87537   0.86078   0.00000  Uiso   1.00
H1356  H     0.19085   0.71892   0.94327   0.00000  Uiso   1.00
H1357  H     0.28464   0.73100   0.98652   0.00000  Uiso   1.00
H1358  H     0.21576   0.87735   0.72007   0.00000  Uiso   1.00
H1359  H     0.02418   0.89993   0.68966   0.00000  Uiso   1.00
H1360  H     0.06427   0.66979   0.82728   0.00000  Uiso   1.00
N1361  N     0.14493   0.81890   0.82362   0.00000  Uiso   1.00
N1362  N     0.18840   0.84777   0.84305   0.00000  Uiso   1.00
O1363  O     0.29769   0.91296   0.83572   0.00000  Uiso   1.00
O1364  O     0.10242   0.89654   0.74928   0.00000  Uiso   1.00
O1365  O     0.02801   0.72572   0.91721   0.00000  Uiso   1.00
O1366  O     0.05742   0.90371   0.82949   0.00000  Uiso   1.00
O1367  O     0.31490   0.84024   0.88920   0.00000  Uiso   1.00
O1368  O     0.07463   0.83099   0.88297   0.00000  Uiso   1.00
O1369  O     0.27592   0.76296   0.83718   0.00000  Uiso   1.00
O1370  O     0.03565   0.75371   0.83095   0.00000  Uiso   1.00
O1371  O     0.25870   0.83567   0.78369   0.00000  Uiso   1.00
O1372  O     0.01843   0.82642   0.77747   0.00000  Uiso   1.00
O1373  O     0.30649   0.88985   0.95195   0.00000  Uiso   1.00
Zn1374 Zn    0.27119   0.83951   0.83749   0.00000  Uiso   1.00
Zn1375 Zn    0.06214   0.82716   0.82918   0.00000  Uiso   1.00
C1376  C     0.34800   0.93154   0.83202   0.00000  Uiso   1.00
C1377  C     0.38569   0.83688   0.94515   0.00000  Uiso   1.00
C1378  C     0.35521   0.98600   0.83041   0.00000  Uiso   1.00
C1379  C     0.36882   0.83595   0.90379   0.00000  Uiso   1.00
C1380  C     0.64336   0.68042   0.83329   0.00000  Uiso   1.00
C1381  C     0.65140   0.73505   0.83337   0.00000  Uiso   1.00
C1382  C     0.63108   0.83039   0.76300   0.00000  Uiso   1.00
C1383  C     0.60098   0.76154   0.66831   0.00000  Uiso   1.00
C1384  C     0.61129   0.82119   0.72258   0.00000  Uiso   1.00
C1385  C     0.35888   0.87026   0.96715   0.00000  Uiso   1.00
C1386  C     0.38162   0.87839   0.67236   0.00000  Uiso   1.00
C1387  C     0.46408   0.82883   0.99861   0.00000  Uiso   1.00
C1388  C     0.43392   0.85820   0.68868   0.00000  Uiso   1.00
C1389  C     0.64947   0.94351   0.94625   0.00000  Uiso   1.00
C1390  C     0.59276   0.96331   0.92587   0.00000  Uiso   1.00
C1391  C     0.44989   0.86091   0.73063   0.00000  Uiso   1.00
C1392  C     0.41342   0.72988   0.91731   0.00000  Uiso   1.00
C1393  C     0.43372   0.81037   0.96241   0.00000  Uiso   1.00
C1394  C     0.52257   0.81629   0.67615   0.00000  Uiso   1.00
C1395  C     0.54468   0.77709   0.98884   0.00000  Uiso   1.00
C1396  C     0.50913   0.75172   0.95722   0.00000  Uiso   1.00
C1397  C     0.45304   0.76649   0.94461   0.00000  Uiso   1.00
C1398  C     0.56039   0.84256   0.70649   0.00000  Uiso   1.00
C1399  C     0.63341   0.78212   0.70280   0.00000  Uiso   1.00
H1400  H     0.34034   0.76562   0.71492   0.00000  Uiso   1.00
H1401  H     0.34943   0.95047   0.92831   0.00000  Uiso   1.00
H1402  H     0.66363   0.96601   0.97382   0.00000  Uiso   1.00
H1403  H     0.55849   0.95670   0.94295   0.00000  Uiso   1.00
H1404  H     0.59899   0.67230   0.92146   0.00000  Uiso   1.00
H1405  H     0.57842   0.94245   0.89782   0.00000  Uiso   1.00
H1406  H     0.47439   0.83088   0.74520   0.00000  Uiso   1.00
H1407  H     0.43086   0.70426   0.89852   0.00000  Uiso   1.00
H1408  H     0.60092   0.99663   0.83632   0.00000  Uiso   1.00
H1409  H     0.49014   0.79079   0.80625   0.00000  Uiso   1.00
H1410  H     0.50982   0.87537   0.86078   0.00000  Uiso   1.00
H1411  H     0.52418   0.71892   0.94327   0.00000  Uiso   1.00
H1412  H     0.61798   0.73100   0.98652   0.00000  Uiso   1.00
H1413  H     0.54909   0.87735   0.72007   0.00000  Uiso   1.00
H1414  H     0.35752   0.89993   0.68966   0.00000  Uiso   1.00
H1415  H     0.39760   0.66979   0.82728   0.00000  Uiso   1.00
N1416  N     0.47827   0.81890   0.82362   0.00000  Uiso   1.00
N1417  N     0.52173   0.84777   0.84305   0.00000  Uiso   1.00
O1418  O     0.63102   0.91296   0.83572   0.00000  Uiso   1.00
O1419  O     0.43575   0.89654   0.74928   0.00000  Uiso   1.00
O1420  O     0.36134   0.72572   0.91721   0.00000  Uiso   1.00
O1421  O     0.39075   0.90371   0.82949   0.00000  Uiso   1.00
O1422  O     0.64823   0.84024   0.88920   0.00000  Uiso   1.00
O1423  O     0.40796   0.83099   0.88297   0.00000  Uiso   1.00
O1424  O     0.60925   0.76296   0.83718   0.00000  Uiso   1.00
O1425  O     0.36898   0.75371   0.83095   0.00000  Uiso   1.00
O1426  O     0.59204   0.83567   0.78369   0.00000  Uiso   1.00
O1427  O     0.35177   0.82642   0.77747   0.00000  Uiso   1.00
O1428  O     0.63982   0.88985   0.95195   0.00000  Uiso   1.00
Zn1429 Zn    0.60453   0.83951   0.83749   0.00000  Uiso   1.00
Zn1430 Zn    0.39547   0.82716   0.82918   0.00000  Uiso   1.00
C1431  C     0.68134   0.93154   0.83202   0.00000  Uiso   1.00
C1432  C     0.71902   0.83688   0.94515   0.00000  Uiso   1.00
C1433  C     0.68854   0.98600   0.83041   0.00000  Uiso   1.00
C1434  C     0.70216   0.83595   0.90379   0.00000  Uiso   1.00
C1435  C     0.97669   0.68042   0.83329   0.00000  Uiso   1.00
C1436  C     0.98473   0.73505   0.83337   0.00000  Uiso   1.00
C1437  C     0.96441   0.83039   0.76300   0.00000  Uiso   1.00
C1438  C     0.93431   0.76154   0.66831   0.00000  Uiso   1.00
C1439  C     0.94462   0.82119   0.72258   0.00000  Uiso   1.00
C1440  C     0.69222   0.87026   0.96715   0.00000  Uiso   1.00
C1441  C     0.71496   0.87839   0.67236   0.00000  Uiso   1.00
C1442  C     0.79741   0.82883   0.99861   0.00000  Uiso   1.00
C1443  C     0.76726   0.85820   0.68868   0.00000  Uiso   1.00
C1444  C     0.98280   0.94351   0.94625   0.00000  Uiso   1.00
C1445  C     0.92610   0.96331   0.92587   0.00000  Uiso   1.00
C1446  C     0.78322   0.86091   0.73063   0.00000  Uiso   1.00
C1447  C     0.74675   0.72988   0.91731   0.00000  Uiso   1.00
C1448  C     0.76706   0.81037   0.96241   0.00000  Uiso   1.00
C1449  C     0.85590   0.81629   0.67615   0.00000  Uiso   1.00
C1450  C     0.87801   0.77709   0.98884   0.00000  Uiso   1.00
C1451  C     0.84246   0.75172   0.95722   0.00000  Uiso   1.00
C1452  C     0.78638   0.76649   0.94461   0.00000  Uiso   1.00
C1453  C     0.89373   0.84256   0.70649   0.00000  Uiso   1.00
C1454  C     0.96674   0.78212   0.70280   0.00000  Uiso   1.00
H1455  H     0.67367   0.76562   0.71492   0.00000  Uiso   1.00
H1456  H     0.68277   0.95047   0.92831   0.00000  Uiso   1.00
H1457  H     0.99696   0.96601   0.97382   0.00000  Uiso   1.00
H1458  H     0.89182   0.95670   0.94295   0.00000  Uiso   1.00
H1459  H     0.93232   0.67230   0.92146   0.00000  Uiso   1.00
H1460  H     0.91175   0.94245   0.89782   0.00000  Uiso   1.00
H1461  H     0.80772   0.83088   0.74520   0.00000  Uiso   1.00
H1462  H     0.76420   0.70426   0.89852   0.00000  Uiso   1.00
H1463  H     0.93425   0.99663   0.83632   0.00000  Uiso   1.00
H1464  H     0.82347   0.79079   0.80625   0.00000  Uiso   1.00
H1465  H     0.84316   0.87537   0.86078   0.00000  Uiso   1.00
H1466  H     0.85751   0.71892   0.94327   0.00000  Uiso   1.00
H1467  H     0.95131   0.73100   0.98652   0.00000  Uiso   1.00
H1468  H     0.88243   0.87735   0.72007   0.00000  Uiso   1.00
H1469  H     0.69085   0.89993   0.68966   0.00000  Uiso   1.00
H1470  H     0.73094   0.66979   0.82728   0.00000  Uiso   1.00
N1471  N     0.81160   0.81890   0.82362   0.00000  Uiso   1.00
N1472  N     0.85507   0.84777   0.84305   0.00000  Uiso   1.00
O1473  O     0.96435   0.91296   0.83572   0.00000  Uiso   1.00
O1474  O     0.76909   0.89654   0.74928   0.00000  Uiso   1.00
O1475  O     0.69468   0.72572   0.91721   0.00000  Uiso   1.00
O1476  O     0.72408   0.90371   0.82949   0.00000  Uiso   1.00
O1477  O     0.98157   0.84024   0.88920   0.00000  Uiso   1.00
O1478  O     0.74130   0.83099   0.88297   0.00000  Uiso   1.00
O1479  O     0.94258   0.76296   0.83718   0.00000  Uiso   1.00
O1480  O     0.70231   0.75371   0.83095   0.00000  Uiso   1.00
O1481  O     0.92537   0.83567   0.78369   0.00000  Uiso   1.00
O1482  O     0.68510   0.82642   0.77747   0.00000  Uiso   1.00
O1483  O     0.97316   0.88985   0.95195   0.00000  Uiso   1.00
Zn1484 Zn    0.93786   0.83951   0.83749   0.00000  Uiso   1.00
Zn1485 Zn    0.72881   0.82716   0.82918   0.00000  Uiso   1.00
loop_
_geom_bond_atom_site_label_1
_geom_bond_atom_site_label_2
_geom_bond_distance
_geom_bond_site_symmetry_2
_ccdc_geom_bond_type
C1     O46     1.289   .     A
C1     C3      1.403   .     S
C1     O153    1.276   1_455 S
C2     C4      1.464   .     S
C2     C18     1.410   .     A
C2     C10     1.410   .     A
C3     C280    1.339   1_455 S
C3     H205    1.088   .     S
C4     O48     1.304   .     A
C4     O157    1.288   1_455 S
C5     C6      1.404   .     S
C5     C388    1.339   1_545 S
C5     H363    1.088   1_545 S
C6     O49     1.289   .     A
C6     O105    1.277   .     S
C7     O51     1.300   .     A
C7     C9      1.446   .     S
C7     O107    1.288   .     S
C8     C24     1.392   .     A
C8     C1010   1.404   1_554 S
C8     H1027   1.084   1_554 S
C9     C24     1.400   .     A
C9     C23     1.383   .     A
C10    C506    1.391   .     S
C10    O163    1.383   1_455 S
C11    H39     1.084   .     S
C11    C13     1.398   .     A
C11    C1000   1.391   1_554 S
C12    C18     1.409   .     A
C12    C508    1.431   .     S
C12    C514    1.417   .     S
C13    C16     1.482   .     S
C13    C1002   1.431   1_554 S
C14    H27     1.114   .     S
C14    O53     1.410   .     S
C14    C15     1.521   .     S
C14    H81     1.115   .     S
C15    H28     1.111   .     S
C15    H30     1.109   .     S
C15    H194    1.108   .     S
C16    O44     1.221   .     D
C16    H31     1.083   .     S
C17    C22     1.478   .     S
C17    O45     1.220   .     D
C17    H32     1.085   .     S
C18    C22     1.425   .     A
C19    C23     1.390   .     A
C19    C1002   1.417   1_554 S
C19    C1010   1.420   1_554 S
C20    C21     1.388   .     A
C20    C503    1.404   .     S
C20    C514    1.420   .     S
C21    H36     1.083   .     S
C21    C22     1.392   .     A
C23    H38     1.080   .     S
C24    H80     1.083   .     S
H25    C134    1.083   1_455 S
H26    C124    1.115   1_455 S
H29    C345    1.108   1_545 S
H33    C170    1.088   .     S
H34    N41     1.029   .     S
H35    N42     1.029   .     S
H37    C503    1.084   .     S
H40    C333    1.088   1_545 S
N41    N42     1.291   .     D
N41    Zn55    2.019   .     S
N42    Zn54    2.019   .     S
O43    Zn54    1.953   .     S
O43    C56     1.276   .     S
O46    Zn55    1.979   .     S
O47    Zn54    1.943   .     S
O47    C59     1.288   .     S
O48    Zn55    1.900   .     S
O49    Zn54    1.979   .     S
O50    Zn55    1.953   .     S
O50    C116    1.277   1_455 S
O51    Zn54    1.900   .     S
O52    Zn55    1.943   .     S
O52    C117    1.288   1_455 S
O53    C65     1.383   .     S
C56    O101    1.289   .     A
C56    C58     1.403   .     S
C57    C59     1.464   .     S
C57    C73     1.410   .     A
C57    C65     1.410   .     A
C58    C170    1.339   .     S
C58    H260    1.088   .     S
C59    O103    1.304   .     A
C60    C61     1.404   .     S
C60    C443    1.339   1_545 S
C60    H418    1.088   1_545 S
C61    O104    1.289   .     A
C61    O160    1.277   .     S
C62    O106    1.300   .     A
C62    C64     1.446   .     S
C62    O162    1.288   .     S
C63    C79     1.392   .     A
C63    C1065   1.404   1_554 S
C63    H1082   1.084   1_554 S
C64    C79     1.400   .     A
C64    C78     1.383   .     A
C65    C561    1.391   .     S
C66    H94     1.084   .     S
C66    C68     1.398   .     A
C66    C1055   1.391   1_554 S
C67    C73     1.409   .     A
C67    C563    1.431   .     S
C67    C569    1.417   .     S
C68    C71     1.482   .     S
C68    C1057   1.431   1_554 S
C69    H82     1.114   .     S
C69    O108    1.410   .     S
C69    C70     1.521   .     S
C69    H136    1.115   .     S
C70    H83     1.111   .     S
C70    H85     1.109   .     S
C70    H249    1.108   .     S
C71    O99     1.221   .     D
C71    H86     1.083   .     S
C72    C77     1.478   .     S
C72    O100    1.220   .     D
C72    H87     1.085   .     S
C73    C77     1.425   .     A
C74    C78     1.390   .     A
C74    C1057   1.417   1_554 S
C74    C1065   1.420   1_554 S
C75    C76     1.388   .     A
C75    C558    1.404   .     S
C75    C569    1.420   .     S
C76    H91     1.083   .     S
C76    C77     1.392   .     A
C78    H93     1.080   .     S
C79    H135    1.083   .     S
H84    C400    1.108   1_545 S
H88    C225    1.088   .     S
H89    N96     1.029   .     S
H90    N97     1.029   .     S
H92    C558    1.084   .     S
H95    C388    1.088   1_545 S
N96    N97     1.291   .     D
N96    Zn110   2.019   .     S
N97    Zn109   2.019   .     S
O98    Zn109   1.953   .     S
O98    C111    1.276   .     S
O101   Zn110   1.979   .     S
O102   Zn109   1.943   .     S
O102   C114    1.288   .     S
O103   Zn110   1.900   .     S
O104   Zn109   1.979   .     S
O105   Zn110   1.953   .     S
O106   Zn109   1.900   .     S
O107   Zn110   1.943   .     S
O108   C120    1.383   .     S
C111   O156    1.289   .     A
C111   C113    1.403   .     S
C112   C114    1.464   .     S
C112   C128    1.410   .     A
C112   C120    1.410   .     A
C113   C225    1.339   .     S
C113   H315    1.088   .     S
C114   O158    1.304   .     A
C115   C116    1.404   .     S
C115   C333    1.339   1_645 S
C115   H473    1.088   1_545 S
C116   O159    1.289   .     A
C116   O50     1.277   1_655 S
C117   O161    1.300   .     A
C117   C119    1.446   .     S
C117   O52     1.288   1_655 S
C118   C134    1.392   .     A
C118   C1120   1.404   1_554 S
C118   H1137   1.084   1_554 S
C119   C134    1.400   .     A
C119   C133    1.383   .     A
C120   C616    1.391   .     S
C121   H149    1.084   .     S
C121   C123    1.398   .     A
C121   C1110   1.391   1_554 S
C122   C128    1.409   .     A
C122   C618    1.431   .     S
C122   C624    1.417   .     S
C123   C126    1.482   .     S
C123   C1112   1.431   1_554 S
C124   H137    1.114   .     S
C124   O163    1.410   .     S
C124   C125    1.521   .     S
C124   H26     1.115   1_655 S
C125   H138    1.111   .     S
C125   H140    1.109   .     S
C125   H304    1.108   .     S
C126   O154    1.221   .     D
C126   H141    1.083   .     S
C127   C132    1.478   .     S
C127   O155    1.220   .     D
C127   H142    1.085   .     S
C128   C132    1.425   .     A
C129   C133    1.390   .     A
C129   C1112   1.417   1_554 S
C129   C1120   1.420   1_554 S
C130   C131    1.388   .     A
C130   C613    1.404   .     S
C130   C624    1.420   .     S
C131   H146    1.083   .     S
C131   C132    1.392   .     A
C133   H148    1.080   .     S
C134   H25     1.083   1_655 S
H139   C455    1.108   1_545 S
H143   C280    1.088   .     S
H144   N151    1.029   .     S
H145   N152    1.029   .     S
H147   C613    1.084   .     S
H150   C443    1.088   1_545 S
N151   N152    1.291   .     D
N151   Zn165   2.019   .     S
N152   Zn164   2.019   .     S
O153   Zn164   1.953   .     S
O153   C1      1.276   1_655 S
O156   Zn165   1.979   .     S
O157   Zn164   1.943   .     S
O157   C4      1.288   1_655 S
O158   Zn165   1.900   .     S
O159   Zn164   1.979   .     S
O160   Zn165   1.953   .     S
O161   Zn164   1.900   .     S
O162   Zn165   1.943   .     S
O163   C10     1.383   1_655 S
C166   O211    1.289   .     A
C166   C168    1.403   .     S
C166   O318    1.276   1_455 S
C167   C169    1.464   .     S
C167   C183    1.410   .     A
C167   C175    1.410   .     A
C168   C445    1.339   1_455 S
C168   H370    1.088   .     S
C169   O213    1.304   .     A
C169   O322    1.288   1_455 S
C170   C171    1.404   .     S
C171   O214    1.289   .     A
C171   O270    1.277   .     S
C172   O216    1.300   .     A
C172   C174    1.446   .     S
C172   O272    1.288   .     S
C173   C189    1.392   .     A
C173   C1175   1.404   1_554 S
C173   H1192   1.084   1_554 S
C174   C189    1.400   .     A
C174   C188    1.383   .     A
C175   C671    1.391   .     S
C175   O328    1.383   1_455 S
C176   H204    1.084   .     S
C176   C178    1.398   .     A
C176   C1165   1.391   1_554 S
C177   C183    1.409   .     A
C177   C673    1.431   .     S
C177   C679    1.417   .     S
C178   C181    1.482   .     S
C178   C1167   1.431   1_554 S
C179   H192    1.114   .     S
C179   O218    1.410   .     S
C179   C180    1.521   .     S
C179   H246    1.115   .     S
C180   H193    1.111   .     S
C180   H195    1.109   .     S
C180   H359    1.108   .     S
C181   O209    1.221   .     D
C181   H196    1.083   .     S
C182   C187    1.478   .     S
C182   O210    1.220   .     D
C182   H197    1.085   .     S
C183   C187    1.425   .     A
C184   C188    1.390   .     A
C184   C1167   1.417   1_554 S
C184   C1175   1.420   1_554 S
C185   C186    1.388   .     A
C185   C668    1.404   .     S
C185   C679    1.420   .     S
C186   H201    1.083   .     S
C186   C187    1.392   .     A
C188   H203    1.080   .     S
C189   H245    1.083   .     S
H190   C299    1.083   1_455 S
H191   C289    1.115   1_455 S
H198   C335    1.088   .     S
H199   N206    1.029   .     S
H200   N207    1.029   .     S
H202   C668    1.084   .     S
N206   N207    1.291   .     D
N206   Zn220   2.019   .     S
N207   Zn219   2.019   .     S
O208   Zn219   1.953   .     S
O208   C221    1.276   .     S
O211   Zn220   1.979   .     S
O212   Zn219   1.943   .     S
O212   C224    1.288   .     S
O213   Zn220   1.900   .     S
O214   Zn219   1.979   .     S
O215   Zn220   1.953   .     S
O215   C281    1.277   1_455 S
O216   Zn219   1.900   .     S
O217   Zn220   1.943   .     S
O217   C282    1.288   1_455 S
O218   C230    1.383   .     S
C221   O266    1.289   .     A
C221   C223    1.403   .     S
C222   C224    1.464   .     S
C222   C238    1.410   .     A
C222   C230    1.410   .     A
C223   C335    1.339   .     S
C223   H425    1.088   .     S
C224   O268    1.304   .     A
C225   C226    1.404   .     S
C226   O269    1.289   .     A
C226   O325    1.277   .     S
C227   O271    1.300   .     A
C227   C229    1.446   .     S
C227   O327    1.288   .     S
C228   C244    1.392   .     A
C228   C1230   1.404   1_554 S
C228   H1247   1.084   1_554 S
C229   C244    1.400   .     A
C229   C243    1.383   .     A
C230   C726    1.391   .     S
C231   H259    1.084   .     S
C231   C233    1.398   .     A
C231   C1220   1.391   1_554 S
C232   C238    1.409   .     A
C232   C728    1.431   .     S
C232   C734    1.417   .     S
C233   C236    1.482   .     S
C233   C1222   1.431   1_554 S
C234   H247    1.114   .     S
C234   O273    1.410   .     S
C234   C235    1.521   .     S
C234   H301    1.115   .     S
C235   H248    1.111   .     S
C235   H250    1.109   .     S
C235   H414    1.108   .     S
C236   O264    1.221   .     D
C236   H251    1.083   .     S
C237   C242    1.478   .     S
C237   O265    1.220   .     D
C237   H252    1.085   .     S
C238   C242    1.425   .     A
C239   C243    1.390   .     A
C239   C1222   1.417   1_554 S
C239   C1230   1.420   1_554 S
C240   C241    1.388   .     A
C240   C723    1.404   .     S
C240   C734    1.420   .     S
C241   H256    1.083   .     S
C241   C242    1.392   .     A
C243   H258    1.080   .     S
C244   H300    1.083   .     S
H253   C390    1.088   .     S
H254   N261    1.029   .     S
H255   N262    1.029   .     S
H257   C723    1.084   .     S
N261   N262    1.291   .     D
N261   Zn275   2.019   .     S
N262   Zn274   2.019   .     S
O263   Zn274   1.953   .     S
O263   C276    1.276   .     S
O266   Zn275   1.979   .     S
O267   Zn274   1.943   .     S
O267   C279    1.288   .     S
O268   Zn275   1.900   .     S
O269   Zn274   1.979   .     S
O270   Zn275   1.953   .     S
O271   Zn274   1.900   .     S
O272   Zn275   1.943   .     S
O273   C285    1.383   .     S
C276   O321    1.289   .     A
C276   C278    1.403   .     S
C277   C279    1.464   .     S
C277   C293    1.410   .     A
C277   C285    1.410   .     A
C278   C390    1.339   .     S
C278   H480    1.088   .     S
C279   O323    1.304   .     A
C280   C281    1.404   .     S
C280   C3      1.339   1_655 S
C281   O324    1.289   .     A
C281   O215    1.277   1_655 S
C282   O326    1.300   .     A
C282   C284    1.446   .     S
C282   O217    1.288   1_655 S
C283   C299    1.392   .     A
C283   C1285   1.404   1_554 S
C283   H1302   1.084   1_554 S
C284   C299    1.400   .     A
C284   C298    1.383   .     A
C285   C781    1.391   .     S
C286   H314    1.084   .     S
C286   C288    1.398   .     A
C286   C1275   1.391   1_554 S
C287   C293    1.409   .     A
C287   C783    1.431   .     S
C287   C789    1.417   .     S
C288   C291    1.482   .     S
C288   C1277   1.431   1_554 S
C289   H302    1.114   .     S
C289   O328    1.410   .     S
C289   C290    1.521   .     S
C289   H191    1.115   1_655 S
C290   H303    1.111   .     S
C290   H305    1.109   .     S
C290   H469    1.108   .     S
C291   O319    1.221   .     D
C291   H306    1.083   .     S
C292   C297    1.478   .     S
C292   O320    1.220   .     D
C292   H307    1.085   .     S
C293   C297    1.425   .     A
C294   C298    1.390   .     A
C294   C1277   1.417   1_554 S
C294   C1285   1.420   1_554 S
C295   C296    1.388   .     A
C295   C778    1.404   .     S
C295   C789    1.420   .     S
C296   H311    1.083   .     S
C296   C297    1.392   .     A
C298   H313    1.080   .     S
C299   H190    1.083   1_655 S
H308   C445    1.088   .     S
H309   N316    1.029   .     S
H310   N317    1.029   .     S
H312   C778    1.084   .     S
N316   N317    1.291   .     D
N316   Zn330   2.019   .     S
N317   Zn329   2.019   .     S
O318   Zn329   1.953   .     S
O318   C166    1.276   1_655 S
O321   Zn330   1.979   .     S
O322   Zn329   1.943   .     S
O322   C169    1.288   1_655 S
O323   Zn330   1.900   .     S
O324   Zn329   1.979   .     S
O325   Zn330   1.953   .     S
O326   Zn329   1.900   .     S
O327   Zn330   1.943   .     S
O328   C175    1.383   1_655 S
C331   O376    1.289   .     A
C331   C333    1.403   .     S
C331   O483    1.276   1_455 S
C332   C334    1.464   .     S
C332   C348    1.410   .     A
C332   C340    1.410   .     A
C333   C115    1.339   1_465 S
C333   H40     1.088   1_565 S
C334   O378    1.304   .     A
C334   O487    1.288   1_455 S
C335   C336    1.404   .     S
C336   O379    1.289   .     A
C336   O435    1.277   .     S
C337   O381    1.300   .     A
C337   C339    1.446   .     S
C337   O437    1.288   .     S
C338   C354    1.392   .     A
C338   C1340   1.404   1_554 S
C338   H1357   1.084   1_554 S
C339   C354    1.400   .     A
C339   C353    1.383   .     A
C340   C836    1.391   .     S
C340   O493    1.383   1_455 S
C341   H369    1.084   .     S
C341   C343    1.398   .     A
C341   C1330   1.391   1_554 S
C342   C348    1.409   .     A
C342   C838    1.431   .     S
C342   C844    1.417   .     S
C343   C346    1.482   .     S
C343   C1332   1.431   1_554 S
C344   H357    1.114   .     S
C344   O383    1.410   .     S
C344   C345    1.521   .     S
C344   H411    1.115   .     S
C345   H358    1.111   .     S
C345   H360    1.109   .     S
C345   H29     1.108   1_565 S
C346   O374    1.221   .     D
C346   H361    1.083   .     S
C347   C352    1.478   .     S
C347   O375    1.220   .     D
C347   H362    1.085   .     S
C348   C352    1.425   .     A
C349   C353    1.390   .     A
C349   C1332   1.417   1_554 S
C349   C1340   1.420   1_554 S
C350   C351    1.388   .     A
C350   C833    1.404   .     S
C350   C844    1.420   .     S
C351   H366    1.083   .     S
C351   C352    1.392   .     A
C353   H368    1.080   .     S
C354   H410    1.083   .     S
H355   C464    1.083   1_455 S
H356   C454    1.115   1_455 S
H363   C5      1.088   1_565 S
H364   N371    1.029   .     S
H365   N372    1.029   .     S
H367   C833    1.084   .     S
N371   N372    1.291   .     D
N371   Zn385   2.019   .     S
N372   Zn384   2.019   .     S
O373   Zn384   1.953   .     S
O373   C386    1.276   .     S
O376   Zn385   1.979   .     S
O377   Zn384   1.943   .     S
O377   C389    1.288   .     S
O378   Zn385   1.900   .     S
O379   Zn384   1.979   .     S
O380   Zn385   1.953   .     S
O380   C446    1.277   1_455 S
O381   Zn384   1.900   .     S
O382   Zn385   1.943   .     S
O382   C447    1.288   1_455 S
O383   C395    1.383   .     S
C386   O431    1.289   .     A
C386   C388    1.403   .     S
C387   C389    1.464   .     S
C387   C403    1.410   .     A
C387   C395    1.410   .     A
C388   C5      1.339   1_565 S
C388   H95     1.088   1_565 S
C389   O433    1.304   .     A
C390   C391    1.404   .     S
C391   O434    1.289   .     A
C391   O490    1.277   .     S
C392   O436    1.300   .     A
C392   C394    1.446   .     S
C392   O492    1.288   .     S
C393   C409    1.392   .     A
C393   C1395   1.404   1_554 S
C393   H1412   1.084   1_554 S
C394   C409    1.400   .     A
C394   C408    1.383   .     A
C395   C891    1.391   .     S
C396   H424    1.084   .     S
C396   C398    1.398   .     A
C396   C1385   1.391   1_554 S
C397   C403    1.409   .     A
C397   C893    1.431   .     S
C397   C899    1.417   .     S
C398   C401    1.482   .     S
C398   C1387   1.431   1_554 S
C399   H412    1.114   .     S
C399   O438    1.410   .     S
C399   C400    1.521   .     S
C399   H466    1.115   .     S
C400   H413    1.111   .     S
C400   H415    1.109   .     S
C400   H84     1.108   1_565 S
C401   O429    1.221   .     D
C401   H416    1.083   .     S
C402   C407    1.478   .     S
C402   O430    1.220   .     D
C402   H417    1.085   .     S
C403   C407    1.425   .     A
C404   C408    1.390   .     A
C404   C1387   1.417   1_554 S
C404   C1395   1.420   1_554 S
C405   C406    1.388   .     A
C405   C888    1.404   .     S
C405   C899    1.420   .     S
C406   H421    1.083   .     S
C406   C407    1.392   .     A
C408   H423    1.080   .     S
C409   H465    1.083   .     S
H418   C60     1.088   1_565 S
H419   N426    1.029   .     S
H420   N427    1.029   .     S
H422   C888    1.084   .     S
N426   N427    1.291   .     D
N426   Zn440   2.019   .     S
N427   Zn439   2.019   .     S
O428   Zn439   1.953   .     S
O428   C441    1.276   .     S
O431   Zn440   1.979   .     S
O432   Zn439   1.943   .     S
O432   C444    1.288   .     S
O433   Zn440   1.900   .     S
O434   Zn439   1.979   .     S
O435   Zn440   1.953   .     S
O436   Zn439   1.900   .     S
O437   Zn440   1.943   .     S
O438   C450    1.383   .     S
C441   O486    1.289   .     A
C441   C443    1.403   .     S
C442   C444    1.464   .     S
C442   C458    1.410   .     A
C442   C450    1.410   .     A
C443   C60     1.339   1_565 S
C443   H150    1.088   1_565 S
C444   O488    1.304   .     A
C445   C446    1.404   .     S
C445   C168    1.339   1_655 S
C446   O489    1.289   .     A
C446   O380    1.277   1_655 S
C447   O491    1.300   .     A
C447   C449    1.446   .     S
C447   O382    1.288   1_655 S
C448   C464    1.392   .     A
C448   C1450   1.404   1_554 S
C448   H1467   1.084   1_554 S
C449   C464    1.400   .     A
C449   C463    1.383   .     A
C450   C946    1.391   .     S
C451   H479    1.084   .     S
C451   C453    1.398   .     A
C451   C1440   1.391   1_554 S
C452   C458    1.409   .     A
C452   C948    1.431   .     S
C452   C954    1.417   .     S
C453   C456    1.482   .     S
C453   C1442   1.431   1_554 S
C454   H467    1.114   .     S
C454   O493    1.410   .     S
C454   C455    1.521   .     S
C454   H356    1.115   1_655 S
C455   H468    1.111   .     S
C455   H470    1.109   .     S
C455   H139    1.108   1_565 S
C456   O484    1.221   .     D
C456   H471    1.083   .     S
C457   C462    1.478   .     S
C457   O485    1.220   .     D
C457   H472    1.085   .     S
C458   C462    1.425   .     A
C459   C463    1.390   .     A
C459   C1442   1.417   1_554 S
C459   C1450   1.420   1_554 S
C460   C461    1.388   .     A
C460   C943    1.404   .     S
C460   C954    1.420   .     S
C461   H476    1.083   .     S
C461   C462    1.392   .     A
C463   H478    1.080   .     S
C464   H355    1.083   1_655 S
H473   C115    1.088   1_565 S
H474   N481    1.029   .     S
H475   N482    1.029   .     S
H477   C943    1.084   .     S
N481   N482    1.291   .     D
N481   Zn495   2.019   .     S
N482   Zn494   2.019   .     S
O483   Zn494   1.953   .     S
O483   C331    1.276   1_655 S
O486   Zn495   1.979   .     S
O487   Zn494   1.943   .     S
O487   C334    1.288   1_655 S
O488   Zn495   1.900   .     S
O489   Zn494   1.979   .     S
O490   Zn495   1.953   .     S
O491   Zn494   1.900   .     S
O492   Zn495   1.943   .     S
O493   C340    1.383   1_655 S
C496   O541    1.289   .     A
C496   C498    1.403   .     S
C496   O648    1.276   1_455 S
C497   C499    1.464   .     S
C497   C513    1.410   .     A
C497   C505    1.410   .     A
C498   C775    1.339   1_455 S
C498   H700    1.088   .     S
C499   O543    1.304   .     A
C499   O652    1.288   1_455 S
C500   C501    1.404   .     S
C500   C883    1.339   1_545 S
C500   H858    1.088   1_545 S
C501   O544    1.289   .     A
C501   O600    1.277   .     S
C502   O546    1.300   .     A
C502   C504    1.446   .     S
C502   O602    1.288   .     S
C503   C519    1.392   .     A
C504   C519    1.400   .     A
C504   C518    1.383   .     A
C505   C1001   1.391   .     S
C505   O658    1.383   1_455 S
C506   H534    1.084   .     S
C506   C508    1.398   .     A
C507   C513    1.409   .     A
C507   C1003   1.431   .     S
C507   C1009   1.417   .     S
C508   C511    1.482   .     S
C509   H522    1.114   .     S
C509   O548    1.410   .     S
C509   C510    1.521   .     S
C509   H576    1.115   .     S
C510   H523    1.111   .     S
C510   H525    1.109   .     S
C510   H689    1.108   .     S
C511   O539    1.221   .     D
C511   H526    1.083   .     S
C512   C517    1.478   .     S
C512   O540    1.220   .     D
C512   H527    1.085   .     S
C513   C517    1.425   .     A
C514   C518    1.390   .     A
C515   C516    1.388   .     A
C515   C998    1.404   .     S
C515   C1009   1.420   .     S
C516   H531    1.083   .     S
C516   C517    1.392   .     A
C518   H533    1.080   .     S
C519   H575    1.083   .     S
H520   C629    1.083   1_455 S
H521   C619    1.115   1_455 S
H524   C840    1.108   1_545 S
H528   C665    1.088   .     S
H529   N536    1.029   .     S
H530   N537    1.029   .     S
H532   C998    1.084   .     S
H535   C828    1.088   1_545 S
N536   N537    1.291   .     D
N536   Zn550   2.019   .     S
N537   Zn549   2.019   .     S
O538   Zn549   1.953   .     S
O538   C551    1.276   .     S
O541   Zn550   1.979   .     S
O542   Zn549   1.943   .     S
O542   C554    1.288   .     S
O543   Zn550   1.900   .     S
O544   Zn549   1.979   .     S
O545   Zn550   1.953   .     S
O545   C611    1.277   1_455 S
O546   Zn549   1.900   .     S
O547   Zn550   1.943   .     S
O547   C612    1.288   1_455 S
O548   C560    1.383   .     S
C551   O596    1.289   .     A
C551   C553    1.403   .     S
C552   C554    1.464   .     S
C552   C568    1.410   .     A
C552   C560    1.410   .     A
C553   C665    1.339   .     S
C553   H755    1.088   .     S
C554   O598    1.304   .     A
C555   C556    1.404   .     S
C555   C938    1.339   1_545 S
C555   H913    1.088   1_545 S
C556   O599    1.289   .     A
C556   O655    1.277   .     S
C557   O601    1.300   .     A
C557   C559    1.446   .     S
C557   O657    1.288   .     S
C558   C574    1.392   .     A
C559   C574    1.400   .     A
C559   C573    1.383   .     A
C560   C1056   1.391   .     S
C561   H589    1.084   .     S
C561   C563    1.398   .     A
C562   C568    1.409   .     A
C562   C1058   1.431   .     S
C562   C1064   1.417   .     S
C563   C566    1.482   .     S
C564   H577    1.114   .     S
C564   O603    1.410   .     S
C564   C565    1.521   .     S
C564   H631    1.115   .     S
C565   H578    1.111   .     S
C565   H580    1.109   .     S
C565   H744    1.108   .     S
C566   O594    1.221   .     D
C566   H581    1.083   .     S
C567   C572    1.478   .     S
C567   O595    1.220   .     D
C567   H582    1.085   .     S
C568   C572    1.425   .     A
C569   C573    1.390   .     A
C570   C571    1.388   .     A
C570   C1053   1.404   .     S
C570   C1064   1.420   .     S
C571   H586    1.083   .     S
C571   C572    1.392   .     A
C573   H588    1.080   .     S
C574   H630    1.083   .     S
H579   C895    1.108   1_545 S
H583   C720    1.088   .     S
H584   N591    1.029   .     S
H585   N592    1.029   .     S
H587   C1053   1.084   .     S
H590   C883    1.088   1_545 S
N591   N592    1.291   .     D
N591   Zn605   2.019   .     S
N592   Zn604   2.019   .     S
O593   Zn604   1.953   .     S
O593   C606    1.276   .     S
O596   Zn605   1.979   .     S
O597   Zn604   1.943   .     S
O597   C609    1.288   .     S
O598   Zn605   1.900   .     S
O599   Zn604   1.979   .     S
O600   Zn605   1.953   .     S
O601   Zn604   1.900   .     S
O602   Zn605   1.943   .     S
O603   C615    1.383   .     S
C606   O651    1.289   .     A
C606   C608    1.403   .     S
C607   C609    1.464   .     S
C607   C623    1.410   .     A
C607   C615    1.410   .     A
C608   C720    1.339   .     S
C608   H810    1.088   .     S
C609   O653    1.304   .     A
C610   C611    1.404   .     S
C610   C828    1.339   1_645 S
C610   H968    1.088   1_545 S
C611   O654    1.289   .     A
C611   O545    1.277   1_655 S
C612   O656    1.300   .     A
C612   C614    1.446   .     S
C612   O547    1.288   1_655 S
C613   C629    1.392   .     A
C614   C629    1.400   .     A
C614   C628    1.383   .     A
C615   C1111   1.391   .     S
C616   H644    1.084   .     S
C616   C618    1.398   .     A
C617   C623    1.409   .     A
C617   C1113   1.431   .     S
C617   C1119   1.417   .     S
C618   C621    1.482   .     S
C619   H632    1.114   .     S
C619   O658    1.410   .     S
C619   C620    1.521   .     S
C619   H521    1.115   1_655 S
C620   H633    1.111   .     S
C620   H635    1.109   .     S
C620   H799    1.108   .     S
C621   O649    1.221   .     D
C621   H636    1.083   .     S
C622   C627    1.478   .     S
C622   O650    1.220   .     D
C622   H637    1.085   .     S
C623   C627    1.425   .     A
C624   C628    1.390   .     A
C625   C626    1.388   .     A
C625   C1108   1.404   .     S
C625   C1119   1.420   .     S
C626   H641    1.083   .     S
C626   C627    1.392   .     A
C628   H643    1.080   .     S
C629   H520    1.083   1_655 S
H634   C950    1.108   1_545 S
H638   C775    1.088   .     S
H639   N646    1.029   .     S
H640   N647    1.029   .     S
H642   C1108   1.084   .     S
H645   C938    1.088   1_545 S
N646   N647    1.291   .     D
N646   Zn660   2.019   .     S
N647   Zn659   2.019   .     S
O648   Zn659   1.953   .     S
O648   C496    1.276   1_655 S
O651   Zn660   1.979   .     S
O652   Zn659   1.943   .     S
O652   C499    1.288   1_655 S
O653   Zn660   1.900   .     S
O654   Zn659   1.979   .     S
O655   Zn660   1.953   .     S
O656   Zn659   1.900   .     S
O657   Zn660   1.943   .     S
O658   C505    1.383   1_655 S
C661   O706    1.289   .     A
C661   C663    1.403   .     S
C661   O813    1.276   1_455 S
C662   C664    1.464   .     S
C662   C678    1.410   .     A
C662   C670    1.410   .     A
C663   C940    1.339   1_455 S
C663   H865    1.088   .     S
C664   O708    1.304   .     A
C664   O817    1.288   1_455 S
C665   C666    1.404   .     S
C666   O709    1.289   .     A
C666   O765    1.277   .     S
C667   O711    1.300   .     A
C667   C669    1.446   .     S
C667   O767    1.288   .     S
C668   C684    1.392   .     A
C669   C684    1.400   .     A
C669   C683    1.383   .     A
C670   C1166   1.391   .     S
C670   O823    1.383   1_455 S
C671   H699    1.084   .     S
C671   C673    1.398   .     A
C672   C678    1.409   .     A
C672   C1168   1.431   .     S
C672   C1174   1.417   .     S
C673   C676    1.482   .     S
C674   H687    1.114   .     S
C674   O713    1.410   .     S
C674   C675    1.521   .     S
C674   H741    1.115   .     S
C675   H688    1.111   .     S
C675   H690    1.109   .     S
C675   H854    1.108   .     S
C676   O704    1.221   .     D
C676   H691    1.083   .     S
C677   C682    1.478   .     S
C677   O705    1.220   .     D
C677   H692    1.085   .     S
C678   C682    1.425   .     A
C679   C683    1.390   .     A
C680   C681    1.388   .     A
C680   C1163   1.404   .     S
C680   C1174   1.420   .     S
C681   H696    1.083   .     S
C681   C682    1.392   .     A
C683   H698    1.080   .     S
C684   H740    1.083   .     S
H685   C794    1.083   1_455 S
H686   C784    1.115   1_455 S
H693   C830    1.088   .     S
H694   N701    1.029   .     S
H695   N702    1.029   .     S
H697   C1163   1.084   .     S
N701   N702    1.291   .     D
N701   Zn715   2.019   .     S
N702   Zn714   2.019   .     S
O703   Zn714   1.953   .     S
O703   C716    1.276   .     S
O706   Zn715   1.979   .     S
O707   Zn714   1.943   .     S
O707   C719    1.288   .     S
O708   Zn715   1.900   .     S
O709   Zn714   1.979   .     S
O710   Zn715   1.953   .     S
O710   C776    1.277   1_455 S
O711   Zn714   1.900   .     S
O712   Zn715   1.943   .     S
O712   C777    1.288   1_455 S
O713   C725    1.383   .     S
C716   O761    1.289   .     A
C716   C718    1.403   .     S
C717   C719    1.464   .     S
C717   C733    1.410   .     A
C717   C725    1.410   .     A
C718   C830    1.339   .     S
C718   H920    1.088   .     S
C719   O763    1.304   .     A
C720   C721    1.404   .     S
C721   O764    1.289   .     A
C721   O820    1.277   .     S
C722   O766    1.300   .     A
C722   C724    1.446   .     S
C722   O822    1.288   .     S
C723   C739    1.392   .     A
C724   C739    1.400   .     A
C724   C738    1.383   .     A
C725   C1221   1.391   .     S
C726   H754    1.084   .     S
C726   C728    1.398   .     A
C727   C733    1.409   .     A
C727   C1223   1.431   .     S
C727   C1229   1.417   .     S
C728   C731    1.482   .     S
C729   H742    1.114   .     S
C729   O768    1.410   .     S
C729   C730    1.521   .     S
C729   H796    1.115   .     S
C730   H743    1.111   .     S
C730   H745    1.109   .     S
C730   H909    1.108   .     S
C731   O759    1.221   .     D
C731   H746    1.083   .     S
C732   C737    1.478   .     S
C732   O760    1.220   .     D
C732   H747    1.085   .     S
C733   C737    1.425   .     A
C734   C738    1.390   .     A
C735   C736    1.388   .     A
C735   C1218   1.404   .     S
C735   C1229   1.420   .     S
C736   H751    1.083   .     S
C736   C737    1.392   .     A
C738   H753    1.080   .     S
C739   H795    1.083   .     S
H748   C885    1.088   .     S
H749   N756    1.029   .     S
H750   N757    1.029   .     S
H752   C1218   1.084   .     S
N756   N757    1.291   .     D
N756   Zn770   2.019   .     S
N757   Zn769   2.019   .     S
O758   Zn769   1.953   .     S
O758   C771    1.276   .     S
O761   Zn770   1.979   .     S
O762   Zn769   1.943   .     S
O762   C774    1.288   .     S
O763   Zn770   1.900   .     S
O764   Zn769   1.979   .     S
O765   Zn770   1.953   .     S
O766   Zn769   1.900   .     S
O767   Zn770   1.943   .     S
O768   C780    1.383   .     S
C771   O816    1.289   .     A
C771   C773    1.403   .     S
C772   C774    1.464   .     S
C772   C788    1.410   .     A
C772   C780    1.410   .     A
C773   C885    1.339   .     S
C773   H975    1.088   .     S
C774   O818    1.304   .     A
C775   C776    1.404   .     S
C775   C498    1.339   1_655 S
C776   O819    1.289   .     A
C776   O710    1.277   1_655 S
C777   O821    1.300   .     A
C777   C779    1.446   .     S
C777   O712    1.288   1_655 S
C778   C794    1.392   .     A
C779   C794    1.400   .     A
C779   C793    1.383   .     A
C780   C1276   1.391   .     S
C781   H809    1.084   .     S
C781   C783    1.398   .     A
C782   C788    1.409   .     A
C782   C1278   1.431   .     S
C782   C1284   1.417   .     S
C783   C786    1.482   .     S
C784   H797    1.114   .     S
C784   O823    1.410   .     S
C784   C785    1.521   .     S
C784   H686    1.115   1_655 S
C785   H798    1.111   .     S
C785   H800    1.109   .     S
C785   H964    1.108   .     S
C786   O814    1.221   .     D
C786   H801    1.083   .     S
C787   C792    1.478   .     S
C787   O815    1.220   .     D
C787   H802    1.085   .     S
C788   C792    1.425   .     A
C789   C793    1.390   .     A
C790   C791    1.388   .     A
C790   C1273   1.404   .     S
C790   C1284   1.420   .     S
C791   H806    1.083   .     S
C791   C792    1.392   .     A
C793   H808    1.080   .     S
C794   H685    1.083   1_655 S
H803   C940    1.088   .     S
H804   N811    1.029   .     S
H805   N812    1.029   .     S
H807   C1273   1.084   .     S
N811   N812    1.291   .     D
N811   Zn825   2.019   .     S
N812   Zn824   2.019   .     S
O813   Zn824   1.953   .     S
O813   C661    1.276   1_655 S
O816   Zn825   1.979   .     S
O817   Zn824   1.943   .     S
O817   C664    1.288   1_655 S
O818   Zn825   1.900   .     S
O819   Zn824   1.979   .     S
O820   Zn825   1.953   .     S
O821   Zn824   1.900   .     S
O822   Zn825   1.943   .     S
O823   C670    1.383   1_655 S
C826   O871    1.289   .     A
C826   C828    1.403   .     S
C826   O978    1.276   1_455 S
C827   C829    1.464   .     S
C827   C843    1.410   .     A
C827   C835    1.410   .     A
C828   C610    1.339   1_465 S
C828   H535    1.088   1_565 S
C829   O873    1.304   .     A
C829   O982    1.288   1_455 S
C830   C831    1.404   .     S
C831   O874    1.289   .     A
C831   O930    1.277   .     S
C832   O876    1.300   .     A
C832   C834    1.446   .     S
C832   O932    1.288   .     S
C833   C849    1.392   .     A
C834   C849    1.400   .     A
C834   C848    1.383   .     A
C835   C1331   1.391   .     S
C835   O988    1.383   1_455 S
C836   H864    1.084   .     S
C836   C838    1.398   .     A
C837   C843    1.409   .     A
C837   C1333   1.431   .     S
C837   C1339   1.417   .     S
C838   C841    1.482   .     S
C839   H852    1.114   .     S
C839   O878    1.410   .     S
C839   C840    1.521   .     S
C839   H906    1.115   .     S
C840   H853    1.111   .     S
C840   H855    1.109   .     S
C840   H524    1.108   1_565 S
C841   O869    1.221   .     D
C841   H856    1.083   .     S
C842   C847    1.478   .     S
C842   O870    1.220   .     D
C842   H857    1.085   .     S
C843   C847    1.425   .     A
C844   C848    1.390   .     A
C845   C846    1.388   .     A
C845   C1328   1.404   .     S
C845   C1339   1.420   .     S
C846   H861    1.083   .     S
C846   C847    1.392   .     A
C848   H863    1.080   .     S
C849   H905    1.083   .     S
H850   C959    1.083   1_455 S
H851   C949    1.115   1_455 S
H858   C500    1.088   1_565 S
H859   N866    1.029   .     S
H860   N867    1.029   .     S
H862   C1328   1.084   .     S
N866   N867    1.291   .     D
N866   Zn880   2.019   .     S
N867   Zn879   2.019   .     S
O868   Zn879   1.953   .     S
O868   C881    1.276   .     S
O871   Zn880   1.979   .     S
O872   Zn879   1.943   .     S
O872   C884    1.288   .     S
O873   Zn880   1.900   .     S
O874   Zn879   1.979   .     S
O875   Zn880   1.953   .     S
O875   C941    1.277   1_455 S
O876   Zn879   1.900   .     S
O877   Zn880   1.943   .     S
O877   C942    1.288   1_455 S
O878   C890    1.383   .     S
C881   O926    1.289   .     A
C881   C883    1.403   .     S
C882   C884    1.464   .     S
C882   C898    1.410   .     A
C882   C890    1.410   .     A
C883   C500    1.339   1_565 S
C883   H590    1.088   1_565 S
C884   O928    1.304   .     A
C885   C886    1.404   .     S
C886   O929    1.289   .     A
C886   O985    1.277   .     S
C887   O931    1.300   .     A
C887   C889    1.446   .     S
C887   O987    1.288   .     S
C888   C904    1.392   .     A
C889   C904    1.400   .     A
C889   C903    1.383   .     A
C890   C1386   1.391   .     S
C891   H919    1.084   .     S
C891   C893    1.398   .     A
C892   C898    1.409   .     A
C892   C1388   1.431   .     S
C892   C1394   1.417   .     S
C893   C896    1.482   .     S
C894   H907    1.114   .     S
C894   O933    1.410   .     S
C894   C895    1.521   .     S
C894   H961    1.115   .     S
C895   H908    1.111   .     S
C895   H910    1.109   .     S
C895   H579    1.108   1_565 S
C896   O924    1.221   .     D
C896   H911    1.083   .     S
C897   C902    1.478   .     S
C897   O925    1.220   .     D
C897   H912    1.085   .     S
C898   C902    1.425   .     A
C899   C903    1.390   .     A
C900   C901    1.388   .     A
C900   C1383   1.404   .     S
C900   C1394   1.420   .     S
C901   H916    1.083   .     S
C901   C902    1.392   .     A
C903   H918    1.080   .     S
C904   H960    1.083   .     S
H913   C555    1.088   1_565 S
H914   N921    1.029   .     S
H915   N922    1.029   .     S
H917   C1383   1.084   .     S
N921   N922    1.291   .     D
N921   Zn935   2.019   .     S
N922   Zn934   2.019   .     S
O923   Zn934   1.953   .     S
O923   C936    1.276   .     S
O926   Zn935   1.979   .     S
O927   Zn934   1.943   .     S
O927   C939    1.288   .     S
O928   Zn935   1.900   .     S
O929   Zn934   1.979   .     S
O930   Zn935   1.953   .     S
O931   Zn934   1.900   .     S
O932   Zn935   1.943   .     S
O933   C945    1.383   .     S
C936   O981    1.289   .     A
C936   C938    1.403   .     S
C937   C939    1.464   .     S
C937   C953    1.410   .     A
C937   C945    1.410   .     A
C938   C555    1.339   1_565 S
C938   H645    1.088   1_565 S
C939   O983    1.304   .     A
C940   C941    1.404   .     S
C940   C663    1.339   1_655 S
C941   O984    1.289   .     A
C941   O875    1.277   1_655 S
C942   O986    1.300   .     A
C942   C944    1.446   .     S
C942   O877    1.288   1_655 S
C943   C959    1.392   .     A
C944   C959    1.400   .     A
C944   C958    1.383   .     A
C945   C1441   1.391   .     S
C946   H974    1.084   .     S
C946   C948    1.398   .     A
C947   C953    1.409   .     A
C947   C1443   1.431   .     S
C947   C1449   1.417   .     S
C948   C951    1.482   .     S
C949   H962    1.114   .     S
C949   O988    1.410   .     S
C949   C950    1.521   .     S
C949   H851    1.115   1_655 S
C950   H963    1.111   .     S
C950   H965    1.109   .     S
C950   H634    1.108   1_565 S
C951   O979    1.221   .     D
C951   H966    1.083   .     S
C952   C957    1.478   .     S
C952   O980    1.220   .     D
C952   H967    1.085   .     S
C953   C957    1.425   .     A
C954   C958    1.390   .     A
C955   C956    1.388   .     A
C955   C1438   1.404   .     S
C955   C1449   1.420   .     S
C956   H971    1.083   .     S
C956   C957    1.392   .     A
C958   H973    1.080   .     S
C959   H850    1.083   1_655 S
H968   C610    1.088   1_565 S
H969   N976    1.029   .     S
H970   N977    1.029   .     S
H972   C1438   1.084   .     S
N976   N977    1.291   .     D
N976   Zn990   2.019   .     S
N977   Zn989   2.019   .     S
O978   Zn989   1.953   .     S
O978   C826    1.276   1_655 S
O981   Zn990   1.979   .     S
O982   Zn989   1.943   .     S
O982   C829    1.288   1_655 S
O983   Zn990   1.900   .     S
O984   Zn989   1.979   .     S
O985   Zn990   1.953   .     S
O986   Zn989   1.900   .     S
O987   Zn990   1.943   .     S
O988   C835    1.383   1_655 S
C991   O1036   1.289   .     A
C991   C993    1.403   .     S
C991   O1143   1.276   1_455 S
C992   C994    1.464   .     S
C992   C1008   1.410   .     A
C992   C1000   1.410   .     A
C993   C1270   1.339   1_455 S
C993   H1195   1.088   .     S
C994   O1038   1.304   .     A
C994   O1147   1.288   1_455 S
C995   C996    1.404   .     S
C995   C1378   1.339   1_545 S
C995   H1353   1.088   1_545 S
C996   O1039   1.289   .     A
C996   O1095   1.277   .     S
C997   O1041   1.300   .     A
C997   C999    1.446   .     S
C997   O1097   1.288   .     S
C998   C1014   1.392   .     A
C999   C1014   1.400   .     A
C999   C1013   1.383   .     A
C1000  C11     1.391   1_556 S
C1000  O1153   1.383   1_455 S
C1001  H1029   1.084   .     S
C1001  C1003   1.398   .     A
C1002  C1008   1.409   .     A
C1002  C13     1.431   1_556 S
C1002  C19     1.417   1_556 S
C1003  C1006   1.482   .     S
C1004  H1017   1.114   .     S
C1004  O1043   1.410   .     S
C1004  C1005   1.521   .     S
C1004  H1071   1.115   .     S
C1005  H1018   1.111   .     S
C1005  H1020   1.109   .     S
C1005  H1184   1.108   .     S
C1006  O1034   1.221   .     D
C1006  H1021   1.083   .     S
C1007  C1012   1.478   .     S
C1007  O1035   1.220   .     D
C1007  H1022   1.085   .     S
C1008  C1012   1.425   .     A
C1009  C1013   1.390   .     A
C1010  C1011   1.388   .     A
C1010  C8      1.404   1_556 S
C1010  C19     1.420   1_556 S
C1011  H1026   1.083   .     S
C1011  C1012   1.392   .     A
C1013  H1028   1.080   .     S
C1014  H1070   1.083   .     S
H1015  C1124   1.083   1_455 S
H1016  C1114   1.115   1_455 S
H1019  C1335   1.108   1_545 S
H1023  C1160   1.088   .     S
H1024  N1031   1.029   .     S
H1025  N1032   1.029   .     S
H1027  C8      1.084   1_556 S
H1030  C1323   1.088   1_545 S
N1031  N1032   1.291   .     D
N1031  Zn1045  2.019   .     S
N1032  Zn1044  2.019   .     S
O1033  Zn1044  1.953   .     S
O1033  C1046   1.276   .     S
O1036  Zn1045  1.979   .     S
O1037  Zn1044  1.943   .     S
O1037  C1049   1.288   .     S
O1038  Zn1045  1.900   .     S
O1039  Zn1044  1.979   .     S
O1040  Zn1045  1.953   .     S
O1040  C1106   1.277   1_455 S
O1041  Zn1044  1.900   .     S
O1042  Zn1045  1.943   .     S
O1042  C1107   1.288   1_455 S
O1043  C1055   1.383   .     S
C1046  O1091   1.289   .     A
C1046  C1048   1.403   .     S
C1047  C1049   1.464   .     S
C1047  C1063   1.410   .     A
C1047  C1055   1.410   .     A
C1048  C1160   1.339   .     S
C1048  H1250   1.088   .     S
C1049  O1093   1.304   .     A
C1050  C1051   1.404   .     S
C1050  C1433   1.339   1_545 S
C1050  H1408   1.088   1_545 S
C1051  O1094   1.289   .     A
C1051  O1150   1.277   .     S
C1052  O1096   1.300   .     A
C1052  C1054   1.446   .     S
C1052  O1152   1.288   .     S
C1053  C1069   1.392   .     A
C1054  C1069   1.400   .     A
C1054  C1068   1.383   .     A
C1055  C66     1.391   1_556 S
C1056  H1084   1.084   .     S
C1056  C1058   1.398   .     A
C1057  C1063   1.409   .     A
C1057  C68     1.431   1_556 S
C1057  C74     1.417   1_556 S
C1058  C1061   1.482   .     S
C1059  H1072   1.114   .     S
C1059  O1098   1.410   .     S
C1059  C1060   1.521   .     S
C1059  H1126   1.115   .     S
C1060  H1073   1.111   .     S
C1060  H1075   1.109   .     S
C1060  H1239   1.108   .     S
C1061  O1089   1.221   .     D
C1061  H1076   1.083   .     S
C1062  C1067   1.478   .     S
C1062  O1090   1.220   .     D
C1062  H1077   1.085   .     S
C1063  C1067   1.425   .     A
C1064  C1068   1.390   .     A
C1065  C1066   1.388   .     A
C1065  C63     1.404   1_556 S
C1065  C74     1.420   1_556 S
C1066  H1081   1.083   .     S
C1066  C1067   1.392   .     A
C1068  H1083   1.080   .     S
C1069  H1125   1.083   .     S
H1074  C1390   1.108   1_545 S
H1078  C1215   1.088   .     S
H1079  N1086   1.029   .     S
H1080  N1087   1.029   .     S
H1082  C63     1.084   1_556 S
H1085  C1378   1.088   1_545 S
N1086  N1087   1.291   .     D
N1086  Zn1100  2.019   .     S
N1087  Zn1099  2.019   .     S
O1088  Zn1099  1.953   .     S
O1088  C1101   1.276   .     S
O1091  Zn1100  1.979   .     S
O1092  Zn1099  1.943   .     S
O1092  C1104   1.288   .     S
O1093  Zn1100  1.900   .     S
O1094  Zn1099  1.979   .     S
O1095  Zn1100  1.953   .     S
O1096  Zn1099  1.900   .     S
O1097  Zn1100  1.943   .     S
O1098  C1110   1.383   .     S
C1101  O1146   1.289   .     A
C1101  C1103   1.403   .     S
C1102  C1104   1.464   .     S
C1102  C1118   1.410   .     A
C1102  C1110   1.410   .     A
C1103  C1215   1.339   .     S
C1103  H1305   1.088   .     S
C1104  O1148   1.304   .     A
C1105  C1106   1.404   .     S
C1105  C1323   1.339   1_645 S
C1105  H1463   1.088   1_545 S
C1106  O1149   1.289   .     A
C1106  O1040   1.277   1_655 S
C1107  O1151   1.300   .     A
C1107  C1109   1.446   .     S
C1107  O1042   1.288   1_655 S
C1108  C1124   1.392   .     A
C1109  C1124   1.400   .     A
C1109  C1123   1.383   .     A
C1110  C121    1.391   1_556 S
C1111  H1139   1.084   .     S
C1111  C1113   1.398   .     A
C1112  C1118   1.409   .     A
C1112  C123    1.431   1_556 S
C1112  C129    1.417   1_556 S
C1113  C1116   1.482   .     S
C1114  H1127   1.114   .     S
C1114  O1153   1.410   .     S
C1114  C1115   1.521   .     S
C1114  H1016   1.115   1_655 S
C1115  H1128   1.111   .     S
C1115  H1130   1.109   .     S
C1115  H1294   1.108   .     S
C1116  O1144   1.221   .     D
C1116  H1131   1.083   .     S
C1117  C1122   1.478   .     S
C1117  O1145   1.220   .     D
C1117  H1132   1.085   .     S
C1118  C1122   1.425   .     A
C1119  C1123   1.390   .     A
C1120  C1121   1.388   .     A
C1120  C118    1.404   1_556 S
C1120  C129    1.420   1_556 S
C1121  H1136   1.083   .     S
C1121  C1122   1.392   .     A
C1123  H1138   1.080   .     S
C1124  H1015   1.083   1_655 S
H1129  C1445   1.108   1_545 S
H1133  C1270   1.088   .     S
H1134  N1141   1.029   .     S
H1135  N1142   1.029   .     S
H1137  C118    1.084   1_556 S
H1140  C1433   1.088   1_545 S
N1141  N1142   1.291   .     D
N1141  Zn1155  2.019   .     S
N1142  Zn1154  2.019   .     S
O1143  Zn1154  1.953   .     S
O1143  C991    1.276   1_655 S
O1146  Zn1155  1.979   .     S
O1147  Zn1154  1.943   .     S
O1147  C994    1.288   1_655 S
O1148  Zn1155  1.900   .     S
O1149  Zn1154  1.979   .     S
O1150  Zn1155  1.953   .     S
O1151  Zn1154  1.900   .     S
O1152  Zn1155  1.943   .     S
O1153  C1000   1.383   1_655 S
C1156  O1201   1.289   .     A
C1156  C1158   1.403   .     S
C1156  O1308   1.276   1_455 S
C1157  C1159   1.464   .     S
C1157  C1173   1.410   .     A
C1157  C1165   1.410   .     A
C1158  C1435   1.339   1_455 S
C1158  H1360   1.088   .     S
C1159  O1203   1.304   .     A
C1159  O1312   1.288   1_455 S
C1160  C1161   1.404   .     S
C1161  O1204   1.289   .     A
C1161  O1260   1.277   .     S
C1162  O1206   1.300   .     A
C1162  C1164   1.446   .     S
C1162  O1262   1.288   .     S
C1163  C1179   1.392   .     A
C1164  C1179   1.400   .     A
C1164  C1178   1.383   .     A
C1165  C176    1.391   1_556 S
C1165  O1318   1.383   1_455 S
C1166  H1194   1.084   .     S
C1166  C1168   1.398   .     A
C1167  C1173   1.409   .     A
C1167  C178    1.431   1_556 S
C1167  C184    1.417   1_556 S
C1168  C1171   1.482   .     S
C1169  H1182   1.114   .     S
C1169  O1208   1.410   .     S
C1169  C1170   1.521   .     S
C1169  H1236   1.115   .     S
C1170  H1183   1.111   .     S
C1170  H1185   1.109   .     S
C1170  H1349   1.108   .     S
C1171  O1199   1.221   .     D
C1171  H1186   1.083   .     S
C1172  C1177   1.478   .     S
C1172  O1200   1.220   .     D
C1172  H1187   1.085   .     S
C1173  C1177   1.425   .     A
C1174  C1178   1.390   .     A
C1175  C1176   1.388   .     A
C1175  C173    1.404   1_556 S
C1175  C184    1.420   1_556 S
C1176  H1191   1.083   .     S
C1176  C1177   1.392   .     A
C1178  H1193   1.080   .     S
C1179  H1235   1.083   .     S
H1180  C1289   1.083   1_455 S
H1181  C1279   1.115   1_455 S
H1188  C1325   1.088   .     S
H1189  N1196   1.029   .     S
H1190  N1197   1.029   .     S
H1192  C173    1.084   1_556 S
N1196  N1197   1.291   .     D
N1196  Zn1210  2.019   .     S
N1197  Zn1209  2.019   .     S
O1198  Zn1209  1.953   .     S
O1198  C1211   1.276   .     S
O1201  Zn1210  1.979   .     S
O1202  Zn1209  1.943   .     S
O1202  C1214   1.288   .     S
O1203  Zn1210  1.900   .     S
O1204  Zn1209  1.979   .     S
O1205  Zn1210  1.953   .     S
O1205  C1271   1.277   1_455 S
O1206  Zn1209  1.900   .     S
O1207  Zn1210  1.943   .     S
O1207  C1272   1.288   1_455 S
O1208  C1220   1.383   .     S
C1211  O1256   1.289   .     A
C1211  C1213   1.403   .     S
C1212  C1214   1.464   .     S
C1212  C1228   1.410   .     A
C1212  C1220   1.410   .     A
C1213  C1325   1.339   .     S
C1213  H1415   1.088   .     S
C1214  O1258   1.304   .     A
C1215  C1216   1.404   .     S
C1216  O1259   1.289   .     A
C1216  O1315   1.277   .     S
C1217  O1261   1.300   .     A
C1217  C1219   1.446   .     S
C1217  O1317   1.288   .     S
C1218  C1234   1.392   .     A
C1219  C1234   1.400   .     A
C1219  C1233   1.383   .     A
C1220  C231    1.391   1_556 S
C1221  H1249   1.084   .     S
C1221  C1223   1.398   .     A
C1222  C1228   1.409   .     A
C1222  C233    1.431   1_556 S
C1222  C239    1.417   1_556 S
C1223  C1226   1.482   .     S
C1224  H1237   1.114   .     S
C1224  O1263   1.410   .     S
C1224  C1225   1.521   .     S
C1224  H1291   1.115   .     S
C1225  H1238   1.111   .     S
C1225  H1240   1.109   .     S
C1225  H1404   1.108   .     S
C1226  O1254   1.221   .     D
C1226  H1241   1.083   .     S
C1227  C1232   1.478   .     S
C1227  O1255   1.220   .     D
C1227  H1242   1.085   .     S
C1228  C1232   1.425   .     A
C1229  C1233   1.390   .     A
C1230  C1231   1.388   .     A
C1230  C228    1.404   1_556 S
C1230  C239    1.420   1_556 S
C1231  H1246   1.083   .     S
C1231  C1232   1.392   .     A
C1233  H1248   1.080   .     S
C1234  H1290   1.083   .     S
H1243  C1380   1.088   .     S
H1244  N1251   1.029   .     S
H1245  N1252   1.029   .     S
H1247  C228    1.084   1_556 S
N1251  N1252   1.291   .     D
N1251  Zn1265  2.019   .     S
N1252  Zn1264  2.019   .     S
O1253  Zn1264  1.953   .     S
O1253  C1266   1.276   .     S
O1256  Zn1265  1.979   .     S
O1257  Zn1264  1.943   .     S
O1257  C1269   1.288   .     S
O1258  Zn1265  1.900   .     S
O1259  Zn1264  1.979   .     S
O1260  Zn1265  1.953   .     S
O1261  Zn1264  1.900   .     S
O1262  Zn1265  1.943   .     S
O1263  C1275   1.383   .     S
C1266  O1311   1.289   .     A
C1266  C1268   1.403   .     S
C1267  C1269   1.464   .     S
C1267  C1283   1.410   .     A
C1267  C1275   1.410   .     A
C1268  C1380   1.339   .     S
C1268  H1470   1.088   .     S
C1269  O1313   1.304   .     A
C1270  C1271   1.404   .     S
C1270  C993    1.339   1_655 S
C1271  O1314   1.289   .     A
C1271  O1205   1.277   1_655 S
C1272  O1316   1.300   .     A
C1272  C1274   1.446   .     S
C1272  O1207   1.288   1_655 S
C1273  C1289   1.392   .     A
C1274  C1289   1.400   .     A
C1274  C1288   1.383   .     A
C1275  C286    1.391   1_556 S
C1276  H1304   1.084   .     S
C1276  C1278   1.398   .     A
C1277  C1283   1.409   .     A
C1277  C288    1.431   1_556 S
C1277  C294    1.417   1_556 S
C1278  C1281   1.482   .     S
C1279  H1292   1.114   .     S
C1279  O1318   1.410   .     S
C1279  C1280   1.521   .     S
C1279  H1181   1.115   1_655 S
C1280  H1293   1.111   .     S
C1280  H1295   1.109   .     S
C1280  H1459   1.108   .     S
C1281  O1309   1.221   .     D
C1281  H1296   1.083   .     S
C1282  C1287   1.478   .     S
C1282  O1310   1.220   .     D
C1282  H1297   1.085   .     S
C1283  C1287   1.425   .     A
C1284  C1288   1.390   .     A
C1285  C1286   1.388   .     A
C1285  C283    1.404   1_556 S
C1285  C294    1.420   1_556 S
C1286  H1301   1.083   .     S
C1286  C1287   1.392   .     A
C1288  H1303   1.080   .     S
C1289  H1180   1.083   1_655 S
H1298  C1435   1.088   .     S
H1299  N1306   1.029   .     S
H1300  N1307   1.029   .     S
H1302  C283    1.084   1_556 S
N1306  N1307   1.291   .     D
N1306  Zn1320  2.019   .     S
N1307  Zn1319  2.019   .     S
O1308  Zn1319  1.953   .     S
O1308  C1156   1.276   1_655 S
O1311  Zn1320  1.979   .     S
O1312  Zn1319  1.943   .     S
O1312  C1159   1.288   1_655 S
O1313  Zn1320  1.900   .     S
O1314  Zn1319  1.979   .     S
O1315  Zn1320  1.953   .     S
O1316  Zn1319  1.900   .     S
O1317  Zn1320  1.943   .     S
O1318  C1165   1.383   1_655 S
C1321  O1366   1.289   .     A
C1321  C1323   1.403   .     S
C1321  O1473   1.276   1_455 S
C1322  C1324   1.464   .     S
C1322  C1338   1.410   .     A
C1322  C1330   1.410   .     A
C1323  C1105   1.339   1_465 S
C1323  H1030   1.088   1_565 S
C1324  O1368   1.304   .     A
C1324  O1477   1.288   1_455 S
C1325  C1326   1.404   .     S
C1326  O1369   1.289   .     A
C1326  O1425   1.277   .     S
C1327  O1371   1.300   .     A
C1327  C1329   1.446   .     S
C1327  O1427   1.288   .     S
C1328  C1344   1.392   .     A
C1329  C1344   1.400   .     A
C1329  C1343   1.383   .     A
C1330  C341    1.391   1_556 S
C1330  O1483   1.383   1_455 S
C1331  H1359   1.084   .     S
C1331  C1333   1.398   .     A
C1332  C1338   1.409   .     A
C1332  C343    1.431   1_556 S
C1332  C349    1.417   1_556 S
C1333  C1336   1.482   .     S
C1334  H1347   1.114   .     S
C1334  O1373   1.410   .     S
C1334  C1335   1.521   .     S
C1334  H1401   1.115   .     S
C1335  H1348   1.111   .     S
C1335  H1350   1.109   .     S
C1335  H1019   1.108   1_565 S
C1336  O1364   1.221   .     D
C1336  H1351   1.083   .     S
C1337  C1342   1.478   .     S
C1337  O1365   1.220   .     D
C1337  H1352   1.085   .     S
C1338  C1342   1.425   .     A
C1339  C1343   1.390   .     A
C1340  C1341   1.388   .     A
C1340  C338    1.404   1_556 S
C1340  C349    1.420   1_556 S
C1341  H1356   1.083   .     S
C1341  C1342   1.392   .     A
C1343  H1358   1.080   .     S
C1344  H1400   1.083   .     S
H1345  C1454   1.083   1_455 S
H1346  C1444   1.115   1_455 S
H1353  C995    1.088   1_565 S
H1354  N1361   1.029   .     S
H1355  N1362   1.029   .     S
H1357  C338    1.084   1_556 S
N1361  N1362   1.291   .     D
N1361  Zn1375  2.019   .     S
N1362  Zn1374  2.019   .     S
O1363  Zn1374  1.953   .     S
O1363  C1376   1.276   .     S
O1366  Zn1375  1.979   .     S
O1367  Zn1374  1.943   .     S
O1367  C1379   1.288   .     S
O1368  Zn1375  1.900   .     S
O1369  Zn1374  1.979   .     S
O1370  Zn1375  1.953   .     S
O1370  C1436   1.277   1_455 S
O1371  Zn1374  1.900   .     S
O1372  Zn1375  1.943   .     S
O1372  C1437   1.288   1_455 S
O1373  C1385   1.383   .     S
C1376  O1421   1.289   .     A
C1376  C1378   1.403   .     S
C1377  C1379   1.464   .     S
C1377  C1393   1.410   .     A
C1377  C1385   1.410   .     A
C1378  C995    1.339   1_565 S
C1378  H1085   1.088   1_565 S
C1379  O1423   1.304   .     A
C1380  C1381   1.404   .     S
C1381  O1424   1.289   .     A
C1381  O1480   1.277   .     S
C1382  O1426   1.300   .     A
C1382  C1384   1.446   .     S
C1382  O1482   1.288   .     S
C1383  C1399   1.392   .     A
C1384  C1399   1.400   .     A
C1384  C1398   1.383   .     A
C1385  C396    1.391   1_556 S
C1386  H1414   1.084   .     S
C1386  C1388   1.398   .     A
C1387  C1393   1.409   .     A
C1387  C398    1.431   1_556 S
C1387  C404    1.417   1_556 S
C1388  C1391   1.482   .     S
C1389  H1402   1.114   .     S
C1389  O1428   1.410   .     S
C1389  C1390   1.521   .     S
C1389  H1456   1.115   .     S
C1390  H1403   1.111   .     S
C1390  H1405   1.109   .     S
C1390  H1074   1.108   1_565 S
C1391  O1419   1.221   .     D
C1391  H1406   1.083   .     S
C1392  C1397   1.478   .     S
C1392  O1420   1.220   .     D
C1392  H1407   1.085   .     S
C1393  C1397   1.425   .     A
C1394  C1398   1.390   .     A
C1395  C1396   1.388   .     A
C1395  C393    1.404   1_556 S
C1395  C404    1.420   1_556 S
C1396  H1411   1.083   .     S
C1396  C1397   1.392   .     A
C1398  H1413   1.080   .     S
C1399  H1455   1.083   .     S
H1408  C1050   1.088   1_565 S
H1409  N1416   1.029   .     S
H1410  N1417   1.029   .     S
H1412  C393    1.084   1_556 S
N1416  N1417   1.291   .     D
N1416  Zn1430  2.019   .     S
N1417  Zn1429  2.019   .     S
O1418  Zn1429  1.953   .     S
O1418  C1431   1.276   .     S
O1421  Zn1430  1.979   .     S
O1422  Zn1429  1.943   .     S
O1422  C1434   1.288   .     S
O1423  Zn1430  1.900   .     S
O1424  Zn1429  1.979   .     S
O1425  Zn1430  1.953   .     S
O1426  Zn1429  1.900   .     S
O1427  Zn1430  1.943   .     S
O1428  C1440   1.383   .     S
C1431  O1476   1.289   .     A
C1431  C1433   1.403   .     S
C1432  C1434   1.464   .     S
C1432  C1448   1.410   .     A
C1432  C1440   1.410   .     A
C1433  C1050   1.339   1_565 S
C1433  H1140   1.088   1_565 S
C1434  O1478   1.304   .     A
C1435  C1436   1.404   .     S
C1435  C1158   1.339   1_655 S
C1436  O1479   1.289   .     A
C1436  O1370   1.277   1_655 S
C1437  O1481   1.300   .     A
C1437  C1439   1.446   .     S
C1437  O1372   1.288   1_655 S
C1438  C1454   1.392   .     A
C1439  C1454   1.400   .     A
C1439  C1453   1.383   .     A
C1440  C451    1.391   1_556 S
C1441  H1469   1.084   .     S
C1441  C1443   1.398   .     A
C1442  C1448   1.409   .     A
C1442  C453    1.431   1_556 S
C1442  C459    1.417   1_556 S
C1443  C1446   1.482   .     S
C1444  H1457   1.114   .     S
C1444  O1483   1.410   .     S
C1444  C1445   1.521   .     S
C1444  H1346   1.115   1_655 S
C1445  H1458   1.111   .     S
C1445  H1460   1.109   .     S
C1445  H1129   1.108   1_565 S
C1446  O1474   1.221   .     D
C1446  H1461   1.083   .     S
C1447  C1452   1.478   .     S
C1447  O1475   1.220   .     D
C1447  H1462   1.085   .     S
C1448  C1452   1.425   .     A
C1449  C1453   1.390   .     A
C1450  C1451   1.388   .     A
C1450  C448    1.404   1_556 S
C1450  C459    1.420   1_556 S
C1451  H1466   1.083   .     S
C1451  C1452   1.392   .     A
C1453  H1468   1.080   .     S
C1454  H1345   1.083   1_655 S
H1463  C1105   1.088   1_565 S
H1464  N1471   1.029   .     S
H1465  N1472   1.029   .     S
H1467  C448    1.084   1_556 S
N1471  N1472   1.291   .     D
N1471  Zn1485  2.019   .     S
N1472  Zn1484  2.019   .     S
O1473  Zn1484  1.953   .     S
O1473  C1321   1.276   1_655 S
O1476  Zn1485  1.979   .     S
O1477  Zn1484  1.943   .     S
O1477  C1324   1.288   1_655 S
O1478  Zn1485  1.900   .     S
O1479  Zn1484  1.979   .     S
O1480  Zn1485  1.953   .     S
O1481  Zn1484  1.900   .     S
O1482  Zn1485  1.943   .     S
O1483  C1330   1.383   1_655 S
