data_str_m3_o1_o10_pcu_sym.92
_audit_creation_date              2020-01-03
_audit_creation_method            'Materials Studio'
_symmetry_space_group_name_H-M    'P1'
_symmetry_Int_Tables_number       1
_symmetry_cell_setting            triclinic
loop_
_symmetry_equiv_pos_as_xyz
  x,y,z
_cell_length_a                    25.7108
_cell_length_b                    31.9994
_cell_length_c                    29.8930
_cell_angle_alpha                 89.9549
_cell_angle_beta                  99.7253
_cell_angle_gamma                 92.4609
loop_
_atom_site_label
_atom_site_type_symbol
_atom_site_fract_x
_atom_site_fract_y
_atom_site_fract_z
_atom_site_U_iso_or_equiv
_atom_site_adp_type
_atom_site_occupancy
C1     C     0.16433   0.08681   0.16640   0.00000  Uiso   1.00
C2     C     0.12852   0.01855   0.18831   0.00000  Uiso   1.00
C3     C     0.16957   0.29081   0.16678   0.00000  Uiso   1.00
C4     C     0.16360   0.04257   0.16628   0.00000  Uiso   1.00
C5     C     0.20793   0.18398   0.03074   0.00000  Uiso   1.00
C6     C     0.12536   0.14940   0.30260   0.00000  Uiso   1.00
C7     C     0.20838   0.18493   0.31672   0.00000  Uiso   1.00
C8     C     0.12494   0.14842   0.01663   0.00000  Uiso   1.00
C9     C     0.16910   0.24655   0.16691   0.00000  Uiso   1.00
C10    C     0.06707   0.16682   0.15455   0.00000  Uiso   1.00
C11    C     0.26624   0.16614   0.17878   0.00000  Uiso   1.00
C12    C     0.01168   0.16679   0.14831   0.00000  Uiso   1.00
C13    C     0.32161   0.16561   0.18503   0.00000  Uiso   1.00
C14    C     0.20048   0.02426   0.14416   0.00000  Uiso   1.00
C15    C     0.13252   0.30914   0.18873   0.00000  Uiso   1.00
C16    C     0.20422   0.31485   0.14423   0.00000  Uiso   1.00
H17    H     0.32361   0.16801   0.11378   0.00000  Uiso   1.00
H18    H     0.04349   0.08406   0.08336   0.00000  Uiso   1.00
H19    H     0.00967   0.16436   0.21956   0.00000  Uiso   1.00
H20    H     0.22704   0.04366   0.12754   0.00000  Uiso   1.00
H21    H     0.10593   0.28979   0.20539   0.00000  Uiso   1.00
H22    H     0.24093   0.19695   0.05458   0.00000  Uiso   1.00
H23    H     0.09230   0.13652   0.27877   0.00000  Uiso   1.00
H24    H     0.30578   0.26950   0.17389   0.00000  Uiso   1.00
H25    H     0.12125   0.03189   0.28297   0.00000  Uiso   1.00
H26    H     0.28974   0.25222   0.25258   0.00000  Uiso   1.00
N27    N     0.16665   0.16666   0.28573   0.00000  Uiso   1.00
N28    N     0.16668   0.16668   0.04760   0.00000  Uiso   1.00
O29    O     0.16666   0.10558   0.20487   0.00000  Uiso   1.00
O30    O     0.29383   0.32662   0.10913   0.00000  Uiso   1.00
O31    O     0.28306   0.25507   0.14794   0.00000  Uiso   1.00
O32    O     0.05476   0.07582   0.18774   0.00000  Uiso   1.00
O33    O     0.03622   0.00743   0.21927   0.00000  Uiso   1.00
O34    O     0.10673   0.05704   0.26694   0.00000  Uiso   1.00
O35    O     0.29547   0.23487   0.00799   0.00000  Uiso   1.00
O36    O     0.30228   0.17572   0.29206   0.00000  Uiso   1.00
O37    O     0.25449   0.24138   0.25750   0.00000  Uiso   1.00
O38    O     0.03113   0.15788   0.04128   0.00000  Uiso   1.00
O39    O     0.03763   0.09861   0.32546   0.00000  Uiso   1.00
O40    O     0.16667   0.22775   0.12846   0.00000  Uiso   1.00
O41    O     0.07868   0.09209   0.07593   0.00000  Uiso   1.00
O42    O     0.16666   0.10559   0.12843   0.00000  Uiso   1.00
O43    O     0.16667   0.22774   0.20490   0.00000  Uiso   1.00
O44    O     0.09058   0.16666   0.19595   0.00000  Uiso   1.00
O45    O     0.24275   0.16667   0.13739   0.00000  Uiso   1.00
O46    O     0.09058   0.16667   0.11950   0.00000  Uiso   1.00
O47    O     0.24275   0.16666   0.21383   0.00000  Uiso   1.00
O48    O     0.22682   0.27612   0.07146   0.00000  Uiso   1.00
S49    S     0.25300   0.29349   0.11672   0.00000  Uiso   1.00
S50    S     0.07901   0.03996   0.21490   0.00000  Uiso   1.00
S51    S     0.26664   0.20922   0.30196   0.00000  Uiso   1.00
S52    S     0.06661   0.12425   0.03143   0.00000  Uiso   1.00
Zn53   Zn    0.16667   0.16666   0.21771   0.00000  Uiso   1.00
Zn54   Zn    0.16667   0.16667   0.11563   0.00000  Uiso   1.00
C55    C     0.49767   0.08681   0.16640   0.00000  Uiso   1.00
C56    C     0.46185   0.01855   0.18831   0.00000  Uiso   1.00
C57    C     0.50291   0.29081   0.16678   0.00000  Uiso   1.00
C58    C     0.49694   0.04257   0.16628   0.00000  Uiso   1.00
C59    C     0.54126   0.18398   0.03074   0.00000  Uiso   1.00
C60    C     0.45870   0.14940   0.30260   0.00000  Uiso   1.00
C61    C     0.54171   0.18493   0.31672   0.00000  Uiso   1.00
C62    C     0.45827   0.14842   0.01663   0.00000  Uiso   1.00
C63    C     0.50243   0.24655   0.16691   0.00000  Uiso   1.00
C64    C     0.40040   0.16682   0.15455   0.00000  Uiso   1.00
C65    C     0.59957   0.16614   0.17878   0.00000  Uiso   1.00
C66    C     0.34501   0.16679   0.14831   0.00000  Uiso   1.00
C67    C     0.65495   0.16561   0.18503   0.00000  Uiso   1.00
C68    C     0.53381   0.02426   0.14416   0.00000  Uiso   1.00
C69    C     0.46586   0.30914   0.18873   0.00000  Uiso   1.00
C70    C     0.53755   0.31485   0.14423   0.00000  Uiso   1.00
H71    H     0.65695   0.16801   0.11378   0.00000  Uiso   1.00
H72    H     0.37683   0.08406   0.08336   0.00000  Uiso   1.00
H73    H     0.34300   0.16436   0.21956   0.00000  Uiso   1.00
H74    H     0.56037   0.04366   0.12754   0.00000  Uiso   1.00
H75    H     0.43927   0.28979   0.20539   0.00000  Uiso   1.00
H76    H     0.57427   0.19695   0.05458   0.00000  Uiso   1.00
H77    H     0.42564   0.13652   0.27877   0.00000  Uiso   1.00
H78    H     0.63912   0.26950   0.17389   0.00000  Uiso   1.00
H79    H     0.45458   0.03189   0.28297   0.00000  Uiso   1.00
H80    H     0.62307   0.25222   0.25258   0.00000  Uiso   1.00
N81    N     0.49999   0.16666   0.28573   0.00000  Uiso   1.00
N82    N     0.50001   0.16668   0.04760   0.00000  Uiso   1.00
O83    O     0.50000   0.10558   0.20487   0.00000  Uiso   1.00
O84    O     0.62716   0.32662   0.10913   0.00000  Uiso   1.00
O85    O     0.61640   0.25507   0.14794   0.00000  Uiso   1.00
O86    O     0.38810   0.07582   0.18774   0.00000  Uiso   1.00
O87    O     0.36955   0.00743   0.21927   0.00000  Uiso   1.00
O88    O     0.44006   0.05704   0.26694   0.00000  Uiso   1.00
O89    O     0.62880   0.23487   0.00799   0.00000  Uiso   1.00
O90    O     0.63562   0.17572   0.29206   0.00000  Uiso   1.00
O91    O     0.58783   0.24138   0.25750   0.00000  Uiso   1.00
O92    O     0.36447   0.15788   0.04128   0.00000  Uiso   1.00
O93    O     0.37096   0.09861   0.32546   0.00000  Uiso   1.00
O94    O     0.50000   0.22775   0.12846   0.00000  Uiso   1.00
O95    O     0.41201   0.09209   0.07593   0.00000  Uiso   1.00
O96    O     0.50000   0.10559   0.12843   0.00000  Uiso   1.00
O97    O     0.50000   0.22774   0.20490   0.00000  Uiso   1.00
O98    O     0.42392   0.16666   0.19595   0.00000  Uiso   1.00
O99    O     0.57608   0.16667   0.13739   0.00000  Uiso   1.00
O100   O     0.42392   0.16667   0.11950   0.00000  Uiso   1.00
O101   O     0.57608   0.16666   0.21383   0.00000  Uiso   1.00
O102   O     0.56015   0.27612   0.07146   0.00000  Uiso   1.00
S103   S     0.58633   0.29349   0.11672   0.00000  Uiso   1.00
S104   S     0.41234   0.03996   0.21490   0.00000  Uiso   1.00
S105   S     0.59998   0.20922   0.30196   0.00000  Uiso   1.00
S106   S     0.39995   0.12425   0.03143   0.00000  Uiso   1.00
Zn107  Zn    0.50000   0.16666   0.21771   0.00000  Uiso   1.00
Zn108  Zn    0.50000   0.16667   0.11563   0.00000  Uiso   1.00
C109   C     0.83100   0.08681   0.16640   0.00000  Uiso   1.00
C110   C     0.79518   0.01855   0.18831   0.00000  Uiso   1.00
C111   C     0.83624   0.29081   0.16678   0.00000  Uiso   1.00
C112   C     0.83027   0.04257   0.16628   0.00000  Uiso   1.00
C113   C     0.87460   0.18398   0.03074   0.00000  Uiso   1.00
C114   C     0.79203   0.14940   0.30260   0.00000  Uiso   1.00
C115   C     0.87504   0.18493   0.31672   0.00000  Uiso   1.00
C116   C     0.79160   0.14842   0.01663   0.00000  Uiso   1.00
C117   C     0.83576   0.24655   0.16691   0.00000  Uiso   1.00
C118   C     0.73374   0.16682   0.15455   0.00000  Uiso   1.00
C119   C     0.93291   0.16614   0.17878   0.00000  Uiso   1.00
C120   C     0.67834   0.16679   0.14831   0.00000  Uiso   1.00
C121   C     0.98828   0.16561   0.18503   0.00000  Uiso   1.00
C122   C     0.86714   0.02426   0.14416   0.00000  Uiso   1.00
C123   C     0.79919   0.30914   0.18873   0.00000  Uiso   1.00
C124   C     0.87089   0.31485   0.14423   0.00000  Uiso   1.00
H125   H     0.99028   0.16801   0.11378   0.00000  Uiso   1.00
H126   H     0.71016   0.08406   0.08336   0.00000  Uiso   1.00
H127   H     0.67634   0.16436   0.21956   0.00000  Uiso   1.00
H128   H     0.89371   0.04366   0.12754   0.00000  Uiso   1.00
H129   H     0.77260   0.28979   0.20539   0.00000  Uiso   1.00
H130   H     0.90760   0.19695   0.05458   0.00000  Uiso   1.00
H131   H     0.75897   0.13652   0.27877   0.00000  Uiso   1.00
H132   H     0.97245   0.26950   0.17389   0.00000  Uiso   1.00
H133   H     0.78791   0.03189   0.28297   0.00000  Uiso   1.00
H134   H     0.95640   0.25222   0.25258   0.00000  Uiso   1.00
N135   N     0.83332   0.16666   0.28573   0.00000  Uiso   1.00
N136   N     0.83335   0.16668   0.04760   0.00000  Uiso   1.00
O137   O     0.83333   0.10558   0.20487   0.00000  Uiso   1.00
O138   O     0.96049   0.32662   0.10913   0.00000  Uiso   1.00
O139   O     0.94973   0.25507   0.14794   0.00000  Uiso   1.00
O140   O     0.72143   0.07582   0.18774   0.00000  Uiso   1.00
O141   O     0.70288   0.00743   0.21927   0.00000  Uiso   1.00
O142   O     0.77340   0.05704   0.26694   0.00000  Uiso   1.00
O143   O     0.96213   0.23487   0.00799   0.00000  Uiso   1.00
O144   O     0.96895   0.17572   0.29206   0.00000  Uiso   1.00
O145   O     0.92116   0.24138   0.25750   0.00000  Uiso   1.00
O146   O     0.69780   0.15788   0.04128   0.00000  Uiso   1.00
O147   O     0.70430   0.09861   0.32546   0.00000  Uiso   1.00
O148   O     0.83334   0.22775   0.12846   0.00000  Uiso   1.00
O149   O     0.74535   0.09209   0.07593   0.00000  Uiso   1.00
O150   O     0.83333   0.10559   0.12843   0.00000  Uiso   1.00
O151   O     0.83334   0.22774   0.20490   0.00000  Uiso   1.00
O152   O     0.75725   0.16666   0.19595   0.00000  Uiso   1.00
O153   O     0.90942   0.16667   0.13739   0.00000  Uiso   1.00
O154   O     0.75725   0.16667   0.11950   0.00000  Uiso   1.00
O155   O     0.90942   0.16666   0.21383   0.00000  Uiso   1.00
O156   O     0.89348   0.27612   0.07146   0.00000  Uiso   1.00
S157   S     0.91966   0.29349   0.11672   0.00000  Uiso   1.00
S158   S     0.74567   0.03996   0.21490   0.00000  Uiso   1.00
S159   S     0.93331   0.20922   0.30196   0.00000  Uiso   1.00
S160   S     0.73328   0.12425   0.03143   0.00000  Uiso   1.00
Zn161  Zn    0.83333   0.16666   0.21771   0.00000  Uiso   1.00
Zn162  Zn    0.83333   0.16667   0.11563   0.00000  Uiso   1.00
C163   C     0.16433   0.42014   0.16640   0.00000  Uiso   1.00
C164   C     0.12852   0.35188   0.18831   0.00000  Uiso   1.00
C165   C     0.16957   0.62415   0.16678   0.00000  Uiso   1.00
C166   C     0.16360   0.37590   0.16628   0.00000  Uiso   1.00
C167   C     0.20793   0.51732   0.03074   0.00000  Uiso   1.00
C168   C     0.12536   0.48274   0.30260   0.00000  Uiso   1.00
C169   C     0.20838   0.51826   0.31672   0.00000  Uiso   1.00
C170   C     0.12494   0.48176   0.01663   0.00000  Uiso   1.00
C171   C     0.16910   0.57988   0.16691   0.00000  Uiso   1.00
C172   C     0.06707   0.50016   0.15455   0.00000  Uiso   1.00
C173   C     0.26624   0.49948   0.17878   0.00000  Uiso   1.00
C174   C     0.01168   0.50012   0.14831   0.00000  Uiso   1.00
C175   C     0.32161   0.49894   0.18503   0.00000  Uiso   1.00
C176   C     0.20048   0.35760   0.14416   0.00000  Uiso   1.00
C177   C     0.13252   0.64247   0.18873   0.00000  Uiso   1.00
C178   C     0.20422   0.64818   0.14423   0.00000  Uiso   1.00
H179   H     0.32361   0.50135   0.11378   0.00000  Uiso   1.00
H180   H     0.04349   0.41739   0.08336   0.00000  Uiso   1.00
H181   H     0.00967   0.49770   0.21956   0.00000  Uiso   1.00
H182   H     0.22704   0.37699   0.12754   0.00000  Uiso   1.00
H183   H     0.10593   0.62312   0.20539   0.00000  Uiso   1.00
H184   H     0.24093   0.53028   0.05458   0.00000  Uiso   1.00
H185   H     0.09230   0.46985   0.27877   0.00000  Uiso   1.00
H186   H     0.30578   0.60283   0.17389   0.00000  Uiso   1.00
H187   H     0.12125   0.36523   0.28297   0.00000  Uiso   1.00
H188   H     0.28974   0.58555   0.25258   0.00000  Uiso   1.00
N189   N     0.16665   0.49999   0.28573   0.00000  Uiso   1.00
N190   N     0.16668   0.50001   0.04760   0.00000  Uiso   1.00
O191   O     0.16666   0.43892   0.20487   0.00000  Uiso   1.00
O192   O     0.29383   0.65996   0.10913   0.00000  Uiso   1.00
O193   O     0.28306   0.58841   0.14794   0.00000  Uiso   1.00
O194   O     0.05476   0.40915   0.18774   0.00000  Uiso   1.00
O195   O     0.03622   0.34076   0.21927   0.00000  Uiso   1.00
O196   O     0.10673   0.39037   0.26694   0.00000  Uiso   1.00
O197   O     0.29547   0.56820   0.00799   0.00000  Uiso   1.00
O198   O     0.30228   0.50906   0.29206   0.00000  Uiso   1.00
O199   O     0.25449   0.57472   0.25750   0.00000  Uiso   1.00
O200   O     0.03113   0.49122   0.04128   0.00000  Uiso   1.00
O201   O     0.03763   0.43194   0.32546   0.00000  Uiso   1.00
O202   O     0.16667   0.56108   0.12846   0.00000  Uiso   1.00
O203   O     0.07868   0.42543   0.07593   0.00000  Uiso   1.00
O204   O     0.16666   0.43893   0.12843   0.00000  Uiso   1.00
O205   O     0.16667   0.56107   0.20490   0.00000  Uiso   1.00
O206   O     0.09058   0.50000   0.19595   0.00000  Uiso   1.00
O207   O     0.24275   0.50000   0.13739   0.00000  Uiso   1.00
O208   O     0.09058   0.50000   0.11950   0.00000  Uiso   1.00
O209   O     0.24275   0.50000   0.21383   0.00000  Uiso   1.00
O210   O     0.22682   0.60945   0.07146   0.00000  Uiso   1.00
S211   S     0.25300   0.62682   0.11672   0.00000  Uiso   1.00
S212   S     0.07901   0.37329   0.21490   0.00000  Uiso   1.00
S213   S     0.26664   0.54255   0.30196   0.00000  Uiso   1.00
S214   S     0.06661   0.45758   0.03143   0.00000  Uiso   1.00
Zn215  Zn    0.16667   0.49999   0.21771   0.00000  Uiso   1.00
Zn216  Zn    0.16667   0.50001   0.11563   0.00000  Uiso   1.00
C217   C     0.49767   0.42014   0.16640   0.00000  Uiso   1.00
C218   C     0.46185   0.35188   0.18831   0.00000  Uiso   1.00
C219   C     0.50291   0.62415   0.16678   0.00000  Uiso   1.00
C220   C     0.49694   0.37590   0.16628   0.00000  Uiso   1.00
C221   C     0.54126   0.51732   0.03074   0.00000  Uiso   1.00
C222   C     0.45870   0.48274   0.30260   0.00000  Uiso   1.00
C223   C     0.54171   0.51826   0.31672   0.00000  Uiso   1.00
C224   C     0.45827   0.48176   0.01663   0.00000  Uiso   1.00
C225   C     0.50243   0.57988   0.16691   0.00000  Uiso   1.00
C226   C     0.40040   0.50016   0.15455   0.00000  Uiso   1.00
C227   C     0.59957   0.49948   0.17878   0.00000  Uiso   1.00
C228   C     0.34501   0.50012   0.14831   0.00000  Uiso   1.00
C229   C     0.65495   0.49894   0.18503   0.00000  Uiso   1.00
C230   C     0.53381   0.35760   0.14416   0.00000  Uiso   1.00
C231   C     0.46586   0.64247   0.18873   0.00000  Uiso   1.00
C232   C     0.53755   0.64818   0.14423   0.00000  Uiso   1.00
H233   H     0.65695   0.50135   0.11378   0.00000  Uiso   1.00
H234   H     0.37683   0.41739   0.08336   0.00000  Uiso   1.00
H235   H     0.34300   0.49770   0.21956   0.00000  Uiso   1.00
H236   H     0.56037   0.37699   0.12754   0.00000  Uiso   1.00
H237   H     0.43927   0.62312   0.20539   0.00000  Uiso   1.00
H238   H     0.57427   0.53028   0.05458   0.00000  Uiso   1.00
H239   H     0.42564   0.46985   0.27877   0.00000  Uiso   1.00
H240   H     0.63912   0.60283   0.17389   0.00000  Uiso   1.00
H241   H     0.45458   0.36523   0.28297   0.00000  Uiso   1.00
H242   H     0.62307   0.58555   0.25258   0.00000  Uiso   1.00
N243   N     0.49999   0.49999   0.28573   0.00000  Uiso   1.00
N244   N     0.50001   0.50001   0.04760   0.00000  Uiso   1.00
O245   O     0.50000   0.43892   0.20487   0.00000  Uiso   1.00
O246   O     0.62716   0.65996   0.10913   0.00000  Uiso   1.00
O247   O     0.61640   0.58841   0.14794   0.00000  Uiso   1.00
O248   O     0.38810   0.40915   0.18774   0.00000  Uiso   1.00
O249   O     0.36955   0.34076   0.21927   0.00000  Uiso   1.00
O250   O     0.44006   0.39037   0.26694   0.00000  Uiso   1.00
O251   O     0.62880   0.56820   0.00799   0.00000  Uiso   1.00
O252   O     0.63562   0.50906   0.29206   0.00000  Uiso   1.00
O253   O     0.58783   0.57472   0.25750   0.00000  Uiso   1.00
O254   O     0.36447   0.49122   0.04128   0.00000  Uiso   1.00
O255   O     0.37096   0.43194   0.32546   0.00000  Uiso   1.00
O256   O     0.50000   0.56108   0.12846   0.00000  Uiso   1.00
O257   O     0.41201   0.42543   0.07593   0.00000  Uiso   1.00
O258   O     0.50000   0.43893   0.12843   0.00000  Uiso   1.00
O259   O     0.50000   0.56107   0.20490   0.00000  Uiso   1.00
O260   O     0.42392   0.50000   0.19595   0.00000  Uiso   1.00
O261   O     0.57608   0.50000   0.13739   0.00000  Uiso   1.00
O262   O     0.42392   0.50000   0.11950   0.00000  Uiso   1.00
O263   O     0.57608   0.50000   0.21383   0.00000  Uiso   1.00
O264   O     0.56015   0.60945   0.07146   0.00000  Uiso   1.00
S265   S     0.58633   0.62682   0.11672   0.00000  Uiso   1.00
S266   S     0.41234   0.37329   0.21490   0.00000  Uiso   1.00
S267   S     0.59998   0.54255   0.30196   0.00000  Uiso   1.00
S268   S     0.39995   0.45758   0.03143   0.00000  Uiso   1.00
Zn269  Zn    0.50000   0.49999   0.21771   0.00000  Uiso   1.00
Zn270  Zn    0.50000   0.50001   0.11563   0.00000  Uiso   1.00
C271   C     0.83100   0.42014   0.16640   0.00000  Uiso   1.00
C272   C     0.79518   0.35188   0.18831   0.00000  Uiso   1.00
C273   C     0.83624   0.62415   0.16678   0.00000  Uiso   1.00
C274   C     0.83027   0.37590   0.16628   0.00000  Uiso   1.00
C275   C     0.87460   0.51732   0.03074   0.00000  Uiso   1.00
C276   C     0.79203   0.48274   0.30260   0.00000  Uiso   1.00
C277   C     0.87504   0.51826   0.31672   0.00000  Uiso   1.00
C278   C     0.79160   0.48176   0.01663   0.00000  Uiso   1.00
C279   C     0.83576   0.57988   0.16691   0.00000  Uiso   1.00
C280   C     0.73374   0.50016   0.15455   0.00000  Uiso   1.00
C281   C     0.93291   0.49948   0.17878   0.00000  Uiso   1.00
C282   C     0.67834   0.50012   0.14831   0.00000  Uiso   1.00
C283   C     0.98828   0.49894   0.18503   0.00000  Uiso   1.00
C284   C     0.86714   0.35760   0.14416   0.00000  Uiso   1.00
C285   C     0.79919   0.64247   0.18873   0.00000  Uiso   1.00
C286   C     0.87089   0.64818   0.14423   0.00000  Uiso   1.00
H287   H     0.99028   0.50135   0.11378   0.00000  Uiso   1.00
H288   H     0.71016   0.41739   0.08336   0.00000  Uiso   1.00
H289   H     0.67634   0.49770   0.21956   0.00000  Uiso   1.00
H290   H     0.89371   0.37699   0.12754   0.00000  Uiso   1.00
H291   H     0.77260   0.62312   0.20539   0.00000  Uiso   1.00
H292   H     0.90760   0.53028   0.05458   0.00000  Uiso   1.00
H293   H     0.75897   0.46985   0.27877   0.00000  Uiso   1.00
H294   H     0.97245   0.60283   0.17389   0.00000  Uiso   1.00
H295   H     0.78791   0.36523   0.28297   0.00000  Uiso   1.00
H296   H     0.95640   0.58555   0.25258   0.00000  Uiso   1.00
N297   N     0.83332   0.49999   0.28573   0.00000  Uiso   1.00
N298   N     0.83335   0.50001   0.04760   0.00000  Uiso   1.00
O299   O     0.83333   0.43892   0.20487   0.00000  Uiso   1.00
O300   O     0.96049   0.65996   0.10913   0.00000  Uiso   1.00
O301   O     0.94973   0.58841   0.14794   0.00000  Uiso   1.00
O302   O     0.72143   0.40915   0.18774   0.00000  Uiso   1.00
O303   O     0.70288   0.34076   0.21927   0.00000  Uiso   1.00
O304   O     0.77340   0.39037   0.26694   0.00000  Uiso   1.00
O305   O     0.96213   0.56820   0.00799   0.00000  Uiso   1.00
O306   O     0.96895   0.50906   0.29206   0.00000  Uiso   1.00
O307   O     0.92116   0.57472   0.25750   0.00000  Uiso   1.00
O308   O     0.69780   0.49122   0.04128   0.00000  Uiso   1.00
O309   O     0.70430   0.43194   0.32546   0.00000  Uiso   1.00
O310   O     0.83334   0.56108   0.12846   0.00000  Uiso   1.00
O311   O     0.74535   0.42543   0.07593   0.00000  Uiso   1.00
O312   O     0.83333   0.43893   0.12843   0.00000  Uiso   1.00
O313   O     0.83334   0.56107   0.20490   0.00000  Uiso   1.00
O314   O     0.75725   0.50000   0.19595   0.00000  Uiso   1.00
O315   O     0.90942   0.50000   0.13739   0.00000  Uiso   1.00
O316   O     0.75725   0.50000   0.11950   0.00000  Uiso   1.00
O317   O     0.90942   0.50000   0.21383   0.00000  Uiso   1.00
O318   O     0.89348   0.60945   0.07146   0.00000  Uiso   1.00
S319   S     0.91966   0.62682   0.11672   0.00000  Uiso   1.00
S320   S     0.74567   0.37329   0.21490   0.00000  Uiso   1.00
S321   S     0.93331   0.54255   0.30196   0.00000  Uiso   1.00
S322   S     0.73328   0.45758   0.03143   0.00000  Uiso   1.00
Zn323  Zn    0.83333   0.49999   0.21771   0.00000  Uiso   1.00
Zn324  Zn    0.83333   0.50001   0.11563   0.00000  Uiso   1.00
C325   C     0.16433   0.75347   0.16640   0.00000  Uiso   1.00
C326   C     0.12852   0.68521   0.18831   0.00000  Uiso   1.00
C327   C     0.16957   0.95748   0.16678   0.00000  Uiso   1.00
C328   C     0.16360   0.70923   0.16628   0.00000  Uiso   1.00
C329   C     0.20793   0.85065   0.03074   0.00000  Uiso   1.00
C330   C     0.12536   0.81607   0.30260   0.00000  Uiso   1.00
C331   C     0.20838   0.85159   0.31672   0.00000  Uiso   1.00
C332   C     0.12494   0.81509   0.01663   0.00000  Uiso   1.00
C333   C     0.16910   0.91321   0.16691   0.00000  Uiso   1.00
C334   C     0.06707   0.83349   0.15455   0.00000  Uiso   1.00
C335   C     0.26624   0.83281   0.17878   0.00000  Uiso   1.00
C336   C     0.01168   0.83346   0.14831   0.00000  Uiso   1.00
C337   C     0.32161   0.83228   0.18503   0.00000  Uiso   1.00
C338   C     0.20048   0.69093   0.14416   0.00000  Uiso   1.00
C339   C     0.13252   0.97580   0.18873   0.00000  Uiso   1.00
C340   C     0.20422   0.98152   0.14423   0.00000  Uiso   1.00
H341   H     0.32361   0.83468   0.11378   0.00000  Uiso   1.00
H342   H     0.04349   0.75072   0.08336   0.00000  Uiso   1.00
H343   H     0.00967   0.83103   0.21956   0.00000  Uiso   1.00
H344   H     0.22704   0.71033   0.12754   0.00000  Uiso   1.00
H345   H     0.10593   0.95646   0.20539   0.00000  Uiso   1.00
H346   H     0.24093   0.86361   0.05458   0.00000  Uiso   1.00
H347   H     0.09230   0.80318   0.27877   0.00000  Uiso   1.00
H348   H     0.30578   0.93616   0.17389   0.00000  Uiso   1.00
H349   H     0.12125   0.69856   0.28297   0.00000  Uiso   1.00
H350   H     0.28974   0.91888   0.25258   0.00000  Uiso   1.00
N351   N     0.16665   0.83332   0.28573   0.00000  Uiso   1.00
N352   N     0.16668   0.83334   0.04760   0.00000  Uiso   1.00
O353   O     0.16666   0.77225   0.20487   0.00000  Uiso   1.00
O354   O     0.29383   0.99329   0.10913   0.00000  Uiso   1.00
O355   O     0.28306   0.92174   0.14794   0.00000  Uiso   1.00
O356   O     0.05476   0.74248   0.18774   0.00000  Uiso   1.00
O357   O     0.03622   0.67409   0.21927   0.00000  Uiso   1.00
O358   O     0.10673   0.72371   0.26694   0.00000  Uiso   1.00
O359   O     0.29547   0.90154   0.00799   0.00000  Uiso   1.00
O360   O     0.30228   0.84239   0.29206   0.00000  Uiso   1.00
O361   O     0.25449   0.90805   0.25750   0.00000  Uiso   1.00
O362   O     0.03113   0.82455   0.04128   0.00000  Uiso   1.00
O363   O     0.03763   0.76527   0.32546   0.00000  Uiso   1.00
O364   O     0.16667   0.89442   0.12846   0.00000  Uiso   1.00
O365   O     0.07868   0.75876   0.07593   0.00000  Uiso   1.00
O366   O     0.16666   0.77226   0.12843   0.00000  Uiso   1.00
O367   O     0.16667   0.89441   0.20490   0.00000  Uiso   1.00
O368   O     0.09058   0.83333   0.19595   0.00000  Uiso   1.00
O369   O     0.24275   0.83334   0.13739   0.00000  Uiso   1.00
O370   O     0.09058   0.83334   0.11950   0.00000  Uiso   1.00
O371   O     0.24275   0.83333   0.21383   0.00000  Uiso   1.00
O372   O     0.22682   0.94279   0.07146   0.00000  Uiso   1.00
S373   S     0.25300   0.96015   0.11672   0.00000  Uiso   1.00
S374   S     0.07901   0.70663   0.21490   0.00000  Uiso   1.00
S375   S     0.26664   0.87588   0.30196   0.00000  Uiso   1.00
S376   S     0.06661   0.79091   0.03143   0.00000  Uiso   1.00
Zn377  Zn    0.16667   0.83333   0.21771   0.00000  Uiso   1.00
Zn378  Zn    0.16667   0.83334   0.11563   0.00000  Uiso   1.00
C379   C     0.49767   0.75347   0.16640   0.00000  Uiso   1.00
C380   C     0.46185   0.68521   0.18831   0.00000  Uiso   1.00
C381   C     0.50291   0.95748   0.16678   0.00000  Uiso   1.00
C382   C     0.49694   0.70923   0.16628   0.00000  Uiso   1.00
C383   C     0.54126   0.85065   0.03074   0.00000  Uiso   1.00
C384   C     0.45870   0.81607   0.30260   0.00000  Uiso   1.00
C385   C     0.54171   0.85159   0.31672   0.00000  Uiso   1.00
C386   C     0.45827   0.81509   0.01663   0.00000  Uiso   1.00
C387   C     0.50243   0.91321   0.16691   0.00000  Uiso   1.00
C388   C     0.40040   0.83349   0.15455   0.00000  Uiso   1.00
C389   C     0.59957   0.83281   0.17878   0.00000  Uiso   1.00
C390   C     0.34501   0.83346   0.14831   0.00000  Uiso   1.00
C391   C     0.65495   0.83228   0.18503   0.00000  Uiso   1.00
C392   C     0.53381   0.69093   0.14416   0.00000  Uiso   1.00
C393   C     0.46586   0.97580   0.18873   0.00000  Uiso   1.00
C394   C     0.53755   0.98152   0.14423   0.00000  Uiso   1.00
H395   H     0.65695   0.83468   0.11378   0.00000  Uiso   1.00
H396   H     0.37683   0.75072   0.08336   0.00000  Uiso   1.00
H397   H     0.34300   0.83103   0.21956   0.00000  Uiso   1.00
H398   H     0.56037   0.71033   0.12754   0.00000  Uiso   1.00
H399   H     0.43927   0.95646   0.20539   0.00000  Uiso   1.00
H400   H     0.57427   0.86361   0.05458   0.00000  Uiso   1.00
H401   H     0.42564   0.80318   0.27877   0.00000  Uiso   1.00
H402   H     0.63912   0.93616   0.17389   0.00000  Uiso   1.00
H403   H     0.45458   0.69856   0.28297   0.00000  Uiso   1.00
H404   H     0.62307   0.91888   0.25258   0.00000  Uiso   1.00
N405   N     0.49999   0.83332   0.28573   0.00000  Uiso   1.00
N406   N     0.50001   0.83334   0.04760   0.00000  Uiso   1.00
O407   O     0.50000   0.77225   0.20487   0.00000  Uiso   1.00
O408   O     0.62716   0.99329   0.10913   0.00000  Uiso   1.00
O409   O     0.61640   0.92174   0.14794   0.00000  Uiso   1.00
O410   O     0.38810   0.74248   0.18774   0.00000  Uiso   1.00
O411   O     0.36955   0.67409   0.21927   0.00000  Uiso   1.00
O412   O     0.44006   0.72371   0.26694   0.00000  Uiso   1.00
O413   O     0.62880   0.90154   0.00799   0.00000  Uiso   1.00
O414   O     0.63562   0.84239   0.29206   0.00000  Uiso   1.00
O415   O     0.58783   0.90805   0.25750   0.00000  Uiso   1.00
O416   O     0.36447   0.82455   0.04128   0.00000  Uiso   1.00
O417   O     0.37096   0.76527   0.32546   0.00000  Uiso   1.00
O418   O     0.50000   0.89442   0.12846   0.00000  Uiso   1.00
O419   O     0.41201   0.75876   0.07593   0.00000  Uiso   1.00
O420   O     0.50000   0.77226   0.12843   0.00000  Uiso   1.00
O421   O     0.50000   0.89441   0.20490   0.00000  Uiso   1.00
O422   O     0.42392   0.83333   0.19595   0.00000  Uiso   1.00
O423   O     0.57608   0.83334   0.13739   0.00000  Uiso   1.00
O424   O     0.42392   0.83334   0.11950   0.00000  Uiso   1.00
O425   O     0.57608   0.83333   0.21383   0.00000  Uiso   1.00
O426   O     0.56015   0.94279   0.07146   0.00000  Uiso   1.00
S427   S     0.58633   0.96015   0.11672   0.00000  Uiso   1.00
S428   S     0.41234   0.70663   0.21490   0.00000  Uiso   1.00
S429   S     0.59998   0.87588   0.30196   0.00000  Uiso   1.00
S430   S     0.39995   0.79091   0.03143   0.00000  Uiso   1.00
Zn431  Zn    0.50000   0.83333   0.21771   0.00000  Uiso   1.00
Zn432  Zn    0.50000   0.83334   0.11563   0.00000  Uiso   1.00
C433   C     0.83100   0.75347   0.16640   0.00000  Uiso   1.00
C434   C     0.79518   0.68521   0.18831   0.00000  Uiso   1.00
C435   C     0.83624   0.95748   0.16678   0.00000  Uiso   1.00
C436   C     0.83027   0.70923   0.16628   0.00000  Uiso   1.00
C437   C     0.87460   0.85065   0.03074   0.00000  Uiso   1.00
C438   C     0.79203   0.81607   0.30260   0.00000  Uiso   1.00
C439   C     0.87504   0.85159   0.31672   0.00000  Uiso   1.00
C440   C     0.79160   0.81509   0.01663   0.00000  Uiso   1.00
C441   C     0.83576   0.91321   0.16691   0.00000  Uiso   1.00
C442   C     0.73374   0.83349   0.15455   0.00000  Uiso   1.00
C443   C     0.93291   0.83281   0.17878   0.00000  Uiso   1.00
C444   C     0.67834   0.83346   0.14831   0.00000  Uiso   1.00
C445   C     0.98828   0.83228   0.18503   0.00000  Uiso   1.00
C446   C     0.86714   0.69093   0.14416   0.00000  Uiso   1.00
C447   C     0.79919   0.97580   0.18873   0.00000  Uiso   1.00
C448   C     0.87089   0.98152   0.14423   0.00000  Uiso   1.00
H449   H     0.99028   0.83468   0.11378   0.00000  Uiso   1.00
H450   H     0.71016   0.75072   0.08336   0.00000  Uiso   1.00
H451   H     0.67634   0.83103   0.21956   0.00000  Uiso   1.00
H452   H     0.89371   0.71033   0.12754   0.00000  Uiso   1.00
H453   H     0.77260   0.95646   0.20539   0.00000  Uiso   1.00
H454   H     0.90760   0.86361   0.05458   0.00000  Uiso   1.00
H455   H     0.75897   0.80318   0.27877   0.00000  Uiso   1.00
H456   H     0.97245   0.93616   0.17389   0.00000  Uiso   1.00
H457   H     0.78791   0.69856   0.28297   0.00000  Uiso   1.00
H458   H     0.95640   0.91888   0.25258   0.00000  Uiso   1.00
N459   N     0.83332   0.83332   0.28573   0.00000  Uiso   1.00
N460   N     0.83335   0.83334   0.04760   0.00000  Uiso   1.00
O461   O     0.83333   0.77225   0.20487   0.00000  Uiso   1.00
O462   O     0.96049   0.99329   0.10913   0.00000  Uiso   1.00
O463   O     0.94973   0.92174   0.14794   0.00000  Uiso   1.00
O464   O     0.72143   0.74248   0.18774   0.00000  Uiso   1.00
O465   O     0.70288   0.67409   0.21927   0.00000  Uiso   1.00
O466   O     0.77340   0.72371   0.26694   0.00000  Uiso   1.00
O467   O     0.96213   0.90154   0.00799   0.00000  Uiso   1.00
O468   O     0.96895   0.84239   0.29206   0.00000  Uiso   1.00
O469   O     0.92116   0.90805   0.25750   0.00000  Uiso   1.00
O470   O     0.69780   0.82455   0.04128   0.00000  Uiso   1.00
O471   O     0.70430   0.76527   0.32546   0.00000  Uiso   1.00
O472   O     0.83334   0.89442   0.12846   0.00000  Uiso   1.00
O473   O     0.74535   0.75876   0.07593   0.00000  Uiso   1.00
O474   O     0.83333   0.77226   0.12843   0.00000  Uiso   1.00
O475   O     0.83334   0.89441   0.20490   0.00000  Uiso   1.00
O476   O     0.75725   0.83333   0.19595   0.00000  Uiso   1.00
O477   O     0.90942   0.83334   0.13739   0.00000  Uiso   1.00
O478   O     0.75725   0.83334   0.11950   0.00000  Uiso   1.00
O479   O     0.90942   0.83333   0.21383   0.00000  Uiso   1.00
O480   O     0.89348   0.94279   0.07146   0.00000  Uiso   1.00
S481   S     0.91966   0.96015   0.11672   0.00000  Uiso   1.00
S482   S     0.74567   0.70663   0.21490   0.00000  Uiso   1.00
S483   S     0.93331   0.87588   0.30196   0.00000  Uiso   1.00
S484   S     0.73328   0.79091   0.03143   0.00000  Uiso   1.00
Zn485  Zn    0.83333   0.83333   0.21771   0.00000  Uiso   1.00
Zn486  Zn    0.83333   0.83334   0.11563   0.00000  Uiso   1.00
C487   C     0.16433   0.08681   0.49974   0.00000  Uiso   1.00
C488   C     0.12852   0.01855   0.52164   0.00000  Uiso   1.00
C489   C     0.16957   0.29081   0.50011   0.00000  Uiso   1.00
C490   C     0.16360   0.04257   0.49961   0.00000  Uiso   1.00
C491   C     0.20793   0.18398   0.36408   0.00000  Uiso   1.00
C492   C     0.12536   0.14940   0.63593   0.00000  Uiso   1.00
C493   C     0.20838   0.18493   0.65005   0.00000  Uiso   1.00
C494   C     0.12494   0.14842   0.34996   0.00000  Uiso   1.00
C495   C     0.16910   0.24655   0.50024   0.00000  Uiso   1.00
C496   C     0.06707   0.16682   0.48789   0.00000  Uiso   1.00
C497   C     0.26624   0.16614   0.51212   0.00000  Uiso   1.00
C498   C     0.01168   0.16679   0.48164   0.00000  Uiso   1.00
C499   C     0.32161   0.16561   0.51836   0.00000  Uiso   1.00
C500   C     0.20048   0.02426   0.47749   0.00000  Uiso   1.00
C501   C     0.13252   0.30914   0.52207   0.00000  Uiso   1.00
C502   C     0.20422   0.31485   0.47756   0.00000  Uiso   1.00
H503   H     0.32361   0.16801   0.44712   0.00000  Uiso   1.00
H504   H     0.04349   0.08406   0.41669   0.00000  Uiso   1.00
H505   H     0.00967   0.16436   0.55289   0.00000  Uiso   1.00
H506   H     0.22704   0.04366   0.46087   0.00000  Uiso   1.00
H507   H     0.10593   0.28979   0.53872   0.00000  Uiso   1.00
H508   H     0.24093   0.19695   0.38791   0.00000  Uiso   1.00
H509   H     0.09230   0.13652   0.61210   0.00000  Uiso   1.00
H510   H     0.30578   0.26950   0.50722   0.00000  Uiso   1.00
H511   H     0.12125   0.03189   0.61630   0.00000  Uiso   1.00
H512   H     0.28974   0.25222   0.58592   0.00000  Uiso   1.00
N513   N     0.16665   0.16666   0.61907   0.00000  Uiso   1.00
N514   N     0.16668   0.16668   0.38093   0.00000  Uiso   1.00
O515   O     0.16666   0.10558   0.53821   0.00000  Uiso   1.00
O516   O     0.29383   0.32662   0.44246   0.00000  Uiso   1.00
O517   O     0.28306   0.25507   0.48127   0.00000  Uiso   1.00
O518   O     0.05476   0.07582   0.52108   0.00000  Uiso   1.00
O519   O     0.03622   0.00743   0.55260   0.00000  Uiso   1.00
O520   O     0.10673   0.05704   0.60028   0.00000  Uiso   1.00
O521   O     0.29547   0.23487   0.34133   0.00000  Uiso   1.00
O522   O     0.30228   0.17572   0.62539   0.00000  Uiso   1.00
O523   O     0.25449   0.24138   0.59084   0.00000  Uiso   1.00
O524   O     0.03113   0.15788   0.37461   0.00000  Uiso   1.00
O525   O     0.03763   0.09861   0.65879   0.00000  Uiso   1.00
O526   O     0.16667   0.22775   0.46179   0.00000  Uiso   1.00
O527   O     0.07868   0.09209   0.40927   0.00000  Uiso   1.00
O528   O     0.16666   0.10559   0.46176   0.00000  Uiso   1.00
O529   O     0.16667   0.22774   0.53824   0.00000  Uiso   1.00
O530   O     0.09058   0.16666   0.52928   0.00000  Uiso   1.00
O531   O     0.24275   0.16667   0.47072   0.00000  Uiso   1.00
O532   O     0.09058   0.16667   0.45284   0.00000  Uiso   1.00
O533   O     0.24275   0.16666   0.54716   0.00000  Uiso   1.00
O534   O     0.22682   0.27612   0.40479   0.00000  Uiso   1.00
S535   S     0.25300   0.29349   0.45006   0.00000  Uiso   1.00
S536   S     0.07901   0.03996   0.54823   0.00000  Uiso   1.00
S537   S     0.26664   0.20922   0.63529   0.00000  Uiso   1.00
S538   S     0.06661   0.12425   0.36476   0.00000  Uiso   1.00
Zn539  Zn    0.16667   0.16666   0.55104   0.00000  Uiso   1.00
Zn540  Zn    0.16667   0.16667   0.44896   0.00000  Uiso   1.00
C541   C     0.49767   0.08681   0.49974   0.00000  Uiso   1.00
C542   C     0.46185   0.01855   0.52164   0.00000  Uiso   1.00
C543   C     0.50291   0.29081   0.50011   0.00000  Uiso   1.00
C544   C     0.49694   0.04257   0.49961   0.00000  Uiso   1.00
C545   C     0.54126   0.18398   0.36408   0.00000  Uiso   1.00
C546   C     0.45870   0.14940   0.63593   0.00000  Uiso   1.00
C547   C     0.54171   0.18493   0.65005   0.00000  Uiso   1.00
C548   C     0.45827   0.14842   0.34996   0.00000  Uiso   1.00
C549   C     0.50243   0.24655   0.50024   0.00000  Uiso   1.00
C550   C     0.40040   0.16682   0.48789   0.00000  Uiso   1.00
C551   C     0.59957   0.16614   0.51212   0.00000  Uiso   1.00
C552   C     0.34501   0.16679   0.48164   0.00000  Uiso   1.00
C553   C     0.65495   0.16561   0.51836   0.00000  Uiso   1.00
C554   C     0.53381   0.02426   0.47749   0.00000  Uiso   1.00
C555   C     0.46586   0.30914   0.52207   0.00000  Uiso   1.00
C556   C     0.53755   0.31485   0.47756   0.00000  Uiso   1.00
H557   H     0.65695   0.16801   0.44712   0.00000  Uiso   1.00
H558   H     0.37683   0.08406   0.41669   0.00000  Uiso   1.00
H559   H     0.34300   0.16436   0.55289   0.00000  Uiso   1.00
H560   H     0.56037   0.04366   0.46087   0.00000  Uiso   1.00
H561   H     0.43927   0.28979   0.53872   0.00000  Uiso   1.00
H562   H     0.57427   0.19695   0.38791   0.00000  Uiso   1.00
H563   H     0.42564   0.13652   0.61210   0.00000  Uiso   1.00
H564   H     0.63912   0.26950   0.50722   0.00000  Uiso   1.00
H565   H     0.45458   0.03189   0.61630   0.00000  Uiso   1.00
H566   H     0.62307   0.25222   0.58592   0.00000  Uiso   1.00
N567   N     0.49999   0.16666   0.61907   0.00000  Uiso   1.00
N568   N     0.50001   0.16668   0.38093   0.00000  Uiso   1.00
O569   O     0.50000   0.10558   0.53821   0.00000  Uiso   1.00
O570   O     0.62716   0.32662   0.44246   0.00000  Uiso   1.00
O571   O     0.61640   0.25507   0.48127   0.00000  Uiso   1.00
O572   O     0.38810   0.07582   0.52108   0.00000  Uiso   1.00
O573   O     0.36955   0.00743   0.55260   0.00000  Uiso   1.00
O574   O     0.44006   0.05704   0.60028   0.00000  Uiso   1.00
O575   O     0.62880   0.23487   0.34133   0.00000  Uiso   1.00
O576   O     0.63562   0.17572   0.62539   0.00000  Uiso   1.00
O577   O     0.58783   0.24138   0.59084   0.00000  Uiso   1.00
O578   O     0.36447   0.15788   0.37461   0.00000  Uiso   1.00
O579   O     0.37096   0.09861   0.65879   0.00000  Uiso   1.00
O580   O     0.50000   0.22775   0.46179   0.00000  Uiso   1.00
O581   O     0.41201   0.09209   0.40927   0.00000  Uiso   1.00
O582   O     0.50000   0.10559   0.46176   0.00000  Uiso   1.00
O583   O     0.50000   0.22774   0.53824   0.00000  Uiso   1.00
O584   O     0.42392   0.16666   0.52928   0.00000  Uiso   1.00
O585   O     0.57608   0.16667   0.47072   0.00000  Uiso   1.00
O586   O     0.42392   0.16667   0.45284   0.00000  Uiso   1.00
O587   O     0.57608   0.16666   0.54716   0.00000  Uiso   1.00
O588   O     0.56015   0.27612   0.40479   0.00000  Uiso   1.00
S589   S     0.58633   0.29349   0.45006   0.00000  Uiso   1.00
S590   S     0.41234   0.03996   0.54823   0.00000  Uiso   1.00
S591   S     0.59998   0.20922   0.63529   0.00000  Uiso   1.00
S592   S     0.39995   0.12425   0.36476   0.00000  Uiso   1.00
Zn593  Zn    0.50000   0.16666   0.55104   0.00000  Uiso   1.00
Zn594  Zn    0.50000   0.16667   0.44896   0.00000  Uiso   1.00
C595   C     0.83100   0.08681   0.49974   0.00000  Uiso   1.00
C596   C     0.79518   0.01855   0.52164   0.00000  Uiso   1.00
C597   C     0.83624   0.29081   0.50011   0.00000  Uiso   1.00
C598   C     0.83027   0.04257   0.49961   0.00000  Uiso   1.00
C599   C     0.87460   0.18398   0.36408   0.00000  Uiso   1.00
C600   C     0.79203   0.14940   0.63593   0.00000  Uiso   1.00
C601   C     0.87504   0.18493   0.65005   0.00000  Uiso   1.00
C602   C     0.79160   0.14842   0.34996   0.00000  Uiso   1.00
C603   C     0.83576   0.24655   0.50024   0.00000  Uiso   1.00
C604   C     0.73374   0.16682   0.48789   0.00000  Uiso   1.00
C605   C     0.93291   0.16614   0.51212   0.00000  Uiso   1.00
C606   C     0.67834   0.16679   0.48164   0.00000  Uiso   1.00
C607   C     0.98828   0.16561   0.51836   0.00000  Uiso   1.00
C608   C     0.86714   0.02426   0.47749   0.00000  Uiso   1.00
C609   C     0.79919   0.30914   0.52207   0.00000  Uiso   1.00
C610   C     0.87089   0.31485   0.47756   0.00000  Uiso   1.00
H611   H     0.99028   0.16801   0.44712   0.00000  Uiso   1.00
H612   H     0.71016   0.08406   0.41669   0.00000  Uiso   1.00
H613   H     0.67634   0.16436   0.55289   0.00000  Uiso   1.00
H614   H     0.89371   0.04366   0.46087   0.00000  Uiso   1.00
H615   H     0.77260   0.28979   0.53872   0.00000  Uiso   1.00
H616   H     0.90760   0.19695   0.38791   0.00000  Uiso   1.00
H617   H     0.75897   0.13652   0.61210   0.00000  Uiso   1.00
H618   H     0.97245   0.26950   0.50722   0.00000  Uiso   1.00
H619   H     0.78791   0.03189   0.61630   0.00000  Uiso   1.00
H620   H     0.95640   0.25222   0.58592   0.00000  Uiso   1.00
N621   N     0.83332   0.16666   0.61907   0.00000  Uiso   1.00
N622   N     0.83335   0.16668   0.38093   0.00000  Uiso   1.00
O623   O     0.83333   0.10558   0.53821   0.00000  Uiso   1.00
O624   O     0.96049   0.32662   0.44246   0.00000  Uiso   1.00
O625   O     0.94973   0.25507   0.48127   0.00000  Uiso   1.00
O626   O     0.72143   0.07582   0.52108   0.00000  Uiso   1.00
O627   O     0.70288   0.00743   0.55260   0.00000  Uiso   1.00
O628   O     0.77340   0.05704   0.60028   0.00000  Uiso   1.00
O629   O     0.96213   0.23487   0.34133   0.00000  Uiso   1.00
O630   O     0.96895   0.17572   0.62539   0.00000  Uiso   1.00
O631   O     0.92116   0.24138   0.59084   0.00000  Uiso   1.00
O632   O     0.69780   0.15788   0.37461   0.00000  Uiso   1.00
O633   O     0.70430   0.09861   0.65879   0.00000  Uiso   1.00
O634   O     0.83334   0.22775   0.46179   0.00000  Uiso   1.00
O635   O     0.74535   0.09209   0.40927   0.00000  Uiso   1.00
O636   O     0.83333   0.10559   0.46176   0.00000  Uiso   1.00
O637   O     0.83334   0.22774   0.53824   0.00000  Uiso   1.00
O638   O     0.75725   0.16666   0.52928   0.00000  Uiso   1.00
O639   O     0.90942   0.16667   0.47072   0.00000  Uiso   1.00
O640   O     0.75725   0.16667   0.45284   0.00000  Uiso   1.00
O641   O     0.90942   0.16666   0.54716   0.00000  Uiso   1.00
O642   O     0.89348   0.27612   0.40479   0.00000  Uiso   1.00
S643   S     0.91966   0.29349   0.45006   0.00000  Uiso   1.00
S644   S     0.74567   0.03996   0.54823   0.00000  Uiso   1.00
S645   S     0.93331   0.20922   0.63529   0.00000  Uiso   1.00
S646   S     0.73328   0.12425   0.36476   0.00000  Uiso   1.00
Zn647  Zn    0.83333   0.16666   0.55104   0.00000  Uiso   1.00
Zn648  Zn    0.83333   0.16667   0.44896   0.00000  Uiso   1.00
C649   C     0.16433   0.42014   0.49974   0.00000  Uiso   1.00
C650   C     0.12852   0.35188   0.52164   0.00000  Uiso   1.00
C651   C     0.16957   0.62415   0.50011   0.00000  Uiso   1.00
C652   C     0.16360   0.37590   0.49961   0.00000  Uiso   1.00
C653   C     0.20793   0.51732   0.36408   0.00000  Uiso   1.00
C654   C     0.12536   0.48274   0.63593   0.00000  Uiso   1.00
C655   C     0.20838   0.51826   0.65005   0.00000  Uiso   1.00
C656   C     0.12494   0.48176   0.34996   0.00000  Uiso   1.00
C657   C     0.16910   0.57988   0.50024   0.00000  Uiso   1.00
C658   C     0.06707   0.50016   0.48789   0.00000  Uiso   1.00
C659   C     0.26624   0.49948   0.51212   0.00000  Uiso   1.00
C660   C     0.01168   0.50012   0.48164   0.00000  Uiso   1.00
C661   C     0.32161   0.49894   0.51836   0.00000  Uiso   1.00
C662   C     0.20048   0.35760   0.47749   0.00000  Uiso   1.00
C663   C     0.13252   0.64247   0.52207   0.00000  Uiso   1.00
C664   C     0.20422   0.64818   0.47756   0.00000  Uiso   1.00
H665   H     0.32361   0.50135   0.44712   0.00000  Uiso   1.00
H666   H     0.04349   0.41739   0.41669   0.00000  Uiso   1.00
H667   H     0.00967   0.49770   0.55289   0.00000  Uiso   1.00
H668   H     0.22704   0.37699   0.46087   0.00000  Uiso   1.00
H669   H     0.10593   0.62312   0.53872   0.00000  Uiso   1.00
H670   H     0.24093   0.53028   0.38791   0.00000  Uiso   1.00
H671   H     0.09230   0.46985   0.61210   0.00000  Uiso   1.00
H672   H     0.30578   0.60283   0.50722   0.00000  Uiso   1.00
H673   H     0.12125   0.36523   0.61630   0.00000  Uiso   1.00
H674   H     0.28974   0.58555   0.58592   0.00000  Uiso   1.00
N675   N     0.16665   0.49999   0.61907   0.00000  Uiso   1.00
N676   N     0.16668   0.50001   0.38093   0.00000  Uiso   1.00
O677   O     0.16666   0.43892   0.53821   0.00000  Uiso   1.00
O678   O     0.29383   0.65996   0.44246   0.00000  Uiso   1.00
O679   O     0.28306   0.58841   0.48127   0.00000  Uiso   1.00
O680   O     0.05476   0.40915   0.52108   0.00000  Uiso   1.00
O681   O     0.03622   0.34076   0.55260   0.00000  Uiso   1.00
O682   O     0.10673   0.39037   0.60028   0.00000  Uiso   1.00
O683   O     0.29547   0.56820   0.34133   0.00000  Uiso   1.00
O684   O     0.30228   0.50906   0.62539   0.00000  Uiso   1.00
O685   O     0.25449   0.57472   0.59084   0.00000  Uiso   1.00
O686   O     0.03113   0.49122   0.37461   0.00000  Uiso   1.00
O687   O     0.03763   0.43194   0.65879   0.00000  Uiso   1.00
O688   O     0.16667   0.56108   0.46179   0.00000  Uiso   1.00
O689   O     0.07868   0.42543   0.40927   0.00000  Uiso   1.00
O690   O     0.16666   0.43893   0.46176   0.00000  Uiso   1.00
O691   O     0.16667   0.56107   0.53824   0.00000  Uiso   1.00
O692   O     0.09058   0.50000   0.52928   0.00000  Uiso   1.00
O693   O     0.24275   0.50000   0.47072   0.00000  Uiso   1.00
O694   O     0.09058   0.50000   0.45284   0.00000  Uiso   1.00
O695   O     0.24275   0.50000   0.54716   0.00000  Uiso   1.00
O696   O     0.22682   0.60945   0.40479   0.00000  Uiso   1.00
S697   S     0.25300   0.62682   0.45006   0.00000  Uiso   1.00
S698   S     0.07901   0.37329   0.54823   0.00000  Uiso   1.00
S699   S     0.26664   0.54255   0.63529   0.00000  Uiso   1.00
S700   S     0.06661   0.45758   0.36476   0.00000  Uiso   1.00
Zn701  Zn    0.16667   0.49999   0.55104   0.00000  Uiso   1.00
Zn702  Zn    0.16667   0.50001   0.44896   0.00000  Uiso   1.00
C703   C     0.49767   0.42014   0.49974   0.00000  Uiso   1.00
C704   C     0.46185   0.35188   0.52164   0.00000  Uiso   1.00
C705   C     0.50291   0.62415   0.50011   0.00000  Uiso   1.00
C706   C     0.49694   0.37590   0.49961   0.00000  Uiso   1.00
C707   C     0.54126   0.51732   0.36408   0.00000  Uiso   1.00
C708   C     0.45870   0.48274   0.63593   0.00000  Uiso   1.00
C709   C     0.54171   0.51826   0.65005   0.00000  Uiso   1.00
C710   C     0.45827   0.48176   0.34996   0.00000  Uiso   1.00
C711   C     0.50243   0.57988   0.50024   0.00000  Uiso   1.00
C712   C     0.40040   0.50016   0.48789   0.00000  Uiso   1.00
C713   C     0.59957   0.49948   0.51212   0.00000  Uiso   1.00
C714   C     0.34501   0.50012   0.48164   0.00000  Uiso   1.00
C715   C     0.65495   0.49894   0.51836   0.00000  Uiso   1.00
C716   C     0.53381   0.35760   0.47749   0.00000  Uiso   1.00
C717   C     0.46586   0.64247   0.52207   0.00000  Uiso   1.00
C718   C     0.53755   0.64818   0.47756   0.00000  Uiso   1.00
H719   H     0.65695   0.50135   0.44712   0.00000  Uiso   1.00
H720   H     0.37683   0.41739   0.41669   0.00000  Uiso   1.00
H721   H     0.34300   0.49770   0.55289   0.00000  Uiso   1.00
H722   H     0.56037   0.37699   0.46087   0.00000  Uiso   1.00
H723   H     0.43927   0.62312   0.53872   0.00000  Uiso   1.00
H724   H     0.57427   0.53028   0.38791   0.00000  Uiso   1.00
H725   H     0.42564   0.46985   0.61210   0.00000  Uiso   1.00
H726   H     0.63912   0.60283   0.50722   0.00000  Uiso   1.00
H727   H     0.45458   0.36523   0.61630   0.00000  Uiso   1.00
H728   H     0.62307   0.58555   0.58592   0.00000  Uiso   1.00
N729   N     0.49999   0.49999   0.61907   0.00000  Uiso   1.00
N730   N     0.50001   0.50001   0.38093   0.00000  Uiso   1.00
O731   O     0.50000   0.43892   0.53821   0.00000  Uiso   1.00
O732   O     0.62716   0.65996   0.44246   0.00000  Uiso   1.00
O733   O     0.61640   0.58841   0.48127   0.00000  Uiso   1.00
O734   O     0.38810   0.40915   0.52108   0.00000  Uiso   1.00
O735   O     0.36955   0.34076   0.55260   0.00000  Uiso   1.00
O736   O     0.44006   0.39037   0.60028   0.00000  Uiso   1.00
O737   O     0.62880   0.56820   0.34133   0.00000  Uiso   1.00
O738   O     0.63562   0.50906   0.62539   0.00000  Uiso   1.00
O739   O     0.58783   0.57472   0.59084   0.00000  Uiso   1.00
O740   O     0.36447   0.49122   0.37461   0.00000  Uiso   1.00
O741   O     0.37096   0.43194   0.65879   0.00000  Uiso   1.00
O742   O     0.50000   0.56108   0.46179   0.00000  Uiso   1.00
O743   O     0.41201   0.42543   0.40927   0.00000  Uiso   1.00
O744   O     0.50000   0.43893   0.46176   0.00000  Uiso   1.00
O745   O     0.50000   0.56107   0.53824   0.00000  Uiso   1.00
O746   O     0.42392   0.50000   0.52928   0.00000  Uiso   1.00
O747   O     0.57608   0.50000   0.47072   0.00000  Uiso   1.00
O748   O     0.42392   0.50000   0.45284   0.00000  Uiso   1.00
O749   O     0.57608   0.50000   0.54716   0.00000  Uiso   1.00
O750   O     0.56015   0.60945   0.40479   0.00000  Uiso   1.00
S751   S     0.58633   0.62682   0.45006   0.00000  Uiso   1.00
S752   S     0.41234   0.37329   0.54823   0.00000  Uiso   1.00
S753   S     0.59998   0.54255   0.63529   0.00000  Uiso   1.00
S754   S     0.39995   0.45758   0.36476   0.00000  Uiso   1.00
Zn755  Zn    0.50000   0.49999   0.55104   0.00000  Uiso   1.00
Zn756  Zn    0.50000   0.50001   0.44896   0.00000  Uiso   1.00
C757   C     0.83100   0.42014   0.49974   0.00000  Uiso   1.00
C758   C     0.79518   0.35188   0.52164   0.00000  Uiso   1.00
C759   C     0.83624   0.62415   0.50011   0.00000  Uiso   1.00
C760   C     0.83027   0.37590   0.49961   0.00000  Uiso   1.00
C761   C     0.87460   0.51732   0.36408   0.00000  Uiso   1.00
C762   C     0.79203   0.48274   0.63593   0.00000  Uiso   1.00
C763   C     0.87504   0.51826   0.65005   0.00000  Uiso   1.00
C764   C     0.79160   0.48176   0.34996   0.00000  Uiso   1.00
C765   C     0.83576   0.57988   0.50024   0.00000  Uiso   1.00
C766   C     0.73374   0.50016   0.48789   0.00000  Uiso   1.00
C767   C     0.93291   0.49948   0.51212   0.00000  Uiso   1.00
C768   C     0.67834   0.50012   0.48164   0.00000  Uiso   1.00
C769   C     0.98828   0.49894   0.51836   0.00000  Uiso   1.00
C770   C     0.86714   0.35760   0.47749   0.00000  Uiso   1.00
C771   C     0.79919   0.64247   0.52207   0.00000  Uiso   1.00
C772   C     0.87089   0.64818   0.47756   0.00000  Uiso   1.00
H773   H     0.99028   0.50135   0.44712   0.00000  Uiso   1.00
H774   H     0.71016   0.41739   0.41669   0.00000  Uiso   1.00
H775   H     0.67634   0.49770   0.55289   0.00000  Uiso   1.00
H776   H     0.89371   0.37699   0.46087   0.00000  Uiso   1.00
H777   H     0.77260   0.62312   0.53872   0.00000  Uiso   1.00
H778   H     0.90760   0.53028   0.38791   0.00000  Uiso   1.00
H779   H     0.75897   0.46985   0.61210   0.00000  Uiso   1.00
H780   H     0.97245   0.60283   0.50722   0.00000  Uiso   1.00
H781   H     0.78791   0.36523   0.61630   0.00000  Uiso   1.00
H782   H     0.95640   0.58555   0.58592   0.00000  Uiso   1.00
N783   N     0.83332   0.49999   0.61907   0.00000  Uiso   1.00
N784   N     0.83335   0.50001   0.38093   0.00000  Uiso   1.00
O785   O     0.83333   0.43892   0.53821   0.00000  Uiso   1.00
O786   O     0.96049   0.65996   0.44246   0.00000  Uiso   1.00
O787   O     0.94973   0.58841   0.48127   0.00000  Uiso   1.00
O788   O     0.72143   0.40915   0.52108   0.00000  Uiso   1.00
O789   O     0.70288   0.34076   0.55260   0.00000  Uiso   1.00
O790   O     0.77340   0.39037   0.60028   0.00000  Uiso   1.00
O791   O     0.96213   0.56820   0.34133   0.00000  Uiso   1.00
O792   O     0.96895   0.50906   0.62539   0.00000  Uiso   1.00
O793   O     0.92116   0.57472   0.59084   0.00000  Uiso   1.00
O794   O     0.69780   0.49122   0.37461   0.00000  Uiso   1.00
O795   O     0.70430   0.43194   0.65879   0.00000  Uiso   1.00
O796   O     0.83334   0.56108   0.46179   0.00000  Uiso   1.00
O797   O     0.74535   0.42543   0.40927   0.00000  Uiso   1.00
O798   O     0.83333   0.43893   0.46176   0.00000  Uiso   1.00
O799   O     0.83334   0.56107   0.53824   0.00000  Uiso   1.00
O800   O     0.75725   0.50000   0.52928   0.00000  Uiso   1.00
O801   O     0.90942   0.50000   0.47072   0.00000  Uiso   1.00
O802   O     0.75725   0.50000   0.45284   0.00000  Uiso   1.00
O803   O     0.90942   0.50000   0.54716   0.00000  Uiso   1.00
O804   O     0.89348   0.60945   0.40479   0.00000  Uiso   1.00
S805   S     0.91966   0.62682   0.45006   0.00000  Uiso   1.00
S806   S     0.74567   0.37329   0.54823   0.00000  Uiso   1.00
S807   S     0.93331   0.54255   0.63529   0.00000  Uiso   1.00
S808   S     0.73328   0.45758   0.36476   0.00000  Uiso   1.00
Zn809  Zn    0.83333   0.49999   0.55104   0.00000  Uiso   1.00
Zn810  Zn    0.83333   0.50001   0.44896   0.00000  Uiso   1.00
C811   C     0.16433   0.75347   0.49974   0.00000  Uiso   1.00
C812   C     0.12852   0.68521   0.52164   0.00000  Uiso   1.00
C813   C     0.16957   0.95748   0.50011   0.00000  Uiso   1.00
C814   C     0.16360   0.70923   0.49961   0.00000  Uiso   1.00
C815   C     0.20793   0.85065   0.36408   0.00000  Uiso   1.00
C816   C     0.12536   0.81607   0.63593   0.00000  Uiso   1.00
C817   C     0.20838   0.85159   0.65005   0.00000  Uiso   1.00
C818   C     0.12494   0.81509   0.34996   0.00000  Uiso   1.00
C819   C     0.16910   0.91321   0.50024   0.00000  Uiso   1.00
C820   C     0.06707   0.83349   0.48789   0.00000  Uiso   1.00
C821   C     0.26624   0.83281   0.51212   0.00000  Uiso   1.00
C822   C     0.01168   0.83346   0.48164   0.00000  Uiso   1.00
C823   C     0.32161   0.83228   0.51836   0.00000  Uiso   1.00
C824   C     0.20048   0.69093   0.47749   0.00000  Uiso   1.00
C825   C     0.13252   0.97580   0.52207   0.00000  Uiso   1.00
C826   C     0.20422   0.98152   0.47756   0.00000  Uiso   1.00
H827   H     0.32361   0.83468   0.44712   0.00000  Uiso   1.00
H828   H     0.04349   0.75072   0.41669   0.00000  Uiso   1.00
H829   H     0.00967   0.83103   0.55289   0.00000  Uiso   1.00
H830   H     0.22704   0.71033   0.46087   0.00000  Uiso   1.00
H831   H     0.10593   0.95646   0.53872   0.00000  Uiso   1.00
H832   H     0.24093   0.86361   0.38791   0.00000  Uiso   1.00
H833   H     0.09230   0.80318   0.61210   0.00000  Uiso   1.00
H834   H     0.30578   0.93616   0.50722   0.00000  Uiso   1.00
H835   H     0.12125   0.69856   0.61630   0.00000  Uiso   1.00
H836   H     0.28974   0.91888   0.58592   0.00000  Uiso   1.00
N837   N     0.16665   0.83332   0.61907   0.00000  Uiso   1.00
N838   N     0.16668   0.83334   0.38093   0.00000  Uiso   1.00
O839   O     0.16666   0.77225   0.53821   0.00000  Uiso   1.00
O840   O     0.29383   0.99329   0.44246   0.00000  Uiso   1.00
O841   O     0.28306   0.92174   0.48127   0.00000  Uiso   1.00
O842   O     0.05476   0.74248   0.52108   0.00000  Uiso   1.00
O843   O     0.03622   0.67409   0.55260   0.00000  Uiso   1.00
O844   O     0.10673   0.72371   0.60028   0.00000  Uiso   1.00
O845   O     0.29547   0.90154   0.34133   0.00000  Uiso   1.00
O846   O     0.30228   0.84239   0.62539   0.00000  Uiso   1.00
O847   O     0.25449   0.90805   0.59084   0.00000  Uiso   1.00
O848   O     0.03113   0.82455   0.37461   0.00000  Uiso   1.00
O849   O     0.03763   0.76527   0.65879   0.00000  Uiso   1.00
O850   O     0.16667   0.89442   0.46179   0.00000  Uiso   1.00
O851   O     0.07868   0.75876   0.40927   0.00000  Uiso   1.00
O852   O     0.16666   0.77226   0.46176   0.00000  Uiso   1.00
O853   O     0.16667   0.89441   0.53824   0.00000  Uiso   1.00
O854   O     0.09058   0.83333   0.52928   0.00000  Uiso   1.00
O855   O     0.24275   0.83334   0.47072   0.00000  Uiso   1.00
O856   O     0.09058   0.83334   0.45284   0.00000  Uiso   1.00
O857   O     0.24275   0.83333   0.54716   0.00000  Uiso   1.00
O858   O     0.22682   0.94279   0.40479   0.00000  Uiso   1.00
S859   S     0.25300   0.96015   0.45006   0.00000  Uiso   1.00
S860   S     0.07901   0.70663   0.54823   0.00000  Uiso   1.00
S861   S     0.26664   0.87588   0.63529   0.00000  Uiso   1.00
S862   S     0.06661   0.79091   0.36476   0.00000  Uiso   1.00
Zn863  Zn    0.16667   0.83333   0.55104   0.00000  Uiso   1.00
Zn864  Zn    0.16667   0.83334   0.44896   0.00000  Uiso   1.00
C865   C     0.49767   0.75347   0.49974   0.00000  Uiso   1.00
C866   C     0.46185   0.68521   0.52164   0.00000  Uiso   1.00
C867   C     0.50291   0.95748   0.50011   0.00000  Uiso   1.00
C868   C     0.49694   0.70923   0.49961   0.00000  Uiso   1.00
C869   C     0.54126   0.85065   0.36408   0.00000  Uiso   1.00
C870   C     0.45870   0.81607   0.63593   0.00000  Uiso   1.00
C871   C     0.54171   0.85159   0.65005   0.00000  Uiso   1.00
C872   C     0.45827   0.81509   0.34996   0.00000  Uiso   1.00
C873   C     0.50243   0.91321   0.50024   0.00000  Uiso   1.00
C874   C     0.40040   0.83349   0.48789   0.00000  Uiso   1.00
C875   C     0.59957   0.83281   0.51212   0.00000  Uiso   1.00
C876   C     0.34501   0.83346   0.48164   0.00000  Uiso   1.00
C877   C     0.65495   0.83228   0.51836   0.00000  Uiso   1.00
C878   C     0.53381   0.69093   0.47749   0.00000  Uiso   1.00
C879   C     0.46586   0.97580   0.52207   0.00000  Uiso   1.00
C880   C     0.53755   0.98152   0.47756   0.00000  Uiso   1.00
H881   H     0.65695   0.83468   0.44712   0.00000  Uiso   1.00
H882   H     0.37683   0.75072   0.41669   0.00000  Uiso   1.00
H883   H     0.34300   0.83103   0.55289   0.00000  Uiso   1.00
H884   H     0.56037   0.71033   0.46087   0.00000  Uiso   1.00
H885   H     0.43927   0.95646   0.53872   0.00000  Uiso   1.00
H886   H     0.57427   0.86361   0.38791   0.00000  Uiso   1.00
H887   H     0.42564   0.80318   0.61210   0.00000  Uiso   1.00
H888   H     0.63912   0.93616   0.50722   0.00000  Uiso   1.00
H889   H     0.45458   0.69856   0.61630   0.00000  Uiso   1.00
H890   H     0.62307   0.91888   0.58592   0.00000  Uiso   1.00
N891   N     0.49999   0.83332   0.61907   0.00000  Uiso   1.00
N892   N     0.50001   0.83334   0.38093   0.00000  Uiso   1.00
O893   O     0.50000   0.77225   0.53821   0.00000  Uiso   1.00
O894   O     0.62716   0.99329   0.44246   0.00000  Uiso   1.00
O895   O     0.61640   0.92174   0.48127   0.00000  Uiso   1.00
O896   O     0.38810   0.74248   0.52108   0.00000  Uiso   1.00
O897   O     0.36955   0.67409   0.55260   0.00000  Uiso   1.00
O898   O     0.44006   0.72371   0.60028   0.00000  Uiso   1.00
O899   O     0.62880   0.90154   0.34133   0.00000  Uiso   1.00
O900   O     0.63562   0.84239   0.62539   0.00000  Uiso   1.00
O901   O     0.58783   0.90805   0.59084   0.00000  Uiso   1.00
O902   O     0.36447   0.82455   0.37461   0.00000  Uiso   1.00
O903   O     0.37096   0.76527   0.65879   0.00000  Uiso   1.00
O904   O     0.50000   0.89442   0.46179   0.00000  Uiso   1.00
O905   O     0.41201   0.75876   0.40927   0.00000  Uiso   1.00
O906   O     0.50000   0.77226   0.46176   0.00000  Uiso   1.00
O907   O     0.50000   0.89441   0.53824   0.00000  Uiso   1.00
O908   O     0.42392   0.83333   0.52928   0.00000  Uiso   1.00
O909   O     0.57608   0.83334   0.47072   0.00000  Uiso   1.00
O910   O     0.42392   0.83334   0.45284   0.00000  Uiso   1.00
O911   O     0.57608   0.83333   0.54716   0.00000  Uiso   1.00
O912   O     0.56015   0.94279   0.40479   0.00000  Uiso   1.00
S913   S     0.58633   0.96015   0.45006   0.00000  Uiso   1.00
S914   S     0.41234   0.70663   0.54823   0.00000  Uiso   1.00
S915   S     0.59998   0.87588   0.63529   0.00000  Uiso   1.00
S916   S     0.39995   0.79091   0.36476   0.00000  Uiso   1.00
Zn917  Zn    0.50000   0.83333   0.55104   0.00000  Uiso   1.00
Zn918  Zn    0.50000   0.83334   0.44896   0.00000  Uiso   1.00
C919   C     0.83100   0.75347   0.49974   0.00000  Uiso   1.00
C920   C     0.79518   0.68521   0.52164   0.00000  Uiso   1.00
C921   C     0.83624   0.95748   0.50011   0.00000  Uiso   1.00
C922   C     0.83027   0.70923   0.49961   0.00000  Uiso   1.00
C923   C     0.87460   0.85065   0.36408   0.00000  Uiso   1.00
C924   C     0.79203   0.81607   0.63593   0.00000  Uiso   1.00
C925   C     0.87504   0.85159   0.65005   0.00000  Uiso   1.00
C926   C     0.79160   0.81509   0.34996   0.00000  Uiso   1.00
C927   C     0.83576   0.91321   0.50024   0.00000  Uiso   1.00
C928   C     0.73374   0.83349   0.48789   0.00000  Uiso   1.00
C929   C     0.93291   0.83281   0.51212   0.00000  Uiso   1.00
C930   C     0.67834   0.83346   0.48164   0.00000  Uiso   1.00
C931   C     0.98828   0.83228   0.51836   0.00000  Uiso   1.00
C932   C     0.86714   0.69093   0.47749   0.00000  Uiso   1.00
C933   C     0.79919   0.97580   0.52207   0.00000  Uiso   1.00
C934   C     0.87089   0.98152   0.47756   0.00000  Uiso   1.00
H935   H     0.99028   0.83468   0.44712   0.00000  Uiso   1.00
H936   H     0.71016   0.75072   0.41669   0.00000  Uiso   1.00
H937   H     0.67634   0.83103   0.55289   0.00000  Uiso   1.00
H938   H     0.89371   0.71033   0.46087   0.00000  Uiso   1.00
H939   H     0.77260   0.95646   0.53872   0.00000  Uiso   1.00
H940   H     0.90760   0.86361   0.38791   0.00000  Uiso   1.00
H941   H     0.75897   0.80318   0.61210   0.00000  Uiso   1.00
H942   H     0.97245   0.93616   0.50722   0.00000  Uiso   1.00
H943   H     0.78791   0.69856   0.61630   0.00000  Uiso   1.00
H944   H     0.95640   0.91888   0.58592   0.00000  Uiso   1.00
N945   N     0.83332   0.83332   0.61907   0.00000  Uiso   1.00
N946   N     0.83335   0.83334   0.38093   0.00000  Uiso   1.00
O947   O     0.83333   0.77225   0.53821   0.00000  Uiso   1.00
O948   O     0.96049   0.99329   0.44246   0.00000  Uiso   1.00
O949   O     0.94973   0.92174   0.48127   0.00000  Uiso   1.00
O950   O     0.72143   0.74248   0.52108   0.00000  Uiso   1.00
O951   O     0.70288   0.67409   0.55260   0.00000  Uiso   1.00
O952   O     0.77340   0.72371   0.60028   0.00000  Uiso   1.00
O953   O     0.96213   0.90154   0.34133   0.00000  Uiso   1.00
O954   O     0.96895   0.84239   0.62539   0.00000  Uiso   1.00
O955   O     0.92116   0.90805   0.59084   0.00000  Uiso   1.00
O956   O     0.69780   0.82455   0.37461   0.00000  Uiso   1.00
O957   O     0.70430   0.76527   0.65879   0.00000  Uiso   1.00
O958   O     0.83334   0.89442   0.46179   0.00000  Uiso   1.00
O959   O     0.74535   0.75876   0.40927   0.00000  Uiso   1.00
O960   O     0.83333   0.77226   0.46176   0.00000  Uiso   1.00
O961   O     0.83334   0.89441   0.53824   0.00000  Uiso   1.00
O962   O     0.75725   0.83333   0.52928   0.00000  Uiso   1.00
O963   O     0.90942   0.83334   0.47072   0.00000  Uiso   1.00
O964   O     0.75725   0.83334   0.45284   0.00000  Uiso   1.00
O965   O     0.90942   0.83333   0.54716   0.00000  Uiso   1.00
O966   O     0.89348   0.94279   0.40479   0.00000  Uiso   1.00
S967   S     0.91966   0.96015   0.45006   0.00000  Uiso   1.00
S968   S     0.74567   0.70663   0.54823   0.00000  Uiso   1.00
S969   S     0.93331   0.87588   0.63529   0.00000  Uiso   1.00
S970   S     0.73328   0.79091   0.36476   0.00000  Uiso   1.00
Zn971  Zn    0.83333   0.83333   0.55104   0.00000  Uiso   1.00
Zn972  Zn    0.83333   0.83334   0.44896   0.00000  Uiso   1.00
C973   C     0.16433   0.08681   0.83307   0.00000  Uiso   1.00
C974   C     0.12852   0.01855   0.85498   0.00000  Uiso   1.00
C975   C     0.16957   0.29081   0.83344   0.00000  Uiso   1.00
C976   C     0.16360   0.04257   0.83294   0.00000  Uiso   1.00
C977   C     0.20793   0.18398   0.69741   0.00000  Uiso   1.00
C978   C     0.12536   0.14940   0.96926   0.00000  Uiso   1.00
C979   C     0.20838   0.18493   0.98338   0.00000  Uiso   1.00
C980   C     0.12494   0.14842   0.68329   0.00000  Uiso   1.00
C981   C     0.16910   0.24655   0.83357   0.00000  Uiso   1.00
C982   C     0.06707   0.16682   0.82122   0.00000  Uiso   1.00
C983   C     0.26624   0.16614   0.84545   0.00000  Uiso   1.00
C984   C     0.01168   0.16679   0.81498   0.00000  Uiso   1.00
C985   C     0.32161   0.16561   0.85170   0.00000  Uiso   1.00
C986   C     0.20048   0.02426   0.81082   0.00000  Uiso   1.00
C987   C     0.13252   0.30914   0.85540   0.00000  Uiso   1.00
C988   C     0.20422   0.31485   0.81089   0.00000  Uiso   1.00
H989   H     0.32361   0.16801   0.78045   0.00000  Uiso   1.00
H990   H     0.04349   0.08406   0.75002   0.00000  Uiso   1.00
H991   H     0.00967   0.16436   0.88623   0.00000  Uiso   1.00
H992   H     0.22704   0.04366   0.79420   0.00000  Uiso   1.00
H993   H     0.10593   0.28979   0.87205   0.00000  Uiso   1.00
H994   H     0.24093   0.19695   0.72124   0.00000  Uiso   1.00
H995   H     0.09230   0.13652   0.94543   0.00000  Uiso   1.00
H996   H     0.30578   0.26950   0.84056   0.00000  Uiso   1.00
H997   H     0.12125   0.03189   0.94964   0.00000  Uiso   1.00
H998   H     0.28974   0.25222   0.91925   0.00000  Uiso   1.00
N999   N     0.16665   0.16666   0.95240   0.00000  Uiso   1.00
N1000  N     0.16668   0.16668   0.71427   0.00000  Uiso   1.00
O1001  O     0.16666   0.10558   0.87154   0.00000  Uiso   1.00
O1002  O     0.29383   0.32662   0.77580   0.00000  Uiso   1.00
O1003  O     0.28306   0.25507   0.81461   0.00000  Uiso   1.00
O1004  O     0.05476   0.07582   0.85441   0.00000  Uiso   1.00
O1005  O     0.03622   0.00743   0.88593   0.00000  Uiso   1.00
O1006  O     0.10673   0.05704   0.93361   0.00000  Uiso   1.00
O1007  O     0.29547   0.23487   0.67466   0.00000  Uiso   1.00
O1008  O     0.30228   0.17572   0.95873   0.00000  Uiso   1.00
O1009  O     0.25449   0.24138   0.92417   0.00000  Uiso   1.00
O1010  O     0.03113   0.15788   0.70795   0.00000  Uiso   1.00
O1011  O     0.03763   0.09861   0.99213   0.00000  Uiso   1.00
O1012  O     0.16667   0.22775   0.79513   0.00000  Uiso   1.00
O1013  O     0.07868   0.09209   0.74260   0.00000  Uiso   1.00
O1014  O     0.16666   0.10559   0.79510   0.00000  Uiso   1.00
O1015  O     0.16667   0.22774   0.87157   0.00000  Uiso   1.00
O1016  O     0.09058   0.16666   0.86261   0.00000  Uiso   1.00
O1017  O     0.24275   0.16667   0.80405   0.00000  Uiso   1.00
O1018  O     0.09058   0.16667   0.78617   0.00000  Uiso   1.00
O1019  O     0.24275   0.16666   0.88050   0.00000  Uiso   1.00
O1020  O     0.22682   0.27612   0.73813   0.00000  Uiso   1.00
S1021  S     0.25300   0.29349   0.78339   0.00000  Uiso   1.00
S1022  S     0.07901   0.03996   0.88157   0.00000  Uiso   1.00
S1023  S     0.26664   0.20922   0.96863   0.00000  Uiso   1.00
S1024  S     0.06661   0.12425   0.69810   0.00000  Uiso   1.00
Zn1025 Zn    0.16667   0.16666   0.88437   0.00000  Uiso   1.00
Zn1026 Zn    0.16667   0.16667   0.78229   0.00000  Uiso   1.00
C1027  C     0.49767   0.08681   0.83307   0.00000  Uiso   1.00
C1028  C     0.46185   0.01855   0.85498   0.00000  Uiso   1.00
C1029  C     0.50291   0.29081   0.83344   0.00000  Uiso   1.00
C1030  C     0.49694   0.04257   0.83294   0.00000  Uiso   1.00
C1031  C     0.54126   0.18398   0.69741   0.00000  Uiso   1.00
C1032  C     0.45870   0.14940   0.96926   0.00000  Uiso   1.00
C1033  C     0.54171   0.18493   0.98338   0.00000  Uiso   1.00
C1034  C     0.45827   0.14842   0.68329   0.00000  Uiso   1.00
C1035  C     0.50243   0.24655   0.83357   0.00000  Uiso   1.00
C1036  C     0.40040   0.16682   0.82122   0.00000  Uiso   1.00
C1037  C     0.59957   0.16614   0.84545   0.00000  Uiso   1.00
C1038  C     0.34501   0.16679   0.81498   0.00000  Uiso   1.00
C1039  C     0.65495   0.16561   0.85170   0.00000  Uiso   1.00
C1040  C     0.53381   0.02426   0.81082   0.00000  Uiso   1.00
C1041  C     0.46586   0.30914   0.85540   0.00000  Uiso   1.00
C1042  C     0.53755   0.31485   0.81089   0.00000  Uiso   1.00
H1043  H     0.65695   0.16801   0.78045   0.00000  Uiso   1.00
H1044  H     0.37683   0.08406   0.75002   0.00000  Uiso   1.00
H1045  H     0.34300   0.16436   0.88623   0.00000  Uiso   1.00
H1046  H     0.56037   0.04366   0.79420   0.00000  Uiso   1.00
H1047  H     0.43927   0.28979   0.87205   0.00000  Uiso   1.00
H1048  H     0.57427   0.19695   0.72124   0.00000  Uiso   1.00
H1049  H     0.42564   0.13652   0.94543   0.00000  Uiso   1.00
H1050  H     0.63912   0.26950   0.84056   0.00000  Uiso   1.00
H1051  H     0.45458   0.03189   0.94964   0.00000  Uiso   1.00
H1052  H     0.62307   0.25222   0.91925   0.00000  Uiso   1.00
N1053  N     0.49999   0.16666   0.95240   0.00000  Uiso   1.00
N1054  N     0.50001   0.16668   0.71427   0.00000  Uiso   1.00
O1055  O     0.50000   0.10558   0.87154   0.00000  Uiso   1.00
O1056  O     0.62716   0.32662   0.77580   0.00000  Uiso   1.00
O1057  O     0.61640   0.25507   0.81461   0.00000  Uiso   1.00
O1058  O     0.38810   0.07582   0.85441   0.00000  Uiso   1.00
O1059  O     0.36955   0.00743   0.88593   0.00000  Uiso   1.00
O1060  O     0.44006   0.05704   0.93361   0.00000  Uiso   1.00
O1061  O     0.62880   0.23487   0.67466   0.00000  Uiso   1.00
O1062  O     0.63562   0.17572   0.95873   0.00000  Uiso   1.00
O1063  O     0.58783   0.24138   0.92417   0.00000  Uiso   1.00
O1064  O     0.36447   0.15788   0.70795   0.00000  Uiso   1.00
O1065  O     0.37096   0.09861   0.99213   0.00000  Uiso   1.00
O1066  O     0.50000   0.22775   0.79513   0.00000  Uiso   1.00
O1067  O     0.41201   0.09209   0.74260   0.00000  Uiso   1.00
O1068  O     0.50000   0.10559   0.79510   0.00000  Uiso   1.00
O1069  O     0.50000   0.22774   0.87157   0.00000  Uiso   1.00
O1070  O     0.42392   0.16666   0.86261   0.00000  Uiso   1.00
O1071  O     0.57608   0.16667   0.80405   0.00000  Uiso   1.00
O1072  O     0.42392   0.16667   0.78617   0.00000  Uiso   1.00
O1073  O     0.57608   0.16666   0.88050   0.00000  Uiso   1.00
O1074  O     0.56015   0.27612   0.73813   0.00000  Uiso   1.00
S1075  S     0.58633   0.29349   0.78339   0.00000  Uiso   1.00
S1076  S     0.41234   0.03996   0.88157   0.00000  Uiso   1.00
S1077  S     0.59998   0.20922   0.96863   0.00000  Uiso   1.00
S1078  S     0.39995   0.12425   0.69810   0.00000  Uiso   1.00
Zn1079 Zn    0.50000   0.16666   0.88437   0.00000  Uiso   1.00
Zn1080 Zn    0.50000   0.16667   0.78229   0.00000  Uiso   1.00
C1081  C     0.83100   0.08681   0.83307   0.00000  Uiso   1.00
C1082  C     0.79518   0.01855   0.85498   0.00000  Uiso   1.00
C1083  C     0.83624   0.29081   0.83344   0.00000  Uiso   1.00
C1084  C     0.83027   0.04257   0.83294   0.00000  Uiso   1.00
C1085  C     0.87460   0.18398   0.69741   0.00000  Uiso   1.00
C1086  C     0.79203   0.14940   0.96926   0.00000  Uiso   1.00
C1087  C     0.87504   0.18493   0.98338   0.00000  Uiso   1.00
C1088  C     0.79160   0.14842   0.68329   0.00000  Uiso   1.00
C1089  C     0.83576   0.24655   0.83357   0.00000  Uiso   1.00
C1090  C     0.73374   0.16682   0.82122   0.00000  Uiso   1.00
C1091  C     0.93291   0.16614   0.84545   0.00000  Uiso   1.00
C1092  C     0.67834   0.16679   0.81498   0.00000  Uiso   1.00
C1093  C     0.98828   0.16561   0.85170   0.00000  Uiso   1.00
C1094  C     0.86714   0.02426   0.81082   0.00000  Uiso   1.00
C1095  C     0.79919   0.30914   0.85540   0.00000  Uiso   1.00
C1096  C     0.87089   0.31485   0.81089   0.00000  Uiso   1.00
H1097  H     0.99028   0.16801   0.78045   0.00000  Uiso   1.00
H1098  H     0.71016   0.08406   0.75002   0.00000  Uiso   1.00
H1099  H     0.67634   0.16436   0.88623   0.00000  Uiso   1.00
H1100  H     0.89371   0.04366   0.79420   0.00000  Uiso   1.00
H1101  H     0.77260   0.28979   0.87205   0.00000  Uiso   1.00
H1102  H     0.90760   0.19695   0.72124   0.00000  Uiso   1.00
H1103  H     0.75897   0.13652   0.94543   0.00000  Uiso   1.00
H1104  H     0.97245   0.26950   0.84056   0.00000  Uiso   1.00
H1105  H     0.78791   0.03189   0.94964   0.00000  Uiso   1.00
H1106  H     0.95640   0.25222   0.91925   0.00000  Uiso   1.00
N1107  N     0.83332   0.16666   0.95240   0.00000  Uiso   1.00
N1108  N     0.83335   0.16668   0.71427   0.00000  Uiso   1.00
O1109  O     0.83333   0.10558   0.87154   0.00000  Uiso   1.00
O1110  O     0.96049   0.32662   0.77580   0.00000  Uiso   1.00
O1111  O     0.94973   0.25507   0.81461   0.00000  Uiso   1.00
O1112  O     0.72143   0.07582   0.85441   0.00000  Uiso   1.00
O1113  O     0.70288   0.00743   0.88593   0.00000  Uiso   1.00
O1114  O     0.77340   0.05704   0.93361   0.00000  Uiso   1.00
O1115  O     0.96213   0.23487   0.67466   0.00000  Uiso   1.00
O1116  O     0.96895   0.17572   0.95873   0.00000  Uiso   1.00
O1117  O     0.92116   0.24138   0.92417   0.00000  Uiso   1.00
O1118  O     0.69780   0.15788   0.70795   0.00000  Uiso   1.00
O1119  O     0.70430   0.09861   0.99213   0.00000  Uiso   1.00
O1120  O     0.83334   0.22775   0.79513   0.00000  Uiso   1.00
O1121  O     0.74535   0.09209   0.74260   0.00000  Uiso   1.00
O1122  O     0.83333   0.10559   0.79510   0.00000  Uiso   1.00
O1123  O     0.83334   0.22774   0.87157   0.00000  Uiso   1.00
O1124  O     0.75725   0.16666   0.86261   0.00000  Uiso   1.00
O1125  O     0.90942   0.16667   0.80405   0.00000  Uiso   1.00
O1126  O     0.75725   0.16667   0.78617   0.00000  Uiso   1.00
O1127  O     0.90942   0.16666   0.88050   0.00000  Uiso   1.00
O1128  O     0.89348   0.27612   0.73813   0.00000  Uiso   1.00
S1129  S     0.91966   0.29349   0.78339   0.00000  Uiso   1.00
S1130  S     0.74567   0.03996   0.88157   0.00000  Uiso   1.00
S1131  S     0.93331   0.20922   0.96863   0.00000  Uiso   1.00
S1132  S     0.73328   0.12425   0.69810   0.00000  Uiso   1.00
Zn1133 Zn    0.83333   0.16666   0.88437   0.00000  Uiso   1.00
Zn1134 Zn    0.83333   0.16667   0.78229   0.00000  Uiso   1.00
C1135  C     0.16433   0.42014   0.83307   0.00000  Uiso   1.00
C1136  C     0.12852   0.35188   0.85498   0.00000  Uiso   1.00
C1137  C     0.16957   0.62415   0.83344   0.00000  Uiso   1.00
C1138  C     0.16360   0.37590   0.83294   0.00000  Uiso   1.00
C1139  C     0.20793   0.51732   0.69741   0.00000  Uiso   1.00
C1140  C     0.12536   0.48274   0.96926   0.00000  Uiso   1.00
C1141  C     0.20838   0.51826   0.98338   0.00000  Uiso   1.00
C1142  C     0.12494   0.48176   0.68329   0.00000  Uiso   1.00
C1143  C     0.16910   0.57988   0.83357   0.00000  Uiso   1.00
C1144  C     0.06707   0.50016   0.82122   0.00000  Uiso   1.00
C1145  C     0.26624   0.49948   0.84545   0.00000  Uiso   1.00
C1146  C     0.01168   0.50012   0.81498   0.00000  Uiso   1.00
C1147  C     0.32161   0.49894   0.85170   0.00000  Uiso   1.00
C1148  C     0.20048   0.35760   0.81082   0.00000  Uiso   1.00
C1149  C     0.13252   0.64247   0.85540   0.00000  Uiso   1.00
C1150  C     0.20422   0.64818   0.81089   0.00000  Uiso   1.00
H1151  H     0.32361   0.50135   0.78045   0.00000  Uiso   1.00
H1152  H     0.04349   0.41739   0.75002   0.00000  Uiso   1.00
H1153  H     0.00967   0.49770   0.88623   0.00000  Uiso   1.00
H1154  H     0.22704   0.37699   0.79420   0.00000  Uiso   1.00
H1155  H     0.10593   0.62312   0.87205   0.00000  Uiso   1.00
H1156  H     0.24093   0.53028   0.72124   0.00000  Uiso   1.00
H1157  H     0.09230   0.46985   0.94543   0.00000  Uiso   1.00
H1158  H     0.30578   0.60283   0.84056   0.00000  Uiso   1.00
H1159  H     0.12125   0.36523   0.94964   0.00000  Uiso   1.00
H1160  H     0.28974   0.58555   0.91925   0.00000  Uiso   1.00
N1161  N     0.16665   0.49999   0.95240   0.00000  Uiso   1.00
N1162  N     0.16668   0.50001   0.71427   0.00000  Uiso   1.00
O1163  O     0.16666   0.43892   0.87154   0.00000  Uiso   1.00
O1164  O     0.29383   0.65996   0.77580   0.00000  Uiso   1.00
O1165  O     0.28306   0.58841   0.81461   0.00000  Uiso   1.00
O1166  O     0.05476   0.40915   0.85441   0.00000  Uiso   1.00
O1167  O     0.03622   0.34076   0.88593   0.00000  Uiso   1.00
O1168  O     0.10673   0.39037   0.93361   0.00000  Uiso   1.00
O1169  O     0.29547   0.56820   0.67466   0.00000  Uiso   1.00
O1170  O     0.30228   0.50906   0.95873   0.00000  Uiso   1.00
O1171  O     0.25449   0.57472   0.92417   0.00000  Uiso   1.00
O1172  O     0.03113   0.49122   0.70795   0.00000  Uiso   1.00
O1173  O     0.03763   0.43194   0.99213   0.00000  Uiso   1.00
O1174  O     0.16667   0.56108   0.79513   0.00000  Uiso   1.00
O1175  O     0.07868   0.42543   0.74260   0.00000  Uiso   1.00
O1176  O     0.16666   0.43893   0.79510   0.00000  Uiso   1.00
O1177  O     0.16667   0.56107   0.87157   0.00000  Uiso   1.00
O1178  O     0.09058   0.50000   0.86261   0.00000  Uiso   1.00
O1179  O     0.24275   0.50000   0.80405   0.00000  Uiso   1.00
O1180  O     0.09058   0.50000   0.78617   0.00000  Uiso   1.00
O1181  O     0.24275   0.50000   0.88050   0.00000  Uiso   1.00
O1182  O     0.22682   0.60945   0.73813   0.00000  Uiso   1.00
S1183  S     0.25300   0.62682   0.78339   0.00000  Uiso   1.00
S1184  S     0.07901   0.37329   0.88157   0.00000  Uiso   1.00
S1185  S     0.26664   0.54255   0.96863   0.00000  Uiso   1.00
S1186  S     0.06661   0.45758   0.69810   0.00000  Uiso   1.00
Zn1187 Zn    0.16667   0.49999   0.88437   0.00000  Uiso   1.00
Zn1188 Zn    0.16667   0.50001   0.78229   0.00000  Uiso   1.00
C1189  C     0.49767   0.42014   0.83307   0.00000  Uiso   1.00
C1190  C     0.46185   0.35188   0.85498   0.00000  Uiso   1.00
C1191  C     0.50291   0.62415   0.83344   0.00000  Uiso   1.00
C1192  C     0.49694   0.37590   0.83294   0.00000  Uiso   1.00
C1193  C     0.54126   0.51732   0.69741   0.00000  Uiso   1.00
C1194  C     0.45870   0.48274   0.96926   0.00000  Uiso   1.00
C1195  C     0.54171   0.51826   0.98338   0.00000  Uiso   1.00
C1196  C     0.45827   0.48176   0.68329   0.00000  Uiso   1.00
C1197  C     0.50243   0.57988   0.83357   0.00000  Uiso   1.00
C1198  C     0.40040   0.50016   0.82122   0.00000  Uiso   1.00
C1199  C     0.59957   0.49948   0.84545   0.00000  Uiso   1.00
C1200  C     0.34501   0.50012   0.81498   0.00000  Uiso   1.00
C1201  C     0.65495   0.49894   0.85170   0.00000  Uiso   1.00
C1202  C     0.53381   0.35760   0.81082   0.00000  Uiso   1.00
C1203  C     0.46586   0.64247   0.85540   0.00000  Uiso   1.00
C1204  C     0.53755   0.64818   0.81089   0.00000  Uiso   1.00
H1205  H     0.65695   0.50135   0.78045   0.00000  Uiso   1.00
H1206  H     0.37683   0.41739   0.75002   0.00000  Uiso   1.00
H1207  H     0.34300   0.49770   0.88623   0.00000  Uiso   1.00
H1208  H     0.56037   0.37699   0.79420   0.00000  Uiso   1.00
H1209  H     0.43927   0.62312   0.87205   0.00000  Uiso   1.00
H1210  H     0.57427   0.53028   0.72124   0.00000  Uiso   1.00
H1211  H     0.42564   0.46985   0.94543   0.00000  Uiso   1.00
H1212  H     0.63912   0.60283   0.84056   0.00000  Uiso   1.00
H1213  H     0.45458   0.36523   0.94964   0.00000  Uiso   1.00
H1214  H     0.62307   0.58555   0.91925   0.00000  Uiso   1.00
N1215  N     0.49999   0.49999   0.95240   0.00000  Uiso   1.00
N1216  N     0.50001   0.50001   0.71427   0.00000  Uiso   1.00
O1217  O     0.50000   0.43892   0.87154   0.00000  Uiso   1.00
O1218  O     0.62716   0.65996   0.77580   0.00000  Uiso   1.00
O1219  O     0.61640   0.58841   0.81461   0.00000  Uiso   1.00
O1220  O     0.38810   0.40915   0.85441   0.00000  Uiso   1.00
O1221  O     0.36955   0.34076   0.88593   0.00000  Uiso   1.00
O1222  O     0.44006   0.39037   0.93361   0.00000  Uiso   1.00
O1223  O     0.62880   0.56820   0.67466   0.00000  Uiso   1.00
O1224  O     0.63562   0.50906   0.95873   0.00000  Uiso   1.00
O1225  O     0.58783   0.57472   0.92417   0.00000  Uiso   1.00
O1226  O     0.36447   0.49122   0.70795   0.00000  Uiso   1.00
O1227  O     0.37096   0.43194   0.99213   0.00000  Uiso   1.00
O1228  O     0.50000   0.56108   0.79513   0.00000  Uiso   1.00
O1229  O     0.41201   0.42543   0.74260   0.00000  Uiso   1.00
O1230  O     0.50000   0.43893   0.79510   0.00000  Uiso   1.00
O1231  O     0.50000   0.56107   0.87157   0.00000  Uiso   1.00
O1232  O     0.42392   0.50000   0.86261   0.00000  Uiso   1.00
O1233  O     0.57608   0.50000   0.80405   0.00000  Uiso   1.00
O1234  O     0.42392   0.50000   0.78617   0.00000  Uiso   1.00
O1235  O     0.57608   0.50000   0.88050   0.00000  Uiso   1.00
O1236  O     0.56015   0.60945   0.73813   0.00000  Uiso   1.00
S1237  S     0.58633   0.62682   0.78339   0.00000  Uiso   1.00
S1238  S     0.41234   0.37329   0.88157   0.00000  Uiso   1.00
S1239  S     0.59998   0.54255   0.96863   0.00000  Uiso   1.00
S1240  S     0.39995   0.45758   0.69810   0.00000  Uiso   1.00
Zn1241 Zn    0.50000   0.49999   0.88437   0.00000  Uiso   1.00
Zn1242 Zn    0.50000   0.50001   0.78229   0.00000  Uiso   1.00
C1243  C     0.83100   0.42014   0.83307   0.00000  Uiso   1.00
C1244  C     0.79518   0.35188   0.85498   0.00000  Uiso   1.00
C1245  C     0.83624   0.62415   0.83344   0.00000  Uiso   1.00
C1246  C     0.83027   0.37590   0.83294   0.00000  Uiso   1.00
C1247  C     0.87460   0.51732   0.69741   0.00000  Uiso   1.00
C1248  C     0.79203   0.48274   0.96926   0.00000  Uiso   1.00
C1249  C     0.87504   0.51826   0.98338   0.00000  Uiso   1.00
C1250  C     0.79160   0.48176   0.68329   0.00000  Uiso   1.00
C1251  C     0.83576   0.57988   0.83357   0.00000  Uiso   1.00
C1252  C     0.73374   0.50016   0.82122   0.00000  Uiso   1.00
C1253  C     0.93291   0.49948   0.84545   0.00000  Uiso   1.00
C1254  C     0.67834   0.50012   0.81498   0.00000  Uiso   1.00
C1255  C     0.98828   0.49894   0.85170   0.00000  Uiso   1.00
C1256  C     0.86714   0.35760   0.81082   0.00000  Uiso   1.00
C1257  C     0.79919   0.64247   0.85540   0.00000  Uiso   1.00
C1258  C     0.87089   0.64818   0.81089   0.00000  Uiso   1.00
H1259  H     0.99028   0.50135   0.78045   0.00000  Uiso   1.00
H1260  H     0.71016   0.41739   0.75002   0.00000  Uiso   1.00
H1261  H     0.67634   0.49770   0.88623   0.00000  Uiso   1.00
H1262  H     0.89371   0.37699   0.79420   0.00000  Uiso   1.00
H1263  H     0.77260   0.62312   0.87205   0.00000  Uiso   1.00
H1264  H     0.90760   0.53028   0.72124   0.00000  Uiso   1.00
H1265  H     0.75897   0.46985   0.94543   0.00000  Uiso   1.00
H1266  H     0.97245   0.60283   0.84056   0.00000  Uiso   1.00
H1267  H     0.78791   0.36523   0.94964   0.00000  Uiso   1.00
H1268  H     0.95640   0.58555   0.91925   0.00000  Uiso   1.00
N1269  N     0.83332   0.49999   0.95240   0.00000  Uiso   1.00
N1270  N     0.83335   0.50001   0.71427   0.00000  Uiso   1.00
O1271  O     0.83333   0.43892   0.87154   0.00000  Uiso   1.00
O1272  O     0.96049   0.65996   0.77580   0.00000  Uiso   1.00
O1273  O     0.94973   0.58841   0.81461   0.00000  Uiso   1.00
O1274  O     0.72143   0.40915   0.85441   0.00000  Uiso   1.00
O1275  O     0.70288   0.34076   0.88593   0.00000  Uiso   1.00
O1276  O     0.77340   0.39037   0.93361   0.00000  Uiso   1.00
O1277  O     0.96213   0.56820   0.67466   0.00000  Uiso   1.00
O1278  O     0.96895   0.50906   0.95873   0.00000  Uiso   1.00
O1279  O     0.92116   0.57472   0.92417   0.00000  Uiso   1.00
O1280  O     0.69780   0.49122   0.70795   0.00000  Uiso   1.00
O1281  O     0.70430   0.43194   0.99213   0.00000  Uiso   1.00
O1282  O     0.83334   0.56108   0.79513   0.00000  Uiso   1.00
O1283  O     0.74535   0.42543   0.74260   0.00000  Uiso   1.00
O1284  O     0.83333   0.43893   0.79510   0.00000  Uiso   1.00
O1285  O     0.83334   0.56107   0.87157   0.00000  Uiso   1.00
O1286  O     0.75725   0.50000   0.86261   0.00000  Uiso   1.00
O1287  O     0.90942   0.50000   0.80405   0.00000  Uiso   1.00
O1288  O     0.75725   0.50000   0.78617   0.00000  Uiso   1.00
O1289  O     0.90942   0.50000   0.88050   0.00000  Uiso   1.00
O1290  O     0.89348   0.60945   0.73813   0.00000  Uiso   1.00
S1291  S     0.91966   0.62682   0.78339   0.00000  Uiso   1.00
S1292  S     0.74567   0.37329   0.88157   0.00000  Uiso   1.00
S1293  S     0.93331   0.54255   0.96863   0.00000  Uiso   1.00
S1294  S     0.73328   0.45758   0.69810   0.00000  Uiso   1.00
Zn1295 Zn    0.83333   0.49999   0.88437   0.00000  Uiso   1.00
Zn1296 Zn    0.83333   0.50001   0.78229   0.00000  Uiso   1.00
C1297  C     0.16433   0.75347   0.83307   0.00000  Uiso   1.00
C1298  C     0.12852   0.68521   0.85498   0.00000  Uiso   1.00
C1299  C     0.16957   0.95748   0.83344   0.00000  Uiso   1.00
C1300  C     0.16360   0.70923   0.83294   0.00000  Uiso   1.00
C1301  C     0.20793   0.85065   0.69741   0.00000  Uiso   1.00
C1302  C     0.12536   0.81607   0.96926   0.00000  Uiso   1.00
C1303  C     0.20838   0.85159   0.98338   0.00000  Uiso   1.00
C1304  C     0.12494   0.81509   0.68329   0.00000  Uiso   1.00
C1305  C     0.16910   0.91321   0.83357   0.00000  Uiso   1.00
C1306  C     0.06707   0.83349   0.82122   0.00000  Uiso   1.00
C1307  C     0.26624   0.83281   0.84545   0.00000  Uiso   1.00
C1308  C     0.01168   0.83346   0.81498   0.00000  Uiso   1.00
C1309  C     0.32161   0.83228   0.85170   0.00000  Uiso   1.00
C1310  C     0.20048   0.69093   0.81082   0.00000  Uiso   1.00
C1311  C     0.13252   0.97580   0.85540   0.00000  Uiso   1.00
C1312  C     0.20422   0.98152   0.81089   0.00000  Uiso   1.00
H1313  H     0.32361   0.83468   0.78045   0.00000  Uiso   1.00
H1314  H     0.04349   0.75072   0.75002   0.00000  Uiso   1.00
H1315  H     0.00967   0.83103   0.88623   0.00000  Uiso   1.00
H1316  H     0.22704   0.71033   0.79420   0.00000  Uiso   1.00
H1317  H     0.10593   0.95646   0.87205   0.00000  Uiso   1.00
H1318  H     0.24093   0.86361   0.72124   0.00000  Uiso   1.00
H1319  H     0.09230   0.80318   0.94543   0.00000  Uiso   1.00
H1320  H     0.30578   0.93616   0.84056   0.00000  Uiso   1.00
H1321  H     0.12125   0.69856   0.94964   0.00000  Uiso   1.00
H1322  H     0.28974   0.91888   0.91925   0.00000  Uiso   1.00
N1323  N     0.16665   0.83332   0.95240   0.00000  Uiso   1.00
N1324  N     0.16668   0.83334   0.71427   0.00000  Uiso   1.00
O1325  O     0.16666   0.77225   0.87154   0.00000  Uiso   1.00
O1326  O     0.29383   0.99329   0.77580   0.00000  Uiso   1.00
O1327  O     0.28306   0.92174   0.81461   0.00000  Uiso   1.00
O1328  O     0.05476   0.74248   0.85441   0.00000  Uiso   1.00
O1329  O     0.03622   0.67409   0.88593   0.00000  Uiso   1.00
O1330  O     0.10673   0.72371   0.93361   0.00000  Uiso   1.00
O1331  O     0.29547   0.90154   0.67466   0.00000  Uiso   1.00
O1332  O     0.30228   0.84239   0.95873   0.00000  Uiso   1.00
O1333  O     0.25449   0.90805   0.92417   0.00000  Uiso   1.00
O1334  O     0.03113   0.82455   0.70795   0.00000  Uiso   1.00
O1335  O     0.03763   0.76527   0.99213   0.00000  Uiso   1.00
O1336  O     0.16667   0.89442   0.79513   0.00000  Uiso   1.00
O1337  O     0.07868   0.75876   0.74260   0.00000  Uiso   1.00
O1338  O     0.16666   0.77226   0.79510   0.00000  Uiso   1.00
O1339  O     0.16667   0.89441   0.87157   0.00000  Uiso   1.00
O1340  O     0.09058   0.83333   0.86261   0.00000  Uiso   1.00
O1341  O     0.24275   0.83334   0.80405   0.00000  Uiso   1.00
O1342  O     0.09058   0.83334   0.78617   0.00000  Uiso   1.00
O1343  O     0.24275   0.83333   0.88050   0.00000  Uiso   1.00
O1344  O     0.22682   0.94279   0.73813   0.00000  Uiso   1.00
S1345  S     0.25300   0.96015   0.78339   0.00000  Uiso   1.00
S1346  S     0.07901   0.70663   0.88157   0.00000  Uiso   1.00
S1347  S     0.26664   0.87588   0.96863   0.00000  Uiso   1.00
S1348  S     0.06661   0.79091   0.69810   0.00000  Uiso   1.00
Zn1349 Zn    0.16667   0.83333   0.88437   0.00000  Uiso   1.00
Zn1350 Zn    0.16667   0.83334   0.78229   0.00000  Uiso   1.00
C1351  C     0.49767   0.75347   0.83307   0.00000  Uiso   1.00
C1352  C     0.46185   0.68521   0.85498   0.00000  Uiso   1.00
C1353  C     0.50291   0.95748   0.83344   0.00000  Uiso   1.00
C1354  C     0.49694   0.70923   0.83294   0.00000  Uiso   1.00
C1355  C     0.54126   0.85065   0.69741   0.00000  Uiso   1.00
C1356  C     0.45870   0.81607   0.96926   0.00000  Uiso   1.00
C1357  C     0.54171   0.85159   0.98338   0.00000  Uiso   1.00
C1358  C     0.45827   0.81509   0.68329   0.00000  Uiso   1.00
C1359  C     0.50243   0.91321   0.83357   0.00000  Uiso   1.00
C1360  C     0.40040   0.83349   0.82122   0.00000  Uiso   1.00
C1361  C     0.59957   0.83281   0.84545   0.00000  Uiso   1.00
C1362  C     0.34501   0.83346   0.81498   0.00000  Uiso   1.00
C1363  C     0.65495   0.83228   0.85170   0.00000  Uiso   1.00
C1364  C     0.53381   0.69093   0.81082   0.00000  Uiso   1.00
C1365  C     0.46586   0.97580   0.85540   0.00000  Uiso   1.00
C1366  C     0.53755   0.98152   0.81089   0.00000  Uiso   1.00
H1367  H     0.65695   0.83468   0.78045   0.00000  Uiso   1.00
H1368  H     0.37683   0.75072   0.75002   0.00000  Uiso   1.00
H1369  H     0.34300   0.83103   0.88623   0.00000  Uiso   1.00
H1370  H     0.56037   0.71033   0.79420   0.00000  Uiso   1.00
H1371  H     0.43927   0.95646   0.87205   0.00000  Uiso   1.00
H1372  H     0.57427   0.86361   0.72124   0.00000  Uiso   1.00
H1373  H     0.42564   0.80318   0.94543   0.00000  Uiso   1.00
H1374  H     0.63912   0.93616   0.84056   0.00000  Uiso   1.00
H1375  H     0.45458   0.69856   0.94964   0.00000  Uiso   1.00
H1376  H     0.62307   0.91888   0.91925   0.00000  Uiso   1.00
N1377  N     0.49999   0.83332   0.95240   0.00000  Uiso   1.00
N1378  N     0.50001   0.83334   0.71427   0.00000  Uiso   1.00
O1379  O     0.50000   0.77225   0.87154   0.00000  Uiso   1.00
O1380  O     0.62716   0.99329   0.77580   0.00000  Uiso   1.00
O1381  O     0.61640   0.92174   0.81461   0.00000  Uiso   1.00
O1382  O     0.38810   0.74248   0.85441   0.00000  Uiso   1.00
O1383  O     0.36955   0.67409   0.88593   0.00000  Uiso   1.00
O1384  O     0.44006   0.72371   0.93361   0.00000  Uiso   1.00
O1385  O     0.62880   0.90154   0.67466   0.00000  Uiso   1.00
O1386  O     0.63562   0.84239   0.95873   0.00000  Uiso   1.00
O1387  O     0.58783   0.90805   0.92417   0.00000  Uiso   1.00
O1388  O     0.36447   0.82455   0.70795   0.00000  Uiso   1.00
O1389  O     0.37096   0.76527   0.99213   0.00000  Uiso   1.00
O1390  O     0.50000   0.89442   0.79513   0.00000  Uiso   1.00
O1391  O     0.41201   0.75876   0.74260   0.00000  Uiso   1.00
O1392  O     0.50000   0.77226   0.79510   0.00000  Uiso   1.00
O1393  O     0.50000   0.89441   0.87157   0.00000  Uiso   1.00
O1394  O     0.42392   0.83333   0.86261   0.00000  Uiso   1.00
O1395  O     0.57608   0.83334   0.80405   0.00000  Uiso   1.00
O1396  O     0.42392   0.83334   0.78617   0.00000  Uiso   1.00
O1397  O     0.57608   0.83333   0.88050   0.00000  Uiso   1.00
O1398  O     0.56015   0.94279   0.73813   0.00000  Uiso   1.00
S1399  S     0.58633   0.96015   0.78339   0.00000  Uiso   1.00
S1400  S     0.41234   0.70663   0.88157   0.00000  Uiso   1.00
S1401  S     0.59998   0.87588   0.96863   0.00000  Uiso   1.00
S1402  S     0.39995   0.79091   0.69810   0.00000  Uiso   1.00
Zn1403 Zn    0.50000   0.83333   0.88437   0.00000  Uiso   1.00
Zn1404 Zn    0.50000   0.83334   0.78229   0.00000  Uiso   1.00
C1405  C     0.83100   0.75347   0.83307   0.00000  Uiso   1.00
C1406  C     0.79518   0.68521   0.85498   0.00000  Uiso   1.00
C1407  C     0.83624   0.95748   0.83344   0.00000  Uiso   1.00
C1408  C     0.83027   0.70923   0.83294   0.00000  Uiso   1.00
C1409  C     0.87460   0.85065   0.69741   0.00000  Uiso   1.00
C1410  C     0.79203   0.81607   0.96926   0.00000  Uiso   1.00
C1411  C     0.87504   0.85159   0.98338   0.00000  Uiso   1.00
C1412  C     0.79160   0.81509   0.68329   0.00000  Uiso   1.00
C1413  C     0.83576   0.91321   0.83357   0.00000  Uiso   1.00
C1414  C     0.73374   0.83349   0.82122   0.00000  Uiso   1.00
C1415  C     0.93291   0.83281   0.84545   0.00000  Uiso   1.00
C1416  C     0.67834   0.83346   0.81498   0.00000  Uiso   1.00
C1417  C     0.98828   0.83228   0.85170   0.00000  Uiso   1.00
C1418  C     0.86714   0.69093   0.81082   0.00000  Uiso   1.00
C1419  C     0.79919   0.97580   0.85540   0.00000  Uiso   1.00
C1420  C     0.87089   0.98152   0.81089   0.00000  Uiso   1.00
H1421  H     0.99028   0.83468   0.78045   0.00000  Uiso   1.00
H1422  H     0.71016   0.75072   0.75002   0.00000  Uiso   1.00
H1423  H     0.67634   0.83103   0.88623   0.00000  Uiso   1.00
H1424  H     0.89371   0.71033   0.79420   0.00000  Uiso   1.00
H1425  H     0.77260   0.95646   0.87205   0.00000  Uiso   1.00
H1426  H     0.90760   0.86361   0.72124   0.00000  Uiso   1.00
H1427  H     0.75897   0.80318   0.94543   0.00000  Uiso   1.00
H1428  H     0.97245   0.93616   0.84056   0.00000  Uiso   1.00
H1429  H     0.78791   0.69856   0.94964   0.00000  Uiso   1.00
H1430  H     0.95640   0.91888   0.91925   0.00000  Uiso   1.00
N1431  N     0.83332   0.83332   0.95240   0.00000  Uiso   1.00
N1432  N     0.83335   0.83334   0.71427   0.00000  Uiso   1.00
O1433  O     0.83333   0.77225   0.87154   0.00000  Uiso   1.00
O1434  O     0.96049   0.99329   0.77580   0.00000  Uiso   1.00
O1435  O     0.94973   0.92174   0.81461   0.00000  Uiso   1.00
O1436  O     0.72143   0.74248   0.85441   0.00000  Uiso   1.00
O1437  O     0.70288   0.67409   0.88593   0.00000  Uiso   1.00
O1438  O     0.77340   0.72371   0.93361   0.00000  Uiso   1.00
O1439  O     0.96213   0.90154   0.67466   0.00000  Uiso   1.00
O1440  O     0.96895   0.84239   0.95873   0.00000  Uiso   1.00
O1441  O     0.92116   0.90805   0.92417   0.00000  Uiso   1.00
O1442  O     0.69780   0.82455   0.70795   0.00000  Uiso   1.00
O1443  O     0.70430   0.76527   0.99213   0.00000  Uiso   1.00
O1444  O     0.83334   0.89442   0.79513   0.00000  Uiso   1.00
O1445  O     0.74535   0.75876   0.74260   0.00000  Uiso   1.00
O1446  O     0.83333   0.77226   0.79510   0.00000  Uiso   1.00
O1447  O     0.83334   0.89441   0.87157   0.00000  Uiso   1.00
O1448  O     0.75725   0.83333   0.86261   0.00000  Uiso   1.00
O1449  O     0.90942   0.83334   0.80405   0.00000  Uiso   1.00
O1450  O     0.75725   0.83334   0.78617   0.00000  Uiso   1.00
O1451  O     0.90942   0.83333   0.88050   0.00000  Uiso   1.00
O1452  O     0.89348   0.94279   0.73813   0.00000  Uiso   1.00
S1453  S     0.91966   0.96015   0.78339   0.00000  Uiso   1.00
S1454  S     0.74567   0.70663   0.88157   0.00000  Uiso   1.00
S1455  S     0.93331   0.87588   0.96863   0.00000  Uiso   1.00
S1456  S     0.73328   0.79091   0.69810   0.00000  Uiso   1.00
Zn1457 Zn    0.83333   0.83333   0.88437   0.00000  Uiso   1.00
Zn1458 Zn    0.83333   0.83334   0.78229   0.00000  Uiso   1.00
loop_
_geom_bond_atom_site_label_1
_geom_bond_atom_site_label_2
_geom_bond_distance
_geom_bond_site_symmetry_2
_ccdc_geom_bond_type
C1     C4      1.415   .     S
C1     O29     1.289   .     A
C1     O42     1.293   .     A
C2     C4      1.407   .     A
C2     S50     1.772   .     S
C2     C339    1.376   1_545 S
C3     C9      1.416   .     S
C3     C15     1.393   .     A
C3     C16     1.408   .     A
C4     C14     1.392   .     A
C5     N28     1.347   .     A
C5     H22     1.080   .     S
C5     C979    1.418   1_554 S
C6     N27     1.348   .     A
C6     H23     1.080   .     S
C6     C494    1.418   .     S
C7     N27     1.401   .     A
C7     S51     1.779   .     S
C7     C491    1.418   .     S
C8     S52     1.780   .     S
C8     N28     1.401   .     A
C8     C978    1.418   1_554 S
C9     O43     1.295   .     A
C9     O40     1.288   .     A
C10    O46     1.295   .     A
C10    C12     1.405   .     S
C10    O44     1.282   .     A
C11    O47     1.295   .     A
C11    C13     1.405   .     S
C11    O45     1.282   .     A
C12    C121    1.338   1_455 S
C12    H125    1.086   1_455 S
C13    C66     1.338   .     S
C13    H73     1.086   .     S
C14    H20     1.085   .     S
C14    C340    1.375   1_545 S
C15    H21     1.085   .     S
C15    C164    1.376   .     S
C16    S49     1.772   .     S
C16    C176    1.375   .     S
H17    C66     1.086   .     S
H18    O41     0.991   .     S
H19    C121    1.086   1_455 S
H24    O31     0.990   .     S
H25    O34     0.990   .     S
H26    O37     0.990   .     S
N27    Zn53    2.034   .     S
N28    Zn54    2.034   .     S
O29    Zn53    1.992   .     S
O30    S49     1.504   .     D
O31    S49     1.678   .     S
O32    S50     1.501   .     D
O33    S50     1.504   .     D
O34    S50     1.679   .     S
O35    S1023   1.504   1_554 S
O36    S51     1.501   .     D
O37    S51     1.676   .     S
O38    S52     1.501   .     D
O39    S538    1.504   .     S
O40    Zn54    1.992   .     S
O41    S52     1.676   .     S
O42    Zn54    1.991   .     S
O43    Zn53    1.991   .     S
O44    Zn53    1.954   .     S
O45    Zn54    1.954   .     S
O46    Zn54    1.979   .     S
O47    Zn53    1.979   .     S
O48    S49     1.501   .     D
S51    O521    1.504   .     S
S52    O1011   1.504   1_554 S
C55    C58     1.415   .     S
C55    O83     1.289   .     A
C55    O96     1.293   .     A
C56    C58     1.407   .     A
C56    S104    1.772   .     S
C56    C393    1.376   1_545 S
C57    C63     1.416   .     S
C57    C69     1.393   .     A
C57    C70     1.408   .     A
C58    C68     1.392   .     A
C59    N82     1.347   .     A
C59    H76     1.080   .     S
C59    C1033   1.418   1_554 S
C60    N81     1.348   .     A
C60    H77     1.080   .     S
C60    C548    1.418   .     S
C61    N81     1.401   .     A
C61    S105    1.779   .     S
C61    C545    1.418   .     S
C62    S106    1.780   .     S
C62    N82     1.401   .     A
C62    C1032   1.418   1_554 S
C63    O97     1.295   .     A
C63    O94     1.288   .     A
C64    O100    1.295   .     A
C64    C66     1.405   .     S
C64    O98     1.282   .     A
C65    O101    1.295   .     A
C65    C67     1.405   .     S
C65    O99     1.282   .     A
C67    C120    1.338   .     S
C67    H127    1.086   .     S
C68    H74     1.085   .     S
C68    C394    1.375   1_545 S
C69    H75     1.085   .     S
C69    C218    1.376   .     S
C70    S103    1.772   .     S
C70    C230    1.375   .     S
H71    C120    1.086   .     S
H72    O95     0.991   .     S
H78    O85     0.990   .     S
H79    O88     0.990   .     S
H80    O91     0.990   .     S
N81    Zn107   2.034   .     S
N82    Zn108   2.034   .     S
O83    Zn107   1.992   .     S
O84    S103    1.504   .     D
O85    S103    1.678   .     S
O86    S104    1.501   .     D
O87    S104    1.504   .     D
O88    S104    1.679   .     S
O89    S1077   1.504   1_554 S
O90    S105    1.501   .     D
O91    S105    1.676   .     S
O92    S106    1.501   .     D
O93    S592    1.504   .     S
O94    Zn108   1.992   .     S
O95    S106    1.676   .     S
O96    Zn108   1.991   .     S
O97    Zn107   1.991   .     S
O98    Zn107   1.954   .     S
O99    Zn108   1.954   .     S
O100   Zn108   1.979   .     S
O101   Zn107   1.979   .     S
O102   S103    1.501   .     D
S105   O575    1.504   .     S
S106   O1065   1.504   1_554 S
C109   C112    1.415   .     S
C109   O137    1.289   .     A
C109   O150    1.293   .     A
C110   C112    1.407   .     A
C110   S158    1.772   .     S
C110   C447    1.376   1_545 S
C111   C117    1.416   .     S
C111   C123    1.393   .     A
C111   C124    1.408   .     A
C112   C122    1.392   .     A
C113   N136    1.347   .     A
C113   H130    1.080   .     S
C113   C1087   1.418   1_554 S
C114   N135    1.348   .     A
C114   H131    1.080   .     S
C114   C602    1.418   .     S
C115   N135    1.401   .     A
C115   S159    1.779   .     S
C115   C599    1.418   .     S
C116   S160    1.780   .     S
C116   N136    1.401   .     A
C116   C1086   1.418   1_554 S
C117   O151    1.295   .     A
C117   O148    1.288   .     A
C118   O154    1.295   .     A
C118   C120    1.405   .     S
C118   O152    1.282   .     A
C119   O155    1.295   .     A
C119   C121    1.405   .     S
C119   O153    1.282   .     A
C121   C12     1.338   1_655 S
C121   H19     1.086   1_655 S
C122   H128    1.085   .     S
C122   C448    1.375   1_545 S
C123   H129    1.085   .     S
C123   C272    1.376   .     S
C124   S157    1.772   .     S
C124   C284    1.375   .     S
H125   C12     1.086   1_655 S
H126   O149    0.991   .     S
H132   O139    0.990   .     S
H133   O142    0.990   .     S
H134   O145    0.990   .     S
N135   Zn161   2.034   .     S
N136   Zn162   2.034   .     S
O137   Zn161   1.992   .     S
O138   S157    1.504   .     D
O139   S157    1.678   .     S
O140   S158    1.501   .     D
O141   S158    1.504   .     D
O142   S158    1.679   .     S
O143   S1131   1.504   1_554 S
O144   S159    1.501   .     D
O145   S159    1.676   .     S
O146   S160    1.501   .     D
O147   S646    1.504   .     S
O148   Zn162   1.992   .     S
O149   S160    1.676   .     S
O150   Zn162   1.991   .     S
O151   Zn161   1.991   .     S
O152   Zn161   1.954   .     S
O153   Zn162   1.954   .     S
O154   Zn162   1.979   .     S
O155   Zn161   1.979   .     S
O156   S157    1.501   .     D
S159   O629    1.504   .     S
S160   O1119   1.504   1_554 S
C163   C166    1.415   .     S
C163   O191    1.289   .     A
C163   O204    1.293   .     A
C164   C166    1.407   .     A
C164   S212    1.772   .     S
C165   C171    1.416   .     S
C165   C177    1.393   .     A
C165   C178    1.408   .     A
C166   C176    1.392   .     A
C167   N190    1.347   .     A
C167   H184    1.080   .     S
C167   C1141   1.418   1_554 S
C168   N189    1.348   .     A
C168   H185    1.080   .     S
C168   C656    1.418   .     S
C169   N189    1.401   .     A
C169   S213    1.779   .     S
C169   C653    1.418   .     S
C170   S214    1.780   .     S
C170   N190    1.401   .     A
C170   C1140   1.418   1_554 S
C171   O205    1.295   .     A
C171   O202    1.288   .     A
C172   O208    1.295   .     A
C172   C174    1.405   .     S
C172   O206    1.282   .     A
C173   O209    1.295   .     A
C173   C175    1.405   .     S
C173   O207    1.282   .     A
C174   C283    1.338   1_455 S
C174   H287    1.086   1_455 S
C175   C228    1.338   .     S
C175   H235    1.086   .     S
C176   H182    1.085   .     S
C177   H183    1.085   .     S
C177   C326    1.376   .     S
C178   S211    1.772   .     S
C178   C338    1.375   .     S
H179   C228    1.086   .     S
H180   O203    0.991   .     S
H181   C283    1.086   1_455 S
H186   O193    0.990   .     S
H187   O196    0.990   .     S
H188   O199    0.990   .     S
N189   Zn215   2.034   .     S
N190   Zn216   2.034   .     S
O191   Zn215   1.992   .     S
O192   S211    1.504   .     D
O193   S211    1.678   .     S
O194   S212    1.501   .     D
O195   S212    1.504   .     D
O196   S212    1.679   .     S
O197   S1185   1.504   1_554 S
O198   S213    1.501   .     D
O199   S213    1.676   .     S
O200   S214    1.501   .     D
O201   S700    1.504   .     S
O202   Zn216   1.992   .     S
O203   S214    1.676   .     S
O204   Zn216   1.991   .     S
O205   Zn215   1.991   .     S
O206   Zn215   1.954   .     S
O207   Zn216   1.954   .     S
O208   Zn216   1.979   .     S
O209   Zn215   1.979   .     S
O210   S211    1.501   .     D
S213   O683    1.504   .     S
S214   O1173   1.504   1_554 S
C217   C220    1.415   .     S
C217   O245    1.289   .     A
C217   O258    1.293   .     A
C218   C220    1.407   .     A
C218   S266    1.772   .     S
C219   C225    1.416   .     S
C219   C231    1.393   .     A
C219   C232    1.408   .     A
C220   C230    1.392   .     A
C221   N244    1.347   .     A
C221   H238    1.080   .     S
C221   C1195   1.418   1_554 S
C222   N243    1.348   .     A
C222   H239    1.080   .     S
C222   C710    1.418   .     S
C223   N243    1.401   .     A
C223   S267    1.779   .     S
C223   C707    1.418   .     S
C224   S268    1.780   .     S
C224   N244    1.401   .     A
C224   C1194   1.418   1_554 S
C225   O259    1.295   .     A
C225   O256    1.288   .     A
C226   O262    1.295   .     A
C226   C228    1.405   .     S
C226   O260    1.282   .     A
C227   O263    1.295   .     A
C227   C229    1.405   .     S
C227   O261    1.282   .     A
C229   C282    1.338   .     S
C229   H289    1.086   .     S
C230   H236    1.085   .     S
C231   H237    1.085   .     S
C231   C380    1.376   .     S
C232   S265    1.772   .     S
C232   C392    1.375   .     S
H233   C282    1.086   .     S
H234   O257    0.991   .     S
H240   O247    0.990   .     S
H241   O250    0.990   .     S
H242   O253    0.990   .     S
N243   Zn269   2.034   .     S
N244   Zn270   2.034   .     S
O245   Zn269   1.992   .     S
O246   S265    1.504   .     D
O247   S265    1.678   .     S
O248   S266    1.501   .     D
O249   S266    1.504   .     D
O250   S266    1.679   .     S
O251   S1239   1.504   1_554 S
O252   S267    1.501   .     D
O253   S267    1.676   .     S
O254   S268    1.501   .     D
O255   S754    1.504   .     S
O256   Zn270   1.992   .     S
O257   S268    1.676   .     S
O258   Zn270   1.991   .     S
O259   Zn269   1.991   .     S
O260   Zn269   1.954   .     S
O261   Zn270   1.954   .     S
O262   Zn270   1.979   .     S
O263   Zn269   1.979   .     S
O264   S265    1.501   .     D
S267   O737    1.504   .     S
S268   O1227   1.504   1_554 S
C271   C274    1.415   .     S
C271   O299    1.289   .     A
C271   O312    1.293   .     A
C272   C274    1.407   .     A
C272   S320    1.772   .     S
C273   C279    1.416   .     S
C273   C285    1.393   .     A
C273   C286    1.408   .     A
C274   C284    1.392   .     A
C275   N298    1.347   .     A
C275   H292    1.080   .     S
C275   C1249   1.418   1_554 S
C276   N297    1.348   .     A
C276   H293    1.080   .     S
C276   C764    1.418   .     S
C277   N297    1.401   .     A
C277   S321    1.779   .     S
C277   C761    1.418   .     S
C278   S322    1.780   .     S
C278   N298    1.401   .     A
C278   C1248   1.418   1_554 S
C279   O313    1.295   .     A
C279   O310    1.288   .     A
C280   O316    1.295   .     A
C280   C282    1.405   .     S
C280   O314    1.282   .     A
C281   O317    1.295   .     A
C281   C283    1.405   .     S
C281   O315    1.282   .     A
C283   C174    1.338   1_655 S
C283   H181    1.086   1_655 S
C284   H290    1.085   .     S
C285   H291    1.085   .     S
C285   C434    1.376   .     S
C286   S319    1.772   .     S
C286   C446    1.375   .     S
H287   C174    1.086   1_655 S
H288   O311    0.991   .     S
H294   O301    0.990   .     S
H295   O304    0.990   .     S
H296   O307    0.990   .     S
N297   Zn323   2.034   .     S
N298   Zn324   2.034   .     S
O299   Zn323   1.992   .     S
O300   S319    1.504   .     D
O301   S319    1.678   .     S
O302   S320    1.501   .     D
O303   S320    1.504   .     D
O304   S320    1.679   .     S
O305   S1293   1.504   1_554 S
O306   S321    1.501   .     D
O307   S321    1.676   .     S
O308   S322    1.501   .     D
O309   S808    1.504   .     S
O310   Zn324   1.992   .     S
O311   S322    1.676   .     S
O312   Zn324   1.991   .     S
O313   Zn323   1.991   .     S
O314   Zn323   1.954   .     S
O315   Zn324   1.954   .     S
O316   Zn324   1.979   .     S
O317   Zn323   1.979   .     S
O318   S319    1.501   .     D
S321   O791    1.504   .     S
S322   O1281   1.504   1_554 S
C325   C328    1.415   .     S
C325   O353    1.289   .     A
C325   O366    1.293   .     A
C326   C328    1.407   .     A
C326   S374    1.772   .     S
C327   C333    1.416   .     S
C327   C339    1.393   .     A
C327   C340    1.408   .     A
C328   C338    1.392   .     A
C329   N352    1.347   .     A
C329   H346    1.080   .     S
C329   C1303   1.418   1_554 S
C330   N351    1.348   .     A
C330   H347    1.080   .     S
C330   C818    1.418   .     S
C331   N351    1.401   .     A
C331   S375    1.779   .     S
C331   C815    1.418   .     S
C332   S376    1.780   .     S
C332   N352    1.401   .     A
C332   C1302   1.418   1_554 S
C333   O367    1.295   .     A
C333   O364    1.288   .     A
C334   O370    1.295   .     A
C334   C336    1.405   .     S
C334   O368    1.282   .     A
C335   O371    1.295   .     A
C335   C337    1.405   .     S
C335   O369    1.282   .     A
C336   C445    1.338   1_455 S
C336   H449    1.086   1_455 S
C337   C390    1.338   .     S
C337   H397    1.086   .     S
C338   H344    1.085   .     S
C339   H345    1.085   .     S
C339   C2      1.376   1_565 S
C340   S373    1.772   .     S
C340   C14     1.375   1_565 S
H341   C390    1.086   .     S
H342   O365    0.991   .     S
H343   C445    1.086   1_455 S
H348   O355    0.990   .     S
H349   O358    0.990   .     S
H350   O361    0.990   .     S
N351   Zn377   2.034   .     S
N352   Zn378   2.034   .     S
O353   Zn377   1.992   .     S
O354   S373    1.504   .     D
O355   S373    1.678   .     S
O356   S374    1.501   .     D
O357   S374    1.504   .     D
O358   S374    1.679   .     S
O359   S1347   1.504   1_554 S
O360   S375    1.501   .     D
O361   S375    1.676   .     S
O362   S376    1.501   .     D
O363   S862    1.504   .     S
O364   Zn378   1.992   .     S
O365   S376    1.676   .     S
O366   Zn378   1.991   .     S
O367   Zn377   1.991   .     S
O368   Zn377   1.954   .     S
O369   Zn378   1.954   .     S
O370   Zn378   1.979   .     S
O371   Zn377   1.979   .     S
O372   S373    1.501   .     D
S375   O845    1.504   .     S
S376   O1335   1.504   1_554 S
C379   C382    1.415   .     S
C379   O407    1.289   .     A
C379   O420    1.293   .     A
C380   C382    1.407   .     A
C380   S428    1.772   .     S
C381   C387    1.416   .     S
C381   C393    1.393   .     A
C381   C394    1.408   .     A
C382   C392    1.392   .     A
C383   N406    1.347   .     A
C383   H400    1.080   .     S
C383   C1357   1.418   1_554 S
C384   N405    1.348   .     A
C384   H401    1.080   .     S
C384   C872    1.418   .     S
C385   N405    1.401   .     A
C385   S429    1.779   .     S
C385   C869    1.418   .     S
C386   S430    1.780   .     S
C386   N406    1.401   .     A
C386   C1356   1.418   1_554 S
C387   O421    1.295   .     A
C387   O418    1.288   .     A
C388   O424    1.295   .     A
C388   C390    1.405   .     S
C388   O422    1.282   .     A
C389   O425    1.295   .     A
C389   C391    1.405   .     S
C389   O423    1.282   .     A
C391   C444    1.338   .     S
C391   H451    1.086   .     S
C392   H398    1.085   .     S
C393   H399    1.085   .     S
C393   C56     1.376   1_565 S
C394   S427    1.772   .     S
C394   C68     1.375   1_565 S
H395   C444    1.086   .     S
H396   O419    0.991   .     S
H402   O409    0.990   .     S
H403   O412    0.990   .     S
H404   O415    0.990   .     S
N405   Zn431   2.034   .     S
N406   Zn432   2.034   .     S
O407   Zn431   1.992   .     S
O408   S427    1.504   .     D
O409   S427    1.678   .     S
O410   S428    1.501   .     D
O411   S428    1.504   .     D
O412   S428    1.679   .     S
O413   S1401   1.504   1_554 S
O414   S429    1.501   .     D
O415   S429    1.676   .     S
O416   S430    1.501   .     D
O417   S916    1.504   .     S
O418   Zn432   1.992   .     S
O419   S430    1.676   .     S
O420   Zn432   1.991   .     S
O421   Zn431   1.991   .     S
O422   Zn431   1.954   .     S
O423   Zn432   1.954   .     S
O424   Zn432   1.979   .     S
O425   Zn431   1.979   .     S
O426   S427    1.501   .     D
S429   O899    1.504   .     S
S430   O1389   1.504   1_554 S
C433   C436    1.415   .     S
C433   O461    1.289   .     A
C433   O474    1.293   .     A
C434   C436    1.407   .     A
C434   S482    1.772   .     S
C435   C441    1.416   .     S
C435   C447    1.393   .     A
C435   C448    1.408   .     A
C436   C446    1.392   .     A
C437   N460    1.347   .     A
C437   H454    1.080   .     S
C437   C1411   1.418   1_554 S
C438   N459    1.348   .     A
C438   H455    1.080   .     S
C438   C926    1.418   .     S
C439   N459    1.401   .     A
C439   S483    1.779   .     S
C439   C923    1.418   .     S
C440   S484    1.780   .     S
C440   N460    1.401   .     A
C440   C1410   1.418   1_554 S
C441   O475    1.295   .     A
C441   O472    1.288   .     A
C442   O478    1.295   .     A
C442   C444    1.405   .     S
C442   O476    1.282   .     A
C443   O479    1.295   .     A
C443   C445    1.405   .     S
C443   O477    1.282   .     A
C445   C336    1.338   1_655 S
C445   H343    1.086   1_655 S
C446   H452    1.085   .     S
C447   H453    1.085   .     S
C447   C110    1.376   1_565 S
C448   S481    1.772   .     S
C448   C122    1.375   1_565 S
H449   C336    1.086   1_655 S
H450   O473    0.991   .     S
H456   O463    0.990   .     S
H457   O466    0.990   .     S
H458   O469    0.990   .     S
N459   Zn485   2.034   .     S
N460   Zn486   2.034   .     S
O461   Zn485   1.992   .     S
O462   S481    1.504   .     D
O463   S481    1.678   .     S
O464   S482    1.501   .     D
O465   S482    1.504   .     D
O466   S482    1.679   .     S
O467   S1455   1.504   1_554 S
O468   S483    1.501   .     D
O469   S483    1.676   .     S
O470   S484    1.501   .     D
O471   S970    1.504   .     S
O472   Zn486   1.992   .     S
O473   S484    1.676   .     S
O474   Zn486   1.991   .     S
O475   Zn485   1.991   .     S
O476   Zn485   1.954   .     S
O477   Zn486   1.954   .     S
O478   Zn486   1.979   .     S
O479   Zn485   1.979   .     S
O480   S481    1.501   .     D
S483   O953    1.504   .     S
S484   O1443   1.504   1_554 S
C487   C490    1.415   .     S
C487   O515    1.289   .     A
C487   O528    1.293   .     A
C488   C490    1.407   .     A
C488   S536    1.772   .     S
C488   C825    1.376   1_545 S
C489   C495    1.416   .     S
C489   C501    1.393   .     A
C489   C502    1.408   .     A
C490   C500    1.392   .     A
C491   N514    1.347   .     A
C491   H508    1.080   .     S
C492   N513    1.348   .     A
C492   H509    1.080   .     S
C492   C980    1.418   .     S
C493   N513    1.401   .     A
C493   S537    1.779   .     S
C493   C977    1.418   .     S
C494   S538    1.780   .     S
C494   N514    1.401   .     A
C495   O529    1.295   .     A
C495   O526    1.288   .     A
C496   O532    1.295   .     A
C496   C498    1.405   .     S
C496   O530    1.282   .     A
C497   O533    1.295   .     A
C497   C499    1.405   .     S
C497   O531    1.282   .     A
C498   C607    1.338   1_455 S
C498   H611    1.086   1_455 S
C499   C552    1.338   .     S
C499   H559    1.086   .     S
C500   H506    1.085   .     S
C500   C826    1.375   1_545 S
C501   H507    1.085   .     S
C501   C650    1.376   .     S
C502   S535    1.772   .     S
C502   C662    1.375   .     S
H503   C552    1.086   .     S
H504   O527    0.991   .     S
H505   C607    1.086   1_455 S
H510   O517    0.990   .     S
H511   O520    0.990   .     S
H512   O523    0.990   .     S
N513   Zn539   2.034   .     S
N514   Zn540   2.034   .     S
O515   Zn539   1.992   .     S
O516   S535    1.504   .     D
O517   S535    1.678   .     S
O518   S536    1.501   .     D
O519   S536    1.504   .     D
O520   S536    1.679   .     S
O522   S537    1.501   .     D
O523   S537    1.676   .     S
O524   S538    1.501   .     D
O525   S1024   1.504   .     S
O526   Zn540   1.992   .     S
O527   S538    1.676   .     S
O528   Zn540   1.991   .     S
O529   Zn539   1.991   .     S
O530   Zn539   1.954   .     S
O531   Zn540   1.954   .     S
O532   Zn540   1.979   .     S
O533   Zn539   1.979   .     S
O534   S535    1.501   .     D
S537   O1007   1.504   .     S
C541   C544    1.415   .     S
C541   O569    1.289   .     A
C541   O582    1.293   .     A
C542   C544    1.407   .     A
C542   S590    1.772   .     S
C542   C879    1.376   1_545 S
C543   C549    1.416   .     S
C543   C555    1.393   .     A
C543   C556    1.408   .     A
C544   C554    1.392   .     A
C545   N568    1.347   .     A
C545   H562    1.080   .     S
C546   N567    1.348   .     A
C546   H563    1.080   .     S
C546   C1034   1.418   .     S
C547   N567    1.401   .     A
C547   S591    1.779   .     S
C547   C1031   1.418   .     S
C548   S592    1.780   .     S
C548   N568    1.401   .     A
C549   O583    1.295   .     A
C549   O580    1.288   .     A
C550   O586    1.295   .     A
C550   C552    1.405   .     S
C550   O584    1.282   .     A
C551   O587    1.295   .     A
C551   C553    1.405   .     S
C551   O585    1.282   .     A
C553   C606    1.338   .     S
C553   H613    1.086   .     S
C554   H560    1.085   .     S
C554   C880    1.375   1_545 S
C555   H561    1.085   .     S
C555   C704    1.376   .     S
C556   S589    1.772   .     S
C556   C716    1.375   .     S
H557   C606    1.086   .     S
H558   O581    0.991   .     S
H564   O571    0.990   .     S
H565   O574    0.990   .     S
H566   O577    0.990   .     S
N567   Zn593   2.034   .     S
N568   Zn594   2.034   .     S
O569   Zn593   1.992   .     S
O570   S589    1.504   .     D
O571   S589    1.678   .     S
O572   S590    1.501   .     D
O573   S590    1.504   .     D
O574   S590    1.679   .     S
O576   S591    1.501   .     D
O577   S591    1.676   .     S
O578   S592    1.501   .     D
O579   S1078   1.504   .     S
O580   Zn594   1.992   .     S
O581   S592    1.676   .     S
O582   Zn594   1.991   .     S
O583   Zn593   1.991   .     S
O584   Zn593   1.954   .     S
O585   Zn594   1.954   .     S
O586   Zn594   1.979   .     S
O587   Zn593   1.979   .     S
O588   S589    1.501   .     D
S591   O1061   1.504   .     S
C595   C598    1.415   .     S
C595   O623    1.289   .     A
C595   O636    1.293   .     A
C596   C598    1.407   .     A
C596   S644    1.772   .     S
C596   C933    1.376   1_545 S
C597   C603    1.416   .     S
C597   C609    1.393   .     A
C597   C610    1.408   .     A
C598   C608    1.392   .     A
C599   N622    1.347   .     A
C599   H616    1.080   .     S
C600   N621    1.348   .     A
C600   H617    1.080   .     S
C600   C1088   1.418   .     S
C601   N621    1.401   .     A
C601   S645    1.779   .     S
C601   C1085   1.418   .     S
C602   S646    1.780   .     S
C602   N622    1.401   .     A
C603   O637    1.295   .     A
C603   O634    1.288   .     A
C604   O640    1.295   .     A
C604   C606    1.405   .     S
C604   O638    1.282   .     A
C605   O641    1.295   .     A
C605   C607    1.405   .     S
C605   O639    1.282   .     A
C607   C498    1.338   1_655 S
C607   H505    1.086   1_655 S
C608   H614    1.085   .     S
C608   C934    1.375   1_545 S
C609   H615    1.085   .     S
C609   C758    1.376   .     S
C610   S643    1.772   .     S
C610   C770    1.375   .     S
H611   C498    1.086   1_655 S
H612   O635    0.991   .     S
H618   O625    0.990   .     S
H619   O628    0.990   .     S
H620   O631    0.990   .     S
N621   Zn647   2.034   .     S
N622   Zn648   2.034   .     S
O623   Zn647   1.992   .     S
O624   S643    1.504   .     D
O625   S643    1.678   .     S
O626   S644    1.501   .     D
O627   S644    1.504   .     D
O628   S644    1.679   .     S
O630   S645    1.501   .     D
O631   S645    1.676   .     S
O632   S646    1.501   .     D
O633   S1132   1.504   .     S
O634   Zn648   1.992   .     S
O635   S646    1.676   .     S
O636   Zn648   1.991   .     S
O637   Zn647   1.991   .     S
O638   Zn647   1.954   .     S
O639   Zn648   1.954   .     S
O640   Zn648   1.979   .     S
O641   Zn647   1.979   .     S
O642   S643    1.501   .     D
S645   O1115   1.504   .     S
C649   C652    1.415   .     S
C649   O677    1.289   .     A
C649   O690    1.293   .     A
C650   C652    1.407   .     A
C650   S698    1.772   .     S
C651   C657    1.416   .     S
C651   C663    1.393   .     A
C651   C664    1.408   .     A
C652   C662    1.392   .     A
C653   N676    1.347   .     A
C653   H670    1.080   .     S
C654   N675    1.348   .     A
C654   H671    1.080   .     S
C654   C1142   1.418   .     S
C655   N675    1.401   .     A
C655   S699    1.779   .     S
C655   C1139   1.418   .     S
C656   S700    1.780   .     S
C656   N676    1.401   .     A
C657   O691    1.295   .     A
C657   O688    1.288   .     A
C658   O694    1.295   .     A
C658   C660    1.405   .     S
C658   O692    1.282   .     A
C659   O695    1.295   .     A
C659   C661    1.405   .     S
C659   O693    1.282   .     A
C660   C769    1.338   1_455 S
C660   H773    1.086   1_455 S
C661   C714    1.338   .     S
C661   H721    1.086   .     S
C662   H668    1.085   .     S
C663   H669    1.085   .     S
C663   C812    1.376   .     S
C664   S697    1.772   .     S
C664   C824    1.375   .     S
H665   C714    1.086   .     S
H666   O689    0.991   .     S
H667   C769    1.086   1_455 S
H672   O679    0.990   .     S
H673   O682    0.990   .     S
H674   O685    0.990   .     S
N675   Zn701   2.034   .     S
N676   Zn702   2.034   .     S
O677   Zn701   1.992   .     S
O678   S697    1.504   .     D
O679   S697    1.678   .     S
O680   S698    1.501   .     D
O681   S698    1.504   .     D
O682   S698    1.679   .     S
O684   S699    1.501   .     D
O685   S699    1.676   .     S
O686   S700    1.501   .     D
O687   S1186   1.504   .     S
O688   Zn702   1.992   .     S
O689   S700    1.676   .     S
O690   Zn702   1.991   .     S
O691   Zn701   1.991   .     S
O692   Zn701   1.954   .     S
O693   Zn702   1.954   .     S
O694   Zn702   1.979   .     S
O695   Zn701   1.979   .     S
O696   S697    1.501   .     D
S699   O1169   1.504   .     S
C703   C706    1.415   .     S
C703   O731    1.289   .     A
C703   O744    1.293   .     A
C704   C706    1.407   .     A
C704   S752    1.772   .     S
C705   C711    1.416   .     S
C705   C717    1.393   .     A
C705   C718    1.408   .     A
C706   C716    1.392   .     A
C707   N730    1.347   .     A
C707   H724    1.080   .     S
C708   N729    1.348   .     A
C708   H725    1.080   .     S
C708   C1196   1.418   .     S
C709   N729    1.401   .     A
C709   S753    1.779   .     S
C709   C1193   1.418   .     S
C710   S754    1.780   .     S
C710   N730    1.401   .     A
C711   O745    1.295   .     A
C711   O742    1.288   .     A
C712   O748    1.295   .     A
C712   C714    1.405   .     S
C712   O746    1.282   .     A
C713   O749    1.295   .     A
C713   C715    1.405   .     S
C713   O747    1.282   .     A
C715   C768    1.338   .     S
C715   H775    1.086   .     S
C716   H722    1.085   .     S
C717   H723    1.085   .     S
C717   C866    1.376   .     S
C718   S751    1.772   .     S
C718   C878    1.375   .     S
H719   C768    1.086   .     S
H720   O743    0.991   .     S
H726   O733    0.990   .     S
H727   O736    0.990   .     S
H728   O739    0.990   .     S
N729   Zn755   2.034   .     S
N730   Zn756   2.034   .     S
O731   Zn755   1.992   .     S
O732   S751    1.504   .     D
O733   S751    1.678   .     S
O734   S752    1.501   .     D
O735   S752    1.504   .     D
O736   S752    1.679   .     S
O738   S753    1.501   .     D
O739   S753    1.676   .     S
O740   S754    1.501   .     D
O741   S1240   1.504   .     S
O742   Zn756   1.992   .     S
O743   S754    1.676   .     S
O744   Zn756   1.991   .     S
O745   Zn755   1.991   .     S
O746   Zn755   1.954   .     S
O747   Zn756   1.954   .     S
O748   Zn756   1.979   .     S
O749   Zn755   1.979   .     S
O750   S751    1.501   .     D
S753   O1223   1.504   .     S
C757   C760    1.415   .     S
C757   O785    1.289   .     A
C757   O798    1.293   .     A
C758   C760    1.407   .     A
C758   S806    1.772   .     S
C759   C765    1.416   .     S
C759   C771    1.393   .     A
C759   C772    1.408   .     A
C760   C770    1.392   .     A
C761   N784    1.347   .     A
C761   H778    1.080   .     S
C762   N783    1.348   .     A
C762   H779    1.080   .     S
C762   C1250   1.418   .     S
C763   N783    1.401   .     A
C763   S807    1.779   .     S
C763   C1247   1.418   .     S
C764   S808    1.780   .     S
C764   N784    1.401   .     A
C765   O799    1.295   .     A
C765   O796    1.288   .     A
C766   O802    1.295   .     A
C766   C768    1.405   .     S
C766   O800    1.282   .     A
C767   O803    1.295   .     A
C767   C769    1.405   .     S
C767   O801    1.282   .     A
C769   C660    1.338   1_655 S
C769   H667    1.086   1_655 S
C770   H776    1.085   .     S
C771   H777    1.085   .     S
C771   C920    1.376   .     S
C772   S805    1.772   .     S
C772   C932    1.375   .     S
H773   C660    1.086   1_655 S
H774   O797    0.991   .     S
H780   O787    0.990   .     S
H781   O790    0.990   .     S
H782   O793    0.990   .     S
N783   Zn809   2.034   .     S
N784   Zn810   2.034   .     S
O785   Zn809   1.992   .     S
O786   S805    1.504   .     D
O787   S805    1.678   .     S
O788   S806    1.501   .     D
O789   S806    1.504   .     D
O790   S806    1.679   .     S
O792   S807    1.501   .     D
O793   S807    1.676   .     S
O794   S808    1.501   .     D
O795   S1294   1.504   .     S
O796   Zn810   1.992   .     S
O797   S808    1.676   .     S
O798   Zn810   1.991   .     S
O799   Zn809   1.991   .     S
O800   Zn809   1.954   .     S
O801   Zn810   1.954   .     S
O802   Zn810   1.979   .     S
O803   Zn809   1.979   .     S
O804   S805    1.501   .     D
S807   O1277   1.504   .     S
C811   C814    1.415   .     S
C811   O839    1.289   .     A
C811   O852    1.293   .     A
C812   C814    1.407   .     A
C812   S860    1.772   .     S
C813   C819    1.416   .     S
C813   C825    1.393   .     A
C813   C826    1.408   .     A
C814   C824    1.392   .     A
C815   N838    1.347   .     A
C815   H832    1.080   .     S
C816   N837    1.348   .     A
C816   H833    1.080   .     S
C816   C1304   1.418   .     S
C817   N837    1.401   .     A
C817   S861    1.779   .     S
C817   C1301   1.418   .     S
C818   S862    1.780   .     S
C818   N838    1.401   .     A
C819   O853    1.295   .     A
C819   O850    1.288   .     A
C820   O856    1.295   .     A
C820   C822    1.405   .     S
C820   O854    1.282   .     A
C821   O857    1.295   .     A
C821   C823    1.405   .     S
C821   O855    1.282   .     A
C822   C931    1.338   1_455 S
C822   H935    1.086   1_455 S
C823   C876    1.338   .     S
C823   H883    1.086   .     S
C824   H830    1.085   .     S
C825   H831    1.085   .     S
C825   C488    1.376   1_565 S
C826   S859    1.772   .     S
C826   C500    1.375   1_565 S
H827   C876    1.086   .     S
H828   O851    0.991   .     S
H829   C931    1.086   1_455 S
H834   O841    0.990   .     S
H835   O844    0.990   .     S
H836   O847    0.990   .     S
N837   Zn863   2.034   .     S
N838   Zn864   2.034   .     S
O839   Zn863   1.992   .     S
O840   S859    1.504   .     D
O841   S859    1.678   .     S
O842   S860    1.501   .     D
O843   S860    1.504   .     D
O844   S860    1.679   .     S
O846   S861    1.501   .     D
O847   S861    1.676   .     S
O848   S862    1.501   .     D
O849   S1348   1.504   .     S
O850   Zn864   1.992   .     S
O851   S862    1.676   .     S
O852   Zn864   1.991   .     S
O853   Zn863   1.991   .     S
O854   Zn863   1.954   .     S
O855   Zn864   1.954   .     S
O856   Zn864   1.979   .     S
O857   Zn863   1.979   .     S
O858   S859    1.501   .     D
S861   O1331   1.504   .     S
C865   C868    1.415   .     S
C865   O893    1.289   .     A
C865   O906    1.293   .     A
C866   C868    1.407   .     A
C866   S914    1.772   .     S
C867   C873    1.416   .     S
C867   C879    1.393   .     A
C867   C880    1.408   .     A
C868   C878    1.392   .     A
C869   N892    1.347   .     A
C869   H886    1.080   .     S
C870   N891    1.348   .     A
C870   H887    1.080   .     S
C870   C1358   1.418   .     S
C871   N891    1.401   .     A
C871   S915    1.779   .     S
C871   C1355   1.418   .     S
C872   S916    1.780   .     S
C872   N892    1.401   .     A
C873   O907    1.295   .     A
C873   O904    1.288   .     A
C874   O910    1.295   .     A
C874   C876    1.405   .     S
C874   O908    1.282   .     A
C875   O911    1.295   .     A
C875   C877    1.405   .     S
C875   O909    1.282   .     A
C877   C930    1.338   .     S
C877   H937    1.086   .     S
C878   H884    1.085   .     S
C879   H885    1.085   .     S
C879   C542    1.376   1_565 S
C880   S913    1.772   .     S
C880   C554    1.375   1_565 S
H881   C930    1.086   .     S
H882   O905    0.991   .     S
H888   O895    0.990   .     S
H889   O898    0.990   .     S
H890   O901    0.990   .     S
N891   Zn917   2.034   .     S
N892   Zn918   2.034   .     S
O893   Zn917   1.992   .     S
O894   S913    1.504   .     D
O895   S913    1.678   .     S
O896   S914    1.501   .     D
O897   S914    1.504   .     D
O898   S914    1.679   .     S
O900   S915    1.501   .     D
O901   S915    1.676   .     S
O902   S916    1.501   .     D
O903   S1402   1.504   .     S
O904   Zn918   1.992   .     S
O905   S916    1.676   .     S
O906   Zn918   1.991   .     S
O907   Zn917   1.991   .     S
O908   Zn917   1.954   .     S
O909   Zn918   1.954   .     S
O910   Zn918   1.979   .     S
O911   Zn917   1.979   .     S
O912   S913    1.501   .     D
S915   O1385   1.504   .     S
C919   C922    1.415   .     S
C919   O947    1.289   .     A
C919   O960    1.293   .     A
C920   C922    1.407   .     A
C920   S968    1.772   .     S
C921   C927    1.416   .     S
C921   C933    1.393   .     A
C921   C934    1.408   .     A
C922   C932    1.392   .     A
C923   N946    1.347   .     A
C923   H940    1.080   .     S
C924   N945    1.348   .     A
C924   H941    1.080   .     S
C924   C1412   1.418   .     S
C925   N945    1.401   .     A
C925   S969    1.779   .     S
C925   C1409   1.418   .     S
C926   S970    1.780   .     S
C926   N946    1.401   .     A
C927   O961    1.295   .     A
C927   O958    1.288   .     A
C928   O964    1.295   .     A
C928   C930    1.405   .     S
C928   O962    1.282   .     A
C929   O965    1.295   .     A
C929   C931    1.405   .     S
C929   O963    1.282   .     A
C931   C822    1.338   1_655 S
C931   H829    1.086   1_655 S
C932   H938    1.085   .     S
C933   H939    1.085   .     S
C933   C596    1.376   1_565 S
C934   S967    1.772   .     S
C934   C608    1.375   1_565 S
H935   C822    1.086   1_655 S
H936   O959    0.991   .     S
H942   O949    0.990   .     S
H943   O952    0.990   .     S
H944   O955    0.990   .     S
N945   Zn971   2.034   .     S
N946   Zn972   2.034   .     S
O947   Zn971   1.992   .     S
O948   S967    1.504   .     D
O949   S967    1.678   .     S
O950   S968    1.501   .     D
O951   S968    1.504   .     D
O952   S968    1.679   .     S
O954   S969    1.501   .     D
O955   S969    1.676   .     S
O956   S970    1.501   .     D
O957   S1456   1.504   .     S
O958   Zn972   1.992   .     S
O959   S970    1.676   .     S
O960   Zn972   1.991   .     S
O961   Zn971   1.991   .     S
O962   Zn971   1.954   .     S
O963   Zn972   1.954   .     S
O964   Zn972   1.979   .     S
O965   Zn971   1.979   .     S
O966   S967    1.501   .     D
S969   O1439   1.504   .     S
C973   C976    1.415   .     S
C973   O1001   1.289   .     A
C973   O1014   1.293   .     A
C974   C976    1.407   .     A
C974   S1022   1.772   .     S
C974   C1311   1.376   1_545 S
C975   C981    1.416   .     S
C975   C987    1.393   .     A
C975   C988    1.408   .     A
C976   C986    1.392   .     A
C977   N1000   1.347   .     A
C977   H994    1.080   .     S
C978   N999    1.348   .     A
C978   H995    1.080   .     S
C978   C8      1.418   1_556 S
C979   N999    1.401   .     A
C979   S1023   1.779   .     S
C979   C5      1.418   1_556 S
C980   S1024   1.780   .     S
C980   N1000   1.401   .     A
C981   O1015   1.295   .     A
C981   O1012   1.288   .     A
C982   O1018   1.295   .     A
C982   C984    1.405   .     S
C982   O1016   1.282   .     A
C983   O1019   1.295   .     A
C983   C985    1.405   .     S
C983   O1017   1.282   .     A
C984   C1093   1.338   1_455 S
C984   H1097   1.086   1_455 S
C985   C1038   1.338   .     S
C985   H1045   1.086   .     S
C986   H992    1.085   .     S
C986   C1312   1.375   1_545 S
C987   H993    1.085   .     S
C987   C1136   1.376   .     S
C988   S1021   1.772   .     S
C988   C1148   1.375   .     S
H989   C1038   1.086   .     S
H990   O1013   0.991   .     S
H991   C1093   1.086   1_455 S
H996   O1003   0.990   .     S
H997   O1006   0.990   .     S
H998   O1009   0.990   .     S
N999   Zn1025  2.034   .     S
N1000  Zn1026  2.034   .     S
O1001  Zn1025  1.992   .     S
O1002  S1021   1.504   .     D
O1003  S1021   1.678   .     S
O1004  S1022   1.501   .     D
O1005  S1022   1.504   .     D
O1006  S1022   1.679   .     S
O1008  S1023   1.501   .     D
O1009  S1023   1.676   .     S
O1010  S1024   1.501   .     D
O1011  S52     1.504   1_556 S
O1012  Zn1026  1.992   .     S
O1013  S1024   1.676   .     S
O1014  Zn1026  1.991   .     S
O1015  Zn1025  1.991   .     S
O1016  Zn1025  1.954   .     S
O1017  Zn1026  1.954   .     S
O1018  Zn1026  1.979   .     S
O1019  Zn1025  1.979   .     S
O1020  S1021   1.501   .     D
S1023  O35     1.504   1_556 S
C1027  C1030   1.415   .     S
C1027  O1055   1.289   .     A
C1027  O1068   1.293   .     A
C1028  C1030   1.407   .     A
C1028  S1076   1.772   .     S
C1028  C1365   1.376   1_545 S
C1029  C1035   1.416   .     S
C1029  C1041   1.393   .     A
C1029  C1042   1.408   .     A
C1030  C1040   1.392   .     A
C1031  N1054   1.347   .     A
C1031  H1048   1.080   .     S
C1032  N1053   1.348   .     A
C1032  H1049   1.080   .     S
C1032  C62     1.418   1_556 S
C1033  N1053   1.401   .     A
C1033  S1077   1.779   .     S
C1033  C59     1.418   1_556 S
C1034  S1078   1.780   .     S
C1034  N1054   1.401   .     A
C1035  O1069   1.295   .     A
C1035  O1066   1.288   .     A
C1036  O1072   1.295   .     A
C1036  C1038   1.405   .     S
C1036  O1070   1.282   .     A
C1037  O1073   1.295   .     A
C1037  C1039   1.405   .     S
C1037  O1071   1.282   .     A
C1039  C1092   1.338   .     S
C1039  H1099   1.086   .     S
C1040  H1046   1.085   .     S
C1040  C1366   1.375   1_545 S
C1041  H1047   1.085   .     S
C1041  C1190   1.376   .     S
C1042  S1075   1.772   .     S
C1042  C1202   1.375   .     S
H1043  C1092   1.086   .     S
H1044  O1067   0.991   .     S
H1050  O1057   0.990   .     S
H1051  O1060   0.990   .     S
H1052  O1063   0.990   .     S
N1053  Zn1079  2.034   .     S
N1054  Zn1080  2.034   .     S
O1055  Zn1079  1.992   .     S
O1056  S1075   1.504   .     D
O1057  S1075   1.678   .     S
O1058  S1076   1.501   .     D
O1059  S1076   1.504   .     D
O1060  S1076   1.679   .     S
O1062  S1077   1.501   .     D
O1063  S1077   1.676   .     S
O1064  S1078   1.501   .     D
O1065  S106    1.504   1_556 S
O1066  Zn1080  1.992   .     S
O1067  S1078   1.676   .     S
O1068  Zn1080  1.991   .     S
O1069  Zn1079  1.991   .     S
O1070  Zn1079  1.954   .     S
O1071  Zn1080  1.954   .     S
O1072  Zn1080  1.979   .     S
O1073  Zn1079  1.979   .     S
O1074  S1075   1.501   .     D
S1077  O89     1.504   1_556 S
C1081  C1084   1.415   .     S
C1081  O1109   1.289   .     A
C1081  O1122   1.293   .     A
C1082  C1084   1.407   .     A
C1082  S1130   1.772   .     S
C1082  C1419   1.376   1_545 S
C1083  C1089   1.416   .     S
C1083  C1095   1.393   .     A
C1083  C1096   1.408   .     A
C1084  C1094   1.392   .     A
C1085  N1108   1.347   .     A
C1085  H1102   1.080   .     S
C1086  N1107   1.348   .     A
C1086  H1103   1.080   .     S
C1086  C116    1.418   1_556 S
C1087  N1107   1.401   .     A
C1087  S1131   1.779   .     S
C1087  C113    1.418   1_556 S
C1088  S1132   1.780   .     S
C1088  N1108   1.401   .     A
C1089  O1123   1.295   .     A
C1089  O1120   1.288   .     A
C1090  O1126   1.295   .     A
C1090  C1092   1.405   .     S
C1090  O1124   1.282   .     A
C1091  O1127   1.295   .     A
C1091  C1093   1.405   .     S
C1091  O1125   1.282   .     A
C1093  C984    1.338   1_655 S
C1093  H991    1.086   1_655 S
C1094  H1100   1.085   .     S
C1094  C1420   1.375   1_545 S
C1095  H1101   1.085   .     S
C1095  C1244   1.376   .     S
C1096  S1129   1.772   .     S
C1096  C1256   1.375   .     S
H1097  C984    1.086   1_655 S
H1098  O1121   0.991   .     S
H1104  O1111   0.990   .     S
H1105  O1114   0.990   .     S
H1106  O1117   0.990   .     S
N1107  Zn1133  2.034   .     S
N1108  Zn1134  2.034   .     S
O1109  Zn1133  1.992   .     S
O1110  S1129   1.504   .     D
O1111  S1129   1.678   .     S
O1112  S1130   1.501   .     D
O1113  S1130   1.504   .     D
O1114  S1130   1.679   .     S
O1116  S1131   1.501   .     D
O1117  S1131   1.676   .     S
O1118  S1132   1.501   .     D
O1119  S160    1.504   1_556 S
O1120  Zn1134  1.992   .     S
O1121  S1132   1.676   .     S
O1122  Zn1134  1.991   .     S
O1123  Zn1133  1.991   .     S
O1124  Zn1133  1.954   .     S
O1125  Zn1134  1.954   .     S
O1126  Zn1134  1.979   .     S
O1127  Zn1133  1.979   .     S
O1128  S1129   1.501   .     D
S1131  O143    1.504   1_556 S
C1135  C1138   1.415   .     S
C1135  O1163   1.289   .     A
C1135  O1176   1.293   .     A
C1136  C1138   1.407   .     A
C1136  S1184   1.772   .     S
C1137  C1143   1.416   .     S
C1137  C1149   1.393   .     A
C1137  C1150   1.408   .     A
C1138  C1148   1.392   .     A
C1139  N1162   1.347   .     A
C1139  H1156   1.080   .     S
C1140  N1161   1.348   .     A
C1140  H1157   1.080   .     S
C1140  C170    1.418   1_556 S
C1141  N1161   1.401   .     A
C1141  S1185   1.779   .     S
C1141  C167    1.418   1_556 S
C1142  S1186   1.780   .     S
C1142  N1162   1.401   .     A
C1143  O1177   1.295   .     A
C1143  O1174   1.288   .     A
C1144  O1180   1.295   .     A
C1144  C1146   1.405   .     S
C1144  O1178   1.282   .     A
C1145  O1181   1.295   .     A
C1145  C1147   1.405   .     S
C1145  O1179   1.282   .     A
C1146  C1255   1.338   1_455 S
C1146  H1259   1.086   1_455 S
C1147  C1200   1.338   .     S
C1147  H1207   1.086   .     S
C1148  H1154   1.085   .     S
C1149  H1155   1.085   .     S
C1149  C1298   1.376   .     S
C1150  S1183   1.772   .     S
C1150  C1310   1.375   .     S
H1151  C1200   1.086   .     S
H1152  O1175   0.991   .     S
H1153  C1255   1.086   1_455 S
H1158  O1165   0.990   .     S
H1159  O1168   0.990   .     S
H1160  O1171   0.990   .     S
N1161  Zn1187  2.034   .     S
N1162  Zn1188  2.034   .     S
O1163  Zn1187  1.992   .     S
O1164  S1183   1.504   .     D
O1165  S1183   1.678   .     S
O1166  S1184   1.501   .     D
O1167  S1184   1.504   .     D
O1168  S1184   1.679   .     S
O1170  S1185   1.501   .     D
O1171  S1185   1.676   .     S
O1172  S1186   1.501   .     D
O1173  S214    1.504   1_556 S
O1174  Zn1188  1.992   .     S
O1175  S1186   1.676   .     S
O1176  Zn1188  1.991   .     S
O1177  Zn1187  1.991   .     S
O1178  Zn1187  1.954   .     S
O1179  Zn1188  1.954   .     S
O1180  Zn1188  1.979   .     S
O1181  Zn1187  1.979   .     S
O1182  S1183   1.501   .     D
S1185  O197    1.504   1_556 S
C1189  C1192   1.415   .     S
C1189  O1217   1.289   .     A
C1189  O1230   1.293   .     A
C1190  C1192   1.407   .     A
C1190  S1238   1.772   .     S
C1191  C1197   1.416   .     S
C1191  C1203   1.393   .     A
C1191  C1204   1.408   .     A
C1192  C1202   1.392   .     A
C1193  N1216   1.347   .     A
C1193  H1210   1.080   .     S
C1194  N1215   1.348   .     A
C1194  H1211   1.080   .     S
C1194  C224    1.418   1_556 S
C1195  N1215   1.401   .     A
C1195  S1239   1.779   .     S
C1195  C221    1.418   1_556 S
C1196  S1240   1.780   .     S
C1196  N1216   1.401   .     A
C1197  O1231   1.295   .     A
C1197  O1228   1.288   .     A
C1198  O1234   1.295   .     A
C1198  C1200   1.405   .     S
C1198  O1232   1.282   .     A
C1199  O1235   1.295   .     A
C1199  C1201   1.405   .     S
C1199  O1233   1.282   .     A
C1201  C1254   1.338   .     S
C1201  H1261   1.086   .     S
C1202  H1208   1.085   .     S
C1203  H1209   1.085   .     S
C1203  C1352   1.376   .     S
C1204  S1237   1.772   .     S
C1204  C1364   1.375   .     S
H1205  C1254   1.086   .     S
H1206  O1229   0.991   .     S
H1212  O1219   0.990   .     S
H1213  O1222   0.990   .     S
H1214  O1225   0.990   .     S
N1215  Zn1241  2.034   .     S
N1216  Zn1242  2.034   .     S
O1217  Zn1241  1.992   .     S
O1218  S1237   1.504   .     D
O1219  S1237   1.678   .     S
O1220  S1238   1.501   .     D
O1221  S1238   1.504   .     D
O1222  S1238   1.679   .     S
O1224  S1239   1.501   .     D
O1225  S1239   1.676   .     S
O1226  S1240   1.501   .     D
O1227  S268    1.504   1_556 S
O1228  Zn1242  1.992   .     S
O1229  S1240   1.676   .     S
O1230  Zn1242  1.991   .     S
O1231  Zn1241  1.991   .     S
O1232  Zn1241  1.954   .     S
O1233  Zn1242  1.954   .     S
O1234  Zn1242  1.979   .     S
O1235  Zn1241  1.979   .     S
O1236  S1237   1.501   .     D
S1239  O251    1.504   1_556 S
C1243  C1246   1.415   .     S
C1243  O1271   1.289   .     A
C1243  O1284   1.293   .     A
C1244  C1246   1.407   .     A
C1244  S1292   1.772   .     S
C1245  C1251   1.416   .     S
C1245  C1257   1.393   .     A
C1245  C1258   1.408   .     A
C1246  C1256   1.392   .     A
C1247  N1270   1.347   .     A
C1247  H1264   1.080   .     S
C1248  N1269   1.348   .     A
C1248  H1265   1.080   .     S
C1248  C278    1.418   1_556 S
C1249  N1269   1.401   .     A
C1249  S1293   1.779   .     S
C1249  C275    1.418   1_556 S
C1250  S1294   1.780   .     S
C1250  N1270   1.401   .     A
C1251  O1285   1.295   .     A
C1251  O1282   1.288   .     A
C1252  O1288   1.295   .     A
C1252  C1254   1.405   .     S
C1252  O1286   1.282   .     A
C1253  O1289   1.295   .     A
C1253  C1255   1.405   .     S
C1253  O1287   1.282   .     A
C1255  C1146   1.338   1_655 S
C1255  H1153   1.086   1_655 S
C1256  H1262   1.085   .     S
C1257  H1263   1.085   .     S
C1257  C1406   1.376   .     S
C1258  S1291   1.772   .     S
C1258  C1418   1.375   .     S
H1259  C1146   1.086   1_655 S
H1260  O1283   0.991   .     S
H1266  O1273   0.990   .     S
H1267  O1276   0.990   .     S
H1268  O1279   0.990   .     S
N1269  Zn1295  2.034   .     S
N1270  Zn1296  2.034   .     S
O1271  Zn1295  1.992   .     S
O1272  S1291   1.504   .     D
O1273  S1291   1.678   .     S
O1274  S1292   1.501   .     D
O1275  S1292   1.504   .     D
O1276  S1292   1.679   .     S
O1278  S1293   1.501   .     D
O1279  S1293   1.676   .     S
O1280  S1294   1.501   .     D
O1281  S322    1.504   1_556 S
O1282  Zn1296  1.992   .     S
O1283  S1294   1.676   .     S
O1284  Zn1296  1.991   .     S
O1285  Zn1295  1.991   .     S
O1286  Zn1295  1.954   .     S
O1287  Zn1296  1.954   .     S
O1288  Zn1296  1.979   .     S
O1289  Zn1295  1.979   .     S
O1290  S1291   1.501   .     D
S1293  O305    1.504   1_556 S
C1297  C1300   1.415   .     S
C1297  O1325   1.289   .     A
C1297  O1338   1.293   .     A
C1298  C1300   1.407   .     A
C1298  S1346   1.772   .     S
C1299  C1305   1.416   .     S
C1299  C1311   1.393   .     A
C1299  C1312   1.408   .     A
C1300  C1310   1.392   .     A
C1301  N1324   1.347   .     A
C1301  H1318   1.080   .     S
C1302  N1323   1.348   .     A
C1302  H1319   1.080   .     S
C1302  C332    1.418   1_556 S
C1303  N1323   1.401   .     A
C1303  S1347   1.779   .     S
C1303  C329    1.418   1_556 S
C1304  S1348   1.780   .     S
C1304  N1324   1.401   .     A
C1305  O1339   1.295   .     A
C1305  O1336   1.288   .     A
C1306  O1342   1.295   .     A
C1306  C1308   1.405   .     S
C1306  O1340   1.282   .     A
C1307  O1343   1.295   .     A
C1307  C1309   1.405   .     S
C1307  O1341   1.282   .     A
C1308  C1417   1.338   1_455 S
C1308  H1421   1.086   1_455 S
C1309  C1362   1.338   .     S
C1309  H1369   1.086   .     S
C1310  H1316   1.085   .     S
C1311  H1317   1.085   .     S
C1311  C974    1.376   1_565 S
C1312  S1345   1.772   .     S
C1312  C986    1.375   1_565 S
H1313  C1362   1.086   .     S
H1314  O1337   0.991   .     S
H1315  C1417   1.086   1_455 S
H1320  O1327   0.990   .     S
H1321  O1330   0.990   .     S
H1322  O1333   0.990   .     S
N1323  Zn1349  2.034   .     S
N1324  Zn1350  2.034   .     S
O1325  Zn1349  1.992   .     S
O1326  S1345   1.504   .     D
O1327  S1345   1.678   .     S
O1328  S1346   1.501   .     D
O1329  S1346   1.504   .     D
O1330  S1346   1.679   .     S
O1332  S1347   1.501   .     D
O1333  S1347   1.676   .     S
O1334  S1348   1.501   .     D
O1335  S376    1.504   1_556 S
O1336  Zn1350  1.992   .     S
O1337  S1348   1.676   .     S
O1338  Zn1350  1.991   .     S
O1339  Zn1349  1.991   .     S
O1340  Zn1349  1.954   .     S
O1341  Zn1350  1.954   .     S
O1342  Zn1350  1.979   .     S
O1343  Zn1349  1.979   .     S
O1344  S1345   1.501   .     D
S1347  O359    1.504   1_556 S
C1351  C1354   1.415   .     S
C1351  O1379   1.289   .     A
C1351  O1392   1.293   .     A
C1352  C1354   1.407   .     A
C1352  S1400   1.772   .     S
C1353  C1359   1.416   .     S
C1353  C1365   1.393   .     A
C1353  C1366   1.408   .     A
C1354  C1364   1.392   .     A
C1355  N1378   1.347   .     A
C1355  H1372   1.080   .     S
C1356  N1377   1.348   .     A
C1356  H1373   1.080   .     S
C1356  C386    1.418   1_556 S
C1357  N1377   1.401   .     A
C1357  S1401   1.779   .     S
C1357  C383    1.418   1_556 S
C1358  S1402   1.780   .     S
C1358  N1378   1.401   .     A
C1359  O1393   1.295   .     A
C1359  O1390   1.288   .     A
C1360  O1396   1.295   .     A
C1360  C1362   1.405   .     S
C1360  O1394   1.282   .     A
C1361  O1397   1.295   .     A
C1361  C1363   1.405   .     S
C1361  O1395   1.282   .     A
C1363  C1416   1.338   .     S
C1363  H1423   1.086   .     S
C1364  H1370   1.085   .     S
C1365  H1371   1.085   .     S
C1365  C1028   1.376   1_565 S
C1366  S1399   1.772   .     S
C1366  C1040   1.375   1_565 S
H1367  C1416   1.086   .     S
H1368  O1391   0.991   .     S
H1374  O1381   0.990   .     S
H1375  O1384   0.990   .     S
H1376  O1387   0.990   .     S
N1377  Zn1403  2.034   .     S
N1378  Zn1404  2.034   .     S
O1379  Zn1403  1.992   .     S
O1380  S1399   1.504   .     D
O1381  S1399   1.678   .     S
O1382  S1400   1.501   .     D
O1383  S1400   1.504   .     D
O1384  S1400   1.679   .     S
O1386  S1401   1.501   .     D
O1387  S1401   1.676   .     S
O1388  S1402   1.501   .     D
O1389  S430    1.504   1_556 S
O1390  Zn1404  1.992   .     S
O1391  S1402   1.676   .     S
O1392  Zn1404  1.991   .     S
O1393  Zn1403  1.991   .     S
O1394  Zn1403  1.954   .     S
O1395  Zn1404  1.954   .     S
O1396  Zn1404  1.979   .     S
O1397  Zn1403  1.979   .     S
O1398  S1399   1.501   .     D
S1401  O413    1.504   1_556 S
C1405  C1408   1.415   .     S
C1405  O1433   1.289   .     A
C1405  O1446   1.293   .     A
C1406  C1408   1.407   .     A
C1406  S1454   1.772   .     S
C1407  C1413   1.416   .     S
C1407  C1419   1.393   .     A
C1407  C1420   1.408   .     A
C1408  C1418   1.392   .     A
C1409  N1432   1.347   .     A
C1409  H1426   1.080   .     S
C1410  N1431   1.348   .     A
C1410  H1427   1.080   .     S
C1410  C440    1.418   1_556 S
C1411  N1431   1.401   .     A
C1411  S1455   1.779   .     S
C1411  C437    1.418   1_556 S
C1412  S1456   1.780   .     S
C1412  N1432   1.401   .     A
C1413  O1447   1.295   .     A
C1413  O1444   1.288   .     A
C1414  O1450   1.295   .     A
C1414  C1416   1.405   .     S
C1414  O1448   1.282   .     A
C1415  O1451   1.295   .     A
C1415  C1417   1.405   .     S
C1415  O1449   1.282   .     A
C1417  C1308   1.338   1_655 S
C1417  H1315   1.086   1_655 S
C1418  H1424   1.085   .     S
C1419  H1425   1.085   .     S
C1419  C1082   1.376   1_565 S
C1420  S1453   1.772   .     S
C1420  C1094   1.375   1_565 S
H1421  C1308   1.086   1_655 S
H1422  O1445   0.991   .     S
H1428  O1435   0.990   .     S
H1429  O1438   0.990   .     S
H1430  O1441   0.990   .     S
N1431  Zn1457  2.034   .     S
N1432  Zn1458  2.034   .     S
O1433  Zn1457  1.992   .     S
O1434  S1453   1.504   .     D
O1435  S1453   1.678   .     S
O1436  S1454   1.501   .     D
O1437  S1454   1.504   .     D
O1438  S1454   1.679   .     S
O1440  S1455   1.501   .     D
O1441  S1455   1.676   .     S
O1442  S1456   1.501   .     D
O1443  S484    1.504   1_556 S
O1444  Zn1458  1.992   .     S
O1445  S1456   1.676   .     S
O1446  Zn1458  1.991   .     S
O1447  Zn1457  1.991   .     S
O1448  Zn1457  1.954   .     S
O1449  Zn1458  1.954   .     S
O1450  Zn1458  1.979   .     S
O1451  Zn1457  1.979   .     S
O1452  S1453   1.501   .     D
S1455  O467    1.504   1_556 S
