data_str_m1_o1_o2_pcu_sym.46
_audit_creation_date              2020-01-03
_audit_creation_method            'Materials Studio'
_symmetry_space_group_name_H-M    'P1'
_symmetry_Int_Tables_number       1
_symmetry_cell_setting            triclinic
loop_
_symmetry_equiv_pos_as_xyz
  x,y,z
_cell_length_a                    36.7034
_cell_length_b                    36.7034
_cell_length_c                    34.4450
_cell_angle_alpha                 90.0000
_cell_angle_beta                  90.0000
_cell_angle_gamma                 90.0003
loop_
_atom_site_label
_atom_site_type_symbol
_atom_site_fract_x
_atom_site_fract_y
_atom_site_fract_z
_atom_site_U_iso_or_equiv
_atom_site_adp_type
_atom_site_occupancy
Zn1    Zn    0.20660   0.00000   0.21760   0.00000  Uiso   1.00
Zn2    Zn    0.29340   0.00000   0.78240   0.00000  Uiso   1.00
Zn3    Zn    0.00000   0.20660   0.21760   0.00000  Uiso   1.00
Zn4    Zn   -0.00000   0.29340   0.78240   0.00000  Uiso   1.00
Zn5    Zn    0.29340   0.00000   0.21760   0.00000  Uiso   1.00
Zn6    Zn    0.20660   0.00000   0.78240   0.00000  Uiso   1.00
Zn7    Zn    0.00000   0.29340   0.21760   0.00000  Uiso   1.00
Zn8    Zn    0.00000   0.20660   0.78240   0.00000  Uiso   1.00
Zn9    Zn    0.45660   0.25000   0.71760   0.00000  Uiso   1.00
Zn10   Zn    0.04340   0.25000   0.28240   0.00000  Uiso   1.00
Zn11   Zn    0.25000   0.45660   0.71760   0.00000  Uiso   1.00
Zn12   Zn    0.25000   0.04340   0.28240   0.00000  Uiso   1.00
Zn13   Zn    0.04340   0.25000   0.71760   0.00000  Uiso   1.00
Zn14   Zn    0.45660   0.25000   0.28240   0.00000  Uiso   1.00
Zn15   Zn    0.25000   0.04340   0.71760   0.00000  Uiso   1.00
Zn16   Zn    0.25000   0.45660   0.28240   0.00000  Uiso   1.00
C17    C     0.23575   0.02978   0.04154   0.00000  Uiso   1.00
C18    C     0.26425   0.02978   0.95846   0.00000  Uiso   1.00
C19    C     0.47002   0.26385   0.04156   0.00000  Uiso   1.00
C20    C     0.02960   0.26462   0.95848   0.00000  Uiso   1.00
C21    C     0.26425   0.47022   0.04154   0.00000  Uiso   1.00
C22    C     0.23574   0.47022   0.95846   0.00000  Uiso   1.00
C23    C     0.02998   0.23615   0.04156   0.00000  Uiso   1.00
C24    C     0.47040   0.23538   0.95848   0.00000  Uiso   1.00
C25    C     0.48577   0.27979   0.54154   0.00000  Uiso   1.00
C26    C     0.01423   0.27979   0.45846   0.00000  Uiso   1.00
C27    C     0.22021   0.48577   0.54154   0.00000  Uiso   1.00
C28    C     0.22021   0.01423   0.45846   0.00000  Uiso   1.00
C29    C     0.01423   0.22021   0.54154   0.00000  Uiso   1.00
C30    C     0.48577   0.22021   0.45846   0.00000  Uiso   1.00
C31    C     0.27979   0.01423   0.54154   0.00000  Uiso   1.00
C32    C     0.27979   0.48577   0.45846   0.00000  Uiso   1.00
H33    H     0.22456   0.05264   0.02556   0.00000  Uiso   1.00
H34    H     0.27545   0.05264   0.97444   0.00000  Uiso   1.00
H35    H     0.44702   0.27473   0.02559   0.00000  Uiso   1.00
H36    H     0.05232   0.27610   0.97446   0.00000  Uiso   1.00
H37    H     0.27544   0.44736   0.02556   0.00000  Uiso   1.00
H38    H     0.22455   0.44736   0.97444   0.00000  Uiso   1.00
H39    H     0.05298   0.22527   0.02559   0.00000  Uiso   1.00
H40    H     0.44768   0.22390   0.97446   0.00000  Uiso   1.00
H41    H     0.47459   0.30266   0.52557   0.00000  Uiso   1.00
H42    H     0.02541   0.30266   0.47443   0.00000  Uiso   1.00
H43    H     0.19735   0.47458   0.52557   0.00000  Uiso   1.00
H44    H     0.19735   0.02541   0.47443   0.00000  Uiso   1.00
H45    H     0.02541   0.19734   0.52557   0.00000  Uiso   1.00
H46    H     0.47459   0.19734   0.47443   0.00000  Uiso   1.00
H47    H     0.30265   0.02542   0.52557   0.00000  Uiso   1.00
H48    H     0.30265   0.47459   0.47443   0.00000  Uiso   1.00
C49    C     0.23538   0.03005   0.08210   0.00000  Uiso   1.00
C50    C     0.26463   0.03005   0.91790   0.00000  Uiso   1.00
C51    C     0.46975   0.26421   0.08212   0.00000  Uiso   1.00
C52    C     0.02987   0.26499   0.91792   0.00000  Uiso   1.00
C53    C     0.26462   0.46995   0.08210   0.00000  Uiso   1.00
C54    C     0.23537   0.46995   0.91790   0.00000  Uiso   1.00
C55    C     0.03025   0.23579   0.08212   0.00000  Uiso   1.00
C56    C     0.47013   0.23501   0.91792   0.00000  Uiso   1.00
C57    C     0.48540   0.28006   0.58210   0.00000  Uiso   1.00
C58    C     0.01460   0.28006   0.41790   0.00000  Uiso   1.00
C59    C     0.21994   0.48540   0.58210   0.00000  Uiso   1.00
C60    C     0.21994   0.01460   0.41790   0.00000  Uiso   1.00
C61    C     0.01460   0.21994   0.58210   0.00000  Uiso   1.00
C62    C     0.48540   0.21994   0.41790   0.00000  Uiso   1.00
C63    C     0.28006   0.01460   0.58210   0.00000  Uiso   1.00
C64    C     0.28006   0.48540   0.41790   0.00000  Uiso   1.00
O65    O     0.25000   0.00000   0.25000   0.00000  Uiso   1.00
O66    O     0.25000   0.00000   0.75000   0.00000  Uiso   1.00
O67    O     0.00000   0.25000   0.25000   0.00000  Uiso   1.00
O68    O    -0.00000   0.25000   0.75000   0.00000  Uiso   1.00
O69    O     0.25000   0.46964   0.33683   0.00000  Uiso   1.00
O70    O     0.25000   0.03036   0.66317   0.00000  Uiso   1.00
O71    O     0.03036   0.25000   0.33683   0.00000  Uiso   1.00
O72    O     0.46964   0.25000   0.66317   0.00000  Uiso   1.00
O73    O     0.25000   0.03036   0.33683   0.00000  Uiso   1.00
O74    O     0.25000   0.46964   0.66317   0.00000  Uiso   1.00
O75    O     0.46964   0.25000   0.33683   0.00000  Uiso   1.00
O76    O     0.03036   0.25000   0.66317   0.00000  Uiso   1.00
O77    O    -0.00000   0.21964   0.83683   0.00000  Uiso   1.00
O78    O     0.00000   0.28036   0.16317   0.00000  Uiso   1.00
O79    O     0.28036   0.00000   0.83683   0.00000  Uiso   1.00
O80    O     0.21964   0.00000   0.16317   0.00000  Uiso   1.00
O81    O     0.00000   0.28036   0.83683   0.00000  Uiso   1.00
O82    O    -0.00000   0.21964   0.16317   0.00000  Uiso   1.00
O83    O     0.21964   0.00000   0.83683   0.00000  Uiso   1.00
O84    O     0.28036   0.00000   0.16317   0.00000  Uiso   1.00
O85    O     0.20725   0.07307   0.27282   0.00000  Uiso   1.00
O86    O     0.29274   0.42693   0.72718   0.00000  Uiso   1.00
O87    O     0.42693   0.20726   0.27282   0.00000  Uiso   1.00
O88    O     0.07307   0.29275   0.72718   0.00000  Uiso   1.00
O89    O     0.29274   0.42693   0.27282   0.00000  Uiso   1.00
O90    O     0.20725   0.07307   0.72718   0.00000  Uiso   1.00
O91    O     0.07307   0.29275   0.27282   0.00000  Uiso   1.00
O92    O     0.42693   0.20726   0.72718   0.00000  Uiso   1.00
O93    O     0.20725   0.42693   0.72718   0.00000  Uiso   1.00
O94    O     0.29274   0.07307   0.27282   0.00000  Uiso   1.00
O95    O     0.42693   0.29275   0.72718   0.00000  Uiso   1.00
O96    O     0.07307   0.20726   0.27282   0.00000  Uiso   1.00
O97    O     0.29274   0.07307   0.72718   0.00000  Uiso   1.00
O98    O     0.20725   0.42693   0.27282   0.00000  Uiso   1.00
O99    O     0.07307   0.20726   0.72718   0.00000  Uiso   1.00
O100   O     0.42693   0.29275   0.27282   0.00000  Uiso   1.00
O101   O     0.45725   0.32307   0.77282   0.00000  Uiso   1.00
O102   O     0.04274   0.17693   0.22718   0.00000  Uiso   1.00
O103   O     0.17693   0.45726   0.77282   0.00000  Uiso   1.00
O104   O     0.32307   0.04275   0.22718   0.00000  Uiso   1.00
O105   O     0.04274   0.17693   0.77282   0.00000  Uiso   1.00
O106   O     0.45725   0.32307   0.22718   0.00000  Uiso   1.00
O107   O     0.32307   0.04275   0.77282   0.00000  Uiso   1.00
O108   O     0.17693   0.45726   0.22718   0.00000  Uiso   1.00
O109   O     0.45725   0.17693   0.22718   0.00000  Uiso   1.00
O110   O     0.04274   0.32307   0.77282   0.00000  Uiso   1.00
O111   O     0.17693   0.04275   0.22718   0.00000  Uiso   1.00
O112   O     0.32307   0.45726   0.77282   0.00000  Uiso   1.00
O113   O     0.04274   0.32307   0.22718   0.00000  Uiso   1.00
O114   O     0.45725   0.17693   0.77282   0.00000  Uiso   1.00
O115   O     0.32307   0.45726   0.22718   0.00000  Uiso   1.00
O116   O     0.17693   0.04275   0.77282   0.00000  Uiso   1.00
C117   C     0.25000   0.00000   0.02128   0.00000  Uiso   1.00
C118   C     0.25000   0.00000   0.97872   0.00000  Uiso   1.00
C119   C    -0.00000   0.25000   0.02130   0.00000  Uiso   1.00
C120   C    -0.00000   0.25000   0.97874   0.00000  Uiso   1.00
C121   C    -0.00000   0.25000   0.52128   0.00000  Uiso   1.00
C122   C     0.00000   0.25000   0.47872   0.00000  Uiso   1.00
C123   C     0.25000   0.00000   0.52128   0.00000  Uiso   1.00
C124   C     0.25000   0.00000   0.47872   0.00000  Uiso   1.00
C125   C     0.25000   0.00000   0.35508   0.00000  Uiso   1.00
C126   C     0.25000   0.00000   0.64492   0.00000  Uiso   1.00
C127   C    -0.00000   0.25000   0.35508   0.00000  Uiso   1.00
C128   C    -0.00000   0.25000   0.64492   0.00000  Uiso   1.00
C129   C     0.00000   0.25000   0.85509   0.00000  Uiso   1.00
C130   C    -0.00000   0.25000   0.14492   0.00000  Uiso   1.00
C131   C     0.25000   0.00000   0.85508   0.00000  Uiso   1.00
C132   C     0.25000   0.00000   0.14492   0.00000  Uiso   1.00
C133   C     0.17992   0.07009   0.25000   0.00000  Uiso   1.00
C134   C     0.32009   0.42992   0.74999   0.00000  Uiso   1.00
C135   C     0.42992   0.17991   0.25001   0.00000  Uiso   1.00
C136   C     0.07009   0.32008   0.75001   0.00000  Uiso   1.00
C137   C     0.32008   0.42991   0.24999   0.00000  Uiso   1.00
C138   C     0.17991   0.07008   0.74999   0.00000  Uiso   1.00
C139   C     0.07008   0.32009   0.25001   0.00000  Uiso   1.00
C140   C     0.42991   0.17992   0.75001   0.00000  Uiso   1.00
C141   C     0.17992   0.42991   0.75001   0.00000  Uiso   1.00
C142   C     0.32009   0.07008   0.25000   0.00000  Uiso   1.00
C143   C     0.42992   0.32009   0.74999   0.00000  Uiso   1.00
C144   C     0.07009   0.17992   0.24999   0.00000  Uiso   1.00
C145   C     0.32008   0.07009   0.75001   0.00000  Uiso   1.00
C146   C     0.17991   0.42992   0.25000   0.00000  Uiso   1.00
C147   C     0.07008   0.17991   0.74999   0.00000  Uiso   1.00
C148   C     0.42991   0.32008   0.24999   0.00000  Uiso   1.00
C149   C     0.12192   0.40480   0.22493   0.00000  Uiso   1.00
C150   C     0.37779   0.09549   0.77551   0.00000  Uiso   1.00
C151   C     0.09549   0.12220   0.22450   0.00000  Uiso   1.00
C152   C     0.40480   0.37808   0.77507   0.00000  Uiso   1.00
C153   C     0.37808   0.09520   0.22493   0.00000  Uiso   1.00
C154   C     0.12221   0.40451   0.77551   0.00000  Uiso   1.00
C155   C     0.40451   0.37780   0.22450   0.00000  Uiso   1.00
C156   C     0.09520   0.12192   0.77507   0.00000  Uiso   1.00
C157   C     0.12192   0.09520   0.77507   0.00000  Uiso   1.00
C158   C     0.37780   0.40452   0.22450   0.00000  Uiso   1.00
C159   C     0.09550   0.37779   0.77551   0.00000  Uiso   1.00
C160   C     0.40480   0.12192   0.22493   0.00000  Uiso   1.00
C161   C     0.37808   0.40480   0.77507   0.00000  Uiso   1.00
C162   C     0.12220   0.09549   0.22450   0.00000  Uiso   1.00
C163   C     0.40450   0.12221   0.77551   0.00000  Uiso   1.00
C164   C     0.09520   0.37808   0.22493   0.00000  Uiso   1.00
C165   C     0.37216   0.15456   0.72458   0.00000  Uiso   1.00
C166   C     0.12803   0.34525   0.27515   0.00000  Uiso   1.00
C167   C     0.34525   0.37196   0.72486   0.00000  Uiso   1.00
C168   C     0.15456   0.12784   0.27542   0.00000  Uiso   1.00
C169   C     0.12784   0.34544   0.72458   0.00000  Uiso   1.00
C170   C     0.37197   0.15475   0.27515   0.00000  Uiso   1.00
C171   C     0.15475   0.12804   0.72486   0.00000  Uiso   1.00
C172   C     0.34544   0.37216   0.27542   0.00000  Uiso   1.00
C173   C     0.37215   0.34544   0.27541   0.00000  Uiso   1.00
C174   C     0.12803   0.15475   0.72485   0.00000  Uiso   1.00
C175   C     0.34525   0.12804   0.27514   0.00000  Uiso   1.00
C176   C     0.15455   0.37217   0.72457   0.00000  Uiso   1.00
C177   C     0.12785   0.15456   0.27542   0.00000  Uiso   1.00
C178   C     0.37197   0.34525   0.72485   0.00000  Uiso   1.00
C179   C     0.15475   0.37196   0.27514   0.00000  Uiso   1.00
C180   C     0.34545   0.12783   0.72457   0.00000  Uiso   1.00
H181   H     0.11912   0.42767   0.20528   0.00000  Uiso   1.00
H182   H     0.38038   0.07282   0.79545   0.00000  Uiso   1.00
H183   H     0.07281   0.11961   0.20457   0.00000  Uiso   1.00
H184   H     0.42768   0.38088   0.79471   0.00000  Uiso   1.00
H185   H     0.38088   0.07233   0.20528   0.00000  Uiso   1.00
H186   H     0.11962   0.42718   0.79545   0.00000  Uiso   1.00
H187   H     0.42719   0.38039   0.20457   0.00000  Uiso   1.00
H188   H     0.07232   0.11912   0.79471   0.00000  Uiso   1.00
H189   H     0.11912   0.07233   0.79471   0.00000  Uiso   1.00
H190   H     0.38039   0.42719   0.20457   0.00000  Uiso   1.00
H191   H     0.07282   0.38038   0.79545   0.00000  Uiso   1.00
H192   H     0.42767   0.11912   0.20529   0.00000  Uiso   1.00
H193   H     0.38088   0.42767   0.79471   0.00000  Uiso   1.00
H194   H     0.11961   0.07281   0.20457   0.00000  Uiso   1.00
H195   H     0.42718   0.11962   0.79545   0.00000  Uiso   1.00
H196   H     0.07232   0.38088   0.20529   0.00000  Uiso   1.00
H197   H     0.36956   0.17723   0.70465   0.00000  Uiso   1.00
H198   H     0.13082   0.32238   0.29480   0.00000  Uiso   1.00
H199   H     0.32237   0.36916   0.70522   0.00000  Uiso   1.00
H200   H     0.17723   0.13044   0.29536   0.00000  Uiso   1.00
H201   H     0.13044   0.32277   0.70465   0.00000  Uiso   1.00
H202   H     0.36918   0.17762   0.29480   0.00000  Uiso   1.00
H203   H     0.17763   0.13084   0.70522   0.00000  Uiso   1.00
H204   H     0.32277   0.36956   0.29536   0.00000  Uiso   1.00
H205   H     0.36955   0.32276   0.29534   0.00000  Uiso   1.00
H206   H     0.13082   0.17762   0.70520   0.00000  Uiso   1.00
H207   H     0.32237   0.13084   0.29479   0.00000  Uiso   1.00
H208   H     0.17722   0.36957   0.70463   0.00000  Uiso   1.00
H209   H     0.13045   0.17724   0.29534   0.00000  Uiso   1.00
H210   H     0.36918   0.32238   0.70520   0.00000  Uiso   1.00
H211   H     0.17763   0.36916   0.29479   0.00000  Uiso   1.00
H212   H     0.32278   0.13043   0.70463   0.00000  Uiso   1.00
C213   C     0.09812   0.34816   0.25003   0.00000  Uiso   1.00
C214   C     0.40183   0.15188   0.75004   0.00000  Uiso   1.00
C215   C     0.15187   0.09816   0.24997   0.00000  Uiso   1.00
C216   C     0.34816   0.40187   0.74997   0.00000  Uiso   1.00
C217   C     0.40188   0.15184   0.25003   0.00000  Uiso   1.00
C218   C     0.09816   0.34812   0.75004   0.00000  Uiso   1.00
C219   C     0.34813   0.40184   0.24997   0.00000  Uiso   1.00
C220   C     0.15184   0.09813   0.74997   0.00000  Uiso   1.00
C221   C     0.09812   0.15184   0.74997   0.00000  Uiso   1.00
C222   C     0.40184   0.34812   0.24996   0.00000  Uiso   1.00
C223   C     0.15187   0.40184   0.75003   0.00000  Uiso   1.00
C224   C     0.34816   0.09813   0.25002   0.00000  Uiso   1.00
C225   C     0.40188   0.34816   0.74997   0.00000  Uiso   1.00
C226   C     0.09816   0.15188   0.24997   0.00000  Uiso   1.00
C227   C     0.34813   0.09816   0.75003   0.00000  Uiso   1.00
C228   C     0.15184   0.40187   0.25002   0.00000  Uiso   1.00
C229   C     0.25000   0.00000   0.10251   0.00000  Uiso   1.00
C230   C     0.25000   0.00000   0.89749   0.00000  Uiso   1.00
C231   C    -0.00000   0.25000   0.10253   0.00000  Uiso   1.00
C232   C    -0.00000   0.25000   0.89750   0.00000  Uiso   1.00
C233   C    -0.00000   0.25000   0.60251   0.00000  Uiso   1.00
C234   C     0.00000   0.25000   0.39749   0.00000  Uiso   1.00
C235   C     0.25000   0.00000   0.60251   0.00000  Uiso   1.00
C236   C     0.25000   0.00000   0.39749   0.00000  Uiso   1.00
C237   C     0.22005   0.06273   0.10306   0.00000  Uiso   1.00
H238   H     0.19589   0.05458   0.12038   0.00000  Uiso   1.00
H239   H     0.24105   0.07440   0.12266   0.00000  Uiso   1.00
H240   H     0.21141   0.08441   0.08254   0.00000  Uiso   1.00
C241   C     0.27995   0.06272   0.89694   0.00000  Uiso   1.00
H242   H     0.28860   0.08441   0.91746   0.00000  Uiso   1.00
H243   H     0.30412   0.05457   0.87962   0.00000  Uiso   1.00
H244   H     0.25896   0.07440   0.87734   0.00000  Uiso   1.00
C245   C     0.43689   0.27910   0.10310   0.00000  Uiso   1.00
H246   H     0.44474   0.30332   0.12049   0.00000  Uiso   1.00
H247   H     0.41511   0.28752   0.08259   0.00000  Uiso   1.00
H248   H     0.42546   0.25792   0.12265   0.00000  Uiso   1.00
C249   C     0.06237   0.28071   0.89697   0.00000  Uiso   1.00
H250   H     0.07427   0.25988   0.87732   0.00000  Uiso   1.00
H251   H     0.05396   0.30482   0.87971   0.00000  Uiso   1.00
H252   H     0.08397   0.28955   0.91750   0.00000  Uiso   1.00
C253   C     0.27995   0.43727   0.10306   0.00000  Uiso   1.00
H254   H     0.30411   0.44542   0.12038   0.00000  Uiso   1.00
H255   H     0.25895   0.42560   0.12266   0.00000  Uiso   1.00
H256   H     0.28859   0.41559   0.08254   0.00000  Uiso   1.00
C257   C     0.22005   0.43728   0.89694   0.00000  Uiso   1.00
H258   H     0.19588   0.44543   0.87962   0.00000  Uiso   1.00
H259   H     0.24104   0.42560   0.87734   0.00000  Uiso   1.00
H260   H     0.21140   0.41559   0.91746   0.00000  Uiso   1.00
C261   C     0.06311   0.22090   0.10310   0.00000  Uiso   1.00
H262   H     0.05526   0.19668   0.12049   0.00000  Uiso   1.00
H263   H     0.08489   0.21248   0.08259   0.00000  Uiso   1.00
H264   H     0.07454   0.24208   0.12265   0.00000  Uiso   1.00
C265   C     0.43763   0.21929   0.89697   0.00000  Uiso   1.00
H266   H     0.44604   0.19518   0.87971   0.00000  Uiso   1.00
H267   H     0.41603   0.21045   0.91750   0.00000  Uiso   1.00
H268   H     0.42573   0.24012   0.87732   0.00000  Uiso   1.00
C269   C     0.47010   0.31275   0.60307   0.00000  Uiso   1.00
H270   H     0.46147   0.33444   0.58254   0.00000  Uiso   1.00
H271   H     0.44594   0.30462   0.62039   0.00000  Uiso   1.00
H272   H     0.49111   0.32441   0.62266   0.00000  Uiso   1.00
C273   C     0.02990   0.31275   0.39693   0.00000  Uiso   1.00
H274   H     0.05406   0.30462   0.37961   0.00000  Uiso   1.00
H275   H     0.00889   0.32441   0.37734   0.00000  Uiso   1.00
H276   H     0.03853   0.33444   0.41746   0.00000  Uiso   1.00
C277   C     0.18725   0.47010   0.60307   0.00000  Uiso   1.00
H278   H     0.17559   0.49110   0.62266   0.00000  Uiso   1.00
H279   H     0.16557   0.46146   0.58254   0.00000  Uiso   1.00
H280   H     0.19539   0.44593   0.62039   0.00000  Uiso   1.00
C281   C     0.18725   0.02990   0.39693   0.00000  Uiso   1.00
H282   H     0.17559   0.00890   0.37734   0.00000  Uiso   1.00
H283   H     0.16557   0.03854   0.41746   0.00000  Uiso   1.00
H284   H     0.19539   0.05407   0.37961   0.00000  Uiso   1.00
C285   C     0.02990   0.18725   0.60307   0.00000  Uiso   1.00
H286   H     0.05406   0.19538   0.62039   0.00000  Uiso   1.00
H287   H     0.00889   0.17559   0.62266   0.00000  Uiso   1.00
H288   H     0.03853   0.16556   0.58254   0.00000  Uiso   1.00
C289   C     0.47010   0.18725   0.39693   0.00000  Uiso   1.00
H290   H     0.44594   0.19538   0.37961   0.00000  Uiso   1.00
H291   H     0.49111   0.17559   0.37734   0.00000  Uiso   1.00
H292   H     0.46147   0.16556   0.41746   0.00000  Uiso   1.00
C293   C     0.31275   0.02990   0.60307   0.00000  Uiso   1.00
H294   H     0.30461   0.05407   0.62039   0.00000  Uiso   1.00
H295   H     0.32441   0.00890   0.62266   0.00000  Uiso   1.00
H296   H     0.33443   0.03854   0.58254   0.00000  Uiso   1.00
C297   C     0.31275   0.47010   0.39693   0.00000  Uiso   1.00
H298   H     0.32441   0.49110   0.37734   0.00000  Uiso   1.00
H299   H     0.33443   0.46146   0.41746   0.00000  Uiso   1.00
H300   H     0.30461   0.44593   0.37961   0.00000  Uiso   1.00
Zn301  Zn    0.70660   0.00000   0.21760   0.00000  Uiso   1.00
Zn302  Zn    0.79340   0.00000   0.78240   0.00000  Uiso   1.00
Zn303  Zn    0.50000   0.20660   0.21760   0.00000  Uiso   1.00
Zn304  Zn    0.50000   0.29340   0.78240   0.00000  Uiso   1.00
Zn305  Zn    0.79340   0.00000   0.21760   0.00000  Uiso   1.00
Zn306  Zn    0.70660   0.00000   0.78240   0.00000  Uiso   1.00
Zn307  Zn    0.50000   0.29340   0.21760   0.00000  Uiso   1.00
Zn308  Zn    0.50000   0.20660   0.78240   0.00000  Uiso   1.00
Zn309  Zn    0.95660   0.25000   0.71760   0.00000  Uiso   1.00
Zn310  Zn    0.54340   0.25000   0.28240   0.00000  Uiso   1.00
Zn311  Zn    0.75000   0.45660   0.71760   0.00000  Uiso   1.00
Zn312  Zn    0.75000   0.04340   0.28240   0.00000  Uiso   1.00
Zn313  Zn    0.54340   0.25000   0.71760   0.00000  Uiso   1.00
Zn314  Zn    0.95660   0.25000   0.28240   0.00000  Uiso   1.00
Zn315  Zn    0.75000   0.04340   0.71760   0.00000  Uiso   1.00
Zn316  Zn    0.75000   0.45660   0.28240   0.00000  Uiso   1.00
C317   C     0.73575   0.02978   0.04154   0.00000  Uiso   1.00
C318   C     0.76425   0.02978   0.95846   0.00000  Uiso   1.00
C319   C     0.97002   0.26385   0.04156   0.00000  Uiso   1.00
C320   C     0.52960   0.26462   0.95848   0.00000  Uiso   1.00
C321   C     0.76425   0.47022   0.04154   0.00000  Uiso   1.00
C322   C     0.73574   0.47022   0.95846   0.00000  Uiso   1.00
C323   C     0.52998   0.23615   0.04156   0.00000  Uiso   1.00
C324   C     0.97040   0.23538   0.95848   0.00000  Uiso   1.00
C325   C     0.98577   0.27979   0.54154   0.00000  Uiso   1.00
C326   C     0.51423   0.27979   0.45846   0.00000  Uiso   1.00
C327   C     0.72021   0.48577   0.54154   0.00000  Uiso   1.00
C328   C     0.72021   0.01423   0.45846   0.00000  Uiso   1.00
C329   C     0.51423   0.22021   0.54154   0.00000  Uiso   1.00
C330   C     0.98577   0.22021   0.45846   0.00000  Uiso   1.00
C331   C     0.77979   0.01423   0.54154   0.00000  Uiso   1.00
C332   C     0.77979   0.48577   0.45846   0.00000  Uiso   1.00
H333   H     0.72456   0.05264   0.02556   0.00000  Uiso   1.00
H334   H     0.77545   0.05264   0.97444   0.00000  Uiso   1.00
H335   H     0.94702   0.27473   0.02559   0.00000  Uiso   1.00
H336   H     0.55232   0.27610   0.97446   0.00000  Uiso   1.00
H337   H     0.77544   0.44736   0.02556   0.00000  Uiso   1.00
H338   H     0.72455   0.44736   0.97444   0.00000  Uiso   1.00
H339   H     0.55298   0.22527   0.02559   0.00000  Uiso   1.00
H340   H     0.94768   0.22390   0.97446   0.00000  Uiso   1.00
H341   H     0.97459   0.30266   0.52557   0.00000  Uiso   1.00
H342   H     0.52541   0.30266   0.47443   0.00000  Uiso   1.00
H343   H     0.69735   0.47458   0.52557   0.00000  Uiso   1.00
H344   H     0.69735   0.02541   0.47443   0.00000  Uiso   1.00
H345   H     0.52541   0.19734   0.52557   0.00000  Uiso   1.00
H346   H     0.97459   0.19734   0.47443   0.00000  Uiso   1.00
H347   H     0.80265   0.02542   0.52557   0.00000  Uiso   1.00
H348   H     0.80265   0.47459   0.47443   0.00000  Uiso   1.00
C349   C     0.73538   0.03005   0.08210   0.00000  Uiso   1.00
C350   C     0.76463   0.03005   0.91790   0.00000  Uiso   1.00
C351   C     0.96975   0.26421   0.08212   0.00000  Uiso   1.00
C352   C     0.52987   0.26499   0.91792   0.00000  Uiso   1.00
C353   C     0.76462   0.46995   0.08210   0.00000  Uiso   1.00
C354   C     0.73537   0.46995   0.91790   0.00000  Uiso   1.00
C355   C     0.53025   0.23579   0.08212   0.00000  Uiso   1.00
C356   C     0.97013   0.23501   0.91792   0.00000  Uiso   1.00
C357   C     0.98540   0.28006   0.58210   0.00000  Uiso   1.00
C358   C     0.51460   0.28006   0.41790   0.00000  Uiso   1.00
C359   C     0.71994   0.48540   0.58210   0.00000  Uiso   1.00
C360   C     0.71994   0.01460   0.41790   0.00000  Uiso   1.00
C361   C     0.51460   0.21994   0.58210   0.00000  Uiso   1.00
C362   C     0.98540   0.21994   0.41790   0.00000  Uiso   1.00
C363   C     0.78006   0.01460   0.58210   0.00000  Uiso   1.00
C364   C     0.78006   0.48540   0.41790   0.00000  Uiso   1.00
O365   O     0.75000   0.00000   0.25000   0.00000  Uiso   1.00
O366   O     0.75000   0.00000   0.75000   0.00000  Uiso   1.00
O367   O     0.50000   0.25000   0.25000   0.00000  Uiso   1.00
O368   O     0.50000   0.25000   0.75000   0.00000  Uiso   1.00
O369   O     0.75000   0.46964   0.33683   0.00000  Uiso   1.00
O370   O     0.75000   0.03036   0.66317   0.00000  Uiso   1.00
O371   O     0.53036   0.25000   0.33683   0.00000  Uiso   1.00
O372   O     0.96964   0.25000   0.66317   0.00000  Uiso   1.00
O373   O     0.75000   0.03036   0.33683   0.00000  Uiso   1.00
O374   O     0.75000   0.46964   0.66317   0.00000  Uiso   1.00
O375   O     0.96964   0.25000   0.33683   0.00000  Uiso   1.00
O376   O     0.53036   0.25000   0.66317   0.00000  Uiso   1.00
O377   O     0.50000   0.21964   0.83683   0.00000  Uiso   1.00
O378   O     0.50000   0.28036   0.16317   0.00000  Uiso   1.00
O379   O     0.78036   0.00000   0.83683   0.00000  Uiso   1.00
O380   O     0.71964   0.00000   0.16317   0.00000  Uiso   1.00
O381   O     0.50000   0.28036   0.83683   0.00000  Uiso   1.00
O382   O     0.50000   0.21964   0.16317   0.00000  Uiso   1.00
O383   O     0.71964   0.00000   0.83683   0.00000  Uiso   1.00
O384   O     0.78036   0.00000   0.16317   0.00000  Uiso   1.00
O385   O     0.70725   0.07307   0.27282   0.00000  Uiso   1.00
O386   O     0.79274   0.42693   0.72718   0.00000  Uiso   1.00
O387   O     0.92693   0.20726   0.27282   0.00000  Uiso   1.00
O388   O     0.57307   0.29275   0.72718   0.00000  Uiso   1.00
O389   O     0.79274   0.42693   0.27282   0.00000  Uiso   1.00
O390   O     0.70725   0.07307   0.72718   0.00000  Uiso   1.00
O391   O     0.57307   0.29275   0.27282   0.00000  Uiso   1.00
O392   O     0.92693   0.20726   0.72718   0.00000  Uiso   1.00
O393   O     0.70725   0.42693   0.72718   0.00000  Uiso   1.00
O394   O     0.79274   0.07307   0.27282   0.00000  Uiso   1.00
O395   O     0.92693   0.29275   0.72718   0.00000  Uiso   1.00
O396   O     0.57307   0.20726   0.27282   0.00000  Uiso   1.00
O397   O     0.79274   0.07307   0.72718   0.00000  Uiso   1.00
O398   O     0.70725   0.42693   0.27282   0.00000  Uiso   1.00
O399   O     0.57307   0.20726   0.72718   0.00000  Uiso   1.00
O400   O     0.92693   0.29275   0.27282   0.00000  Uiso   1.00
O401   O     0.95725   0.32307   0.77282   0.00000  Uiso   1.00
O402   O     0.54274   0.17693   0.22718   0.00000  Uiso   1.00
O403   O     0.67693   0.45726   0.77282   0.00000  Uiso   1.00
O404   O     0.82307   0.04275   0.22718   0.00000  Uiso   1.00
O405   O     0.54274   0.17693   0.77282   0.00000  Uiso   1.00
O406   O     0.95725   0.32307   0.22718   0.00000  Uiso   1.00
O407   O     0.82307   0.04275   0.77282   0.00000  Uiso   1.00
O408   O     0.67693   0.45726   0.22718   0.00000  Uiso   1.00
O409   O     0.95725   0.17693   0.22718   0.00000  Uiso   1.00
O410   O     0.54274   0.32307   0.77282   0.00000  Uiso   1.00
O411   O     0.67693   0.04275   0.22718   0.00000  Uiso   1.00
O412   O     0.82307   0.45726   0.77282   0.00000  Uiso   1.00
O413   O     0.54274   0.32307   0.22718   0.00000  Uiso   1.00
O414   O     0.95725   0.17693   0.77282   0.00000  Uiso   1.00
O415   O     0.82307   0.45726   0.22718   0.00000  Uiso   1.00
O416   O     0.67693   0.04275   0.77282   0.00000  Uiso   1.00
C417   C     0.75000   0.00000   0.02128   0.00000  Uiso   1.00
C418   C     0.75000   0.00000   0.97872   0.00000  Uiso   1.00
C419   C     0.50000   0.25000   0.02130   0.00000  Uiso   1.00
C420   C     0.50000   0.25000   0.97874   0.00000  Uiso   1.00
C421   C     0.50000   0.25000   0.52128   0.00000  Uiso   1.00
C422   C     0.50000   0.25000   0.47872   0.00000  Uiso   1.00
C423   C     0.75000   0.00000   0.52128   0.00000  Uiso   1.00
C424   C     0.75000   0.00000   0.47872   0.00000  Uiso   1.00
C425   C     0.75000   0.00000   0.35508   0.00000  Uiso   1.00
C426   C     0.75000   0.00000   0.64492   0.00000  Uiso   1.00
C427   C     0.50000   0.25000   0.35508   0.00000  Uiso   1.00
C428   C     0.50000   0.25000   0.64492   0.00000  Uiso   1.00
C429   C     0.50000   0.25000   0.85509   0.00000  Uiso   1.00
C430   C     0.50000   0.25000   0.14492   0.00000  Uiso   1.00
C431   C     0.75000   0.00000   0.85508   0.00000  Uiso   1.00
C432   C     0.75000   0.00000   0.14492   0.00000  Uiso   1.00
C433   C     0.67992   0.07009   0.25000   0.00000  Uiso   1.00
C434   C     0.82009   0.42992   0.74999   0.00000  Uiso   1.00
C435   C     0.92992   0.17991   0.25001   0.00000  Uiso   1.00
C436   C     0.57009   0.32008   0.75001   0.00000  Uiso   1.00
C437   C     0.82008   0.42991   0.24999   0.00000  Uiso   1.00
C438   C     0.67991   0.07008   0.74999   0.00000  Uiso   1.00
C439   C     0.57008   0.32009   0.25001   0.00000  Uiso   1.00
C440   C     0.92991   0.17992   0.75001   0.00000  Uiso   1.00
C441   C     0.67992   0.42991   0.75001   0.00000  Uiso   1.00
C442   C     0.82009   0.07008   0.25000   0.00000  Uiso   1.00
C443   C     0.92992   0.32009   0.74999   0.00000  Uiso   1.00
C444   C     0.57009   0.17992   0.24999   0.00000  Uiso   1.00
C445   C     0.82008   0.07009   0.75001   0.00000  Uiso   1.00
C446   C     0.67991   0.42992   0.25000   0.00000  Uiso   1.00
C447   C     0.57008   0.17991   0.74999   0.00000  Uiso   1.00
C448   C     0.92991   0.32008   0.24999   0.00000  Uiso   1.00
C449   C     0.62192   0.40480   0.22493   0.00000  Uiso   1.00
C450   C     0.87779   0.09549   0.77551   0.00000  Uiso   1.00
C451   C     0.59549   0.12220   0.22450   0.00000  Uiso   1.00
C452   C     0.90480   0.37808   0.77507   0.00000  Uiso   1.00
C453   C     0.87808   0.09520   0.22493   0.00000  Uiso   1.00
C454   C     0.62221   0.40451   0.77551   0.00000  Uiso   1.00
C455   C     0.90451   0.37780   0.22450   0.00000  Uiso   1.00
C456   C     0.59520   0.12192   0.77507   0.00000  Uiso   1.00
C457   C     0.62192   0.09520   0.77507   0.00000  Uiso   1.00
C458   C     0.87780   0.40452   0.22450   0.00000  Uiso   1.00
C459   C     0.59550   0.37779   0.77551   0.00000  Uiso   1.00
C460   C     0.90480   0.12192   0.22493   0.00000  Uiso   1.00
C461   C     0.87808   0.40480   0.77507   0.00000  Uiso   1.00
C462   C     0.62220   0.09549   0.22450   0.00000  Uiso   1.00
C463   C     0.90450   0.12221   0.77551   0.00000  Uiso   1.00
C464   C     0.59520   0.37808   0.22493   0.00000  Uiso   1.00
C465   C     0.87216   0.15456   0.72458   0.00000  Uiso   1.00
C466   C     0.62803   0.34525   0.27515   0.00000  Uiso   1.00
C467   C     0.84525   0.37196   0.72486   0.00000  Uiso   1.00
C468   C     0.65456   0.12784   0.27542   0.00000  Uiso   1.00
C469   C     0.62784   0.34544   0.72458   0.00000  Uiso   1.00
C470   C     0.87197   0.15475   0.27515   0.00000  Uiso   1.00
C471   C     0.65475   0.12804   0.72486   0.00000  Uiso   1.00
C472   C     0.84544   0.37216   0.27542   0.00000  Uiso   1.00
C473   C     0.87215   0.34544   0.27541   0.00000  Uiso   1.00
C474   C     0.62803   0.15475   0.72485   0.00000  Uiso   1.00
C475   C     0.84525   0.12804   0.27514   0.00000  Uiso   1.00
C476   C     0.65455   0.37217   0.72457   0.00000  Uiso   1.00
C477   C     0.62785   0.15456   0.27542   0.00000  Uiso   1.00
C478   C     0.87197   0.34525   0.72485   0.00000  Uiso   1.00
C479   C     0.65475   0.37196   0.27514   0.00000  Uiso   1.00
C480   C     0.84545   0.12783   0.72457   0.00000  Uiso   1.00
H481   H     0.61912   0.42767   0.20528   0.00000  Uiso   1.00
H482   H     0.88038   0.07282   0.79545   0.00000  Uiso   1.00
H483   H     0.57281   0.11961   0.20457   0.00000  Uiso   1.00
H484   H     0.92768   0.38088   0.79471   0.00000  Uiso   1.00
H485   H     0.88088   0.07233   0.20528   0.00000  Uiso   1.00
H486   H     0.61962   0.42718   0.79545   0.00000  Uiso   1.00
H487   H     0.92719   0.38039   0.20457   0.00000  Uiso   1.00
H488   H     0.57232   0.11912   0.79471   0.00000  Uiso   1.00
H489   H     0.61912   0.07233   0.79471   0.00000  Uiso   1.00
H490   H     0.88039   0.42719   0.20457   0.00000  Uiso   1.00
H491   H     0.57282   0.38038   0.79545   0.00000  Uiso   1.00
H492   H     0.92767   0.11912   0.20529   0.00000  Uiso   1.00
H493   H     0.88088   0.42767   0.79471   0.00000  Uiso   1.00
H494   H     0.61961   0.07281   0.20457   0.00000  Uiso   1.00
H495   H     0.92718   0.11962   0.79545   0.00000  Uiso   1.00
H496   H     0.57232   0.38088   0.20529   0.00000  Uiso   1.00
H497   H     0.86956   0.17723   0.70465   0.00000  Uiso   1.00
H498   H     0.63082   0.32238   0.29480   0.00000  Uiso   1.00
H499   H     0.82237   0.36916   0.70522   0.00000  Uiso   1.00
H500   H     0.67723   0.13044   0.29536   0.00000  Uiso   1.00
H501   H     0.63044   0.32277   0.70465   0.00000  Uiso   1.00
H502   H     0.86918   0.17762   0.29480   0.00000  Uiso   1.00
H503   H     0.67763   0.13084   0.70522   0.00000  Uiso   1.00
H504   H     0.82277   0.36956   0.29536   0.00000  Uiso   1.00
H505   H     0.86955   0.32276   0.29534   0.00000  Uiso   1.00
H506   H     0.63082   0.17762   0.70520   0.00000  Uiso   1.00
H507   H     0.82237   0.13084   0.29479   0.00000  Uiso   1.00
H508   H     0.67722   0.36957   0.70463   0.00000  Uiso   1.00
H509   H     0.63045   0.17724   0.29534   0.00000  Uiso   1.00
H510   H     0.86918   0.32238   0.70520   0.00000  Uiso   1.00
H511   H     0.67763   0.36916   0.29479   0.00000  Uiso   1.00
H512   H     0.82278   0.13043   0.70463   0.00000  Uiso   1.00
C513   C     0.59812   0.34816   0.25003   0.00000  Uiso   1.00
C514   C     0.90183   0.15188   0.75004   0.00000  Uiso   1.00
C515   C     0.65187   0.09816   0.24997   0.00000  Uiso   1.00
C516   C     0.84816   0.40187   0.74997   0.00000  Uiso   1.00
C517   C     0.90188   0.15184   0.25003   0.00000  Uiso   1.00
C518   C     0.59816   0.34812   0.75004   0.00000  Uiso   1.00
C519   C     0.84813   0.40184   0.24997   0.00000  Uiso   1.00
C520   C     0.65184   0.09813   0.74997   0.00000  Uiso   1.00
C521   C     0.59812   0.15184   0.74997   0.00000  Uiso   1.00
C522   C     0.90184   0.34812   0.24996   0.00000  Uiso   1.00
C523   C     0.65187   0.40184   0.75003   0.00000  Uiso   1.00
C524   C     0.84816   0.09813   0.25002   0.00000  Uiso   1.00
C525   C     0.90188   0.34816   0.74997   0.00000  Uiso   1.00
C526   C     0.59816   0.15188   0.24997   0.00000  Uiso   1.00
C527   C     0.84813   0.09816   0.75003   0.00000  Uiso   1.00
C528   C     0.65184   0.40187   0.25002   0.00000  Uiso   1.00
C529   C     0.75000   0.00000   0.10251   0.00000  Uiso   1.00
C530   C     0.75000   0.00000   0.89749   0.00000  Uiso   1.00
C531   C     0.50000   0.25000   0.10253   0.00000  Uiso   1.00
C532   C     0.50000   0.25000   0.89750   0.00000  Uiso   1.00
C533   C     0.50000   0.25000   0.60251   0.00000  Uiso   1.00
C534   C     0.50000   0.25000   0.39749   0.00000  Uiso   1.00
C535   C     0.75000   0.00000   0.60251   0.00000  Uiso   1.00
C536   C     0.75000   0.00000   0.39749   0.00000  Uiso   1.00
C537   C     0.72005   0.06273   0.10306   0.00000  Uiso   1.00
H538   H     0.69589   0.05458   0.12038   0.00000  Uiso   1.00
H539   H     0.74105   0.07440   0.12266   0.00000  Uiso   1.00
H540   H     0.71141   0.08441   0.08254   0.00000  Uiso   1.00
C541   C     0.77995   0.06272   0.89694   0.00000  Uiso   1.00
H542   H     0.78860   0.08441   0.91746   0.00000  Uiso   1.00
H543   H     0.80412   0.05457   0.87962   0.00000  Uiso   1.00
H544   H     0.75896   0.07440   0.87734   0.00000  Uiso   1.00
C545   C     0.93689   0.27910   0.10310   0.00000  Uiso   1.00
H546   H     0.94474   0.30332   0.12049   0.00000  Uiso   1.00
H547   H     0.91511   0.28752   0.08259   0.00000  Uiso   1.00
H548   H     0.92546   0.25792   0.12265   0.00000  Uiso   1.00
C549   C     0.56237   0.28071   0.89697   0.00000  Uiso   1.00
H550   H     0.57427   0.25988   0.87732   0.00000  Uiso   1.00
H551   H     0.55396   0.30482   0.87971   0.00000  Uiso   1.00
H552   H     0.58397   0.28955   0.91750   0.00000  Uiso   1.00
C553   C     0.77995   0.43727   0.10306   0.00000  Uiso   1.00
H554   H     0.80411   0.44542   0.12038   0.00000  Uiso   1.00
H555   H     0.75895   0.42560   0.12266   0.00000  Uiso   1.00
H556   H     0.78859   0.41559   0.08254   0.00000  Uiso   1.00
C557   C     0.72005   0.43728   0.89694   0.00000  Uiso   1.00
H558   H     0.69588   0.44543   0.87962   0.00000  Uiso   1.00
H559   H     0.74104   0.42560   0.87734   0.00000  Uiso   1.00
H560   H     0.71140   0.41559   0.91746   0.00000  Uiso   1.00
C561   C     0.56311   0.22090   0.10310   0.00000  Uiso   1.00
H562   H     0.55526   0.19668   0.12049   0.00000  Uiso   1.00
H563   H     0.58489   0.21248   0.08259   0.00000  Uiso   1.00
H564   H     0.57454   0.24208   0.12265   0.00000  Uiso   1.00
C565   C     0.93763   0.21929   0.89697   0.00000  Uiso   1.00
H566   H     0.94604   0.19518   0.87971   0.00000  Uiso   1.00
H567   H     0.91603   0.21045   0.91750   0.00000  Uiso   1.00
H568   H     0.92573   0.24012   0.87732   0.00000  Uiso   1.00
C569   C     0.97010   0.31275   0.60307   0.00000  Uiso   1.00
H570   H     0.96147   0.33444   0.58254   0.00000  Uiso   1.00
H571   H     0.94594   0.30462   0.62039   0.00000  Uiso   1.00
H572   H     0.99111   0.32441   0.62266   0.00000  Uiso   1.00
C573   C     0.52990   0.31275   0.39693   0.00000  Uiso   1.00
H574   H     0.55406   0.30462   0.37961   0.00000  Uiso   1.00
H575   H     0.50889   0.32441   0.37734   0.00000  Uiso   1.00
H576   H     0.53853   0.33444   0.41746   0.00000  Uiso   1.00
C577   C     0.68725   0.47010   0.60307   0.00000  Uiso   1.00
H578   H     0.67559   0.49110   0.62266   0.00000  Uiso   1.00
H579   H     0.66557   0.46146   0.58254   0.00000  Uiso   1.00
H580   H     0.69539   0.44593   0.62039   0.00000  Uiso   1.00
C581   C     0.68725   0.02990   0.39693   0.00000  Uiso   1.00
H582   H     0.67559   0.00890   0.37734   0.00000  Uiso   1.00
H583   H     0.66557   0.03854   0.41746   0.00000  Uiso   1.00
H584   H     0.69539   0.05407   0.37961   0.00000  Uiso   1.00
C585   C     0.52990   0.18725   0.60307   0.00000  Uiso   1.00
H586   H     0.55406   0.19538   0.62039   0.00000  Uiso   1.00
H587   H     0.50889   0.17559   0.62266   0.00000  Uiso   1.00
H588   H     0.53853   0.16556   0.58254   0.00000  Uiso   1.00
C589   C     0.97010   0.18725   0.39693   0.00000  Uiso   1.00
H590   H     0.94594   0.19538   0.37961   0.00000  Uiso   1.00
H591   H     0.99111   0.17559   0.37734   0.00000  Uiso   1.00
H592   H     0.96147   0.16556   0.41746   0.00000  Uiso   1.00
C593   C     0.81275   0.02990   0.60307   0.00000  Uiso   1.00
H594   H     0.80461   0.05407   0.62039   0.00000  Uiso   1.00
H595   H     0.82441   0.00890   0.62266   0.00000  Uiso   1.00
H596   H     0.83443   0.03854   0.58254   0.00000  Uiso   1.00
C597   C     0.81275   0.47010   0.39693   0.00000  Uiso   1.00
H598   H     0.82441   0.49110   0.37734   0.00000  Uiso   1.00
H599   H     0.83443   0.46146   0.41746   0.00000  Uiso   1.00
H600   H     0.80461   0.44593   0.37961   0.00000  Uiso   1.00
Zn601  Zn    0.20660   0.50000   0.21760   0.00000  Uiso   1.00
Zn602  Zn    0.29340   0.50000   0.78240   0.00000  Uiso   1.00
Zn603  Zn    0.00000   0.70660   0.21760   0.00000  Uiso   1.00
Zn604  Zn   -0.00000   0.79340   0.78240   0.00000  Uiso   1.00
Zn605  Zn    0.29340   0.50000   0.21760   0.00000  Uiso   1.00
Zn606  Zn    0.20660   0.50000   0.78240   0.00000  Uiso   1.00
Zn607  Zn    0.00000   0.79340   0.21760   0.00000  Uiso   1.00
Zn608  Zn    0.00000   0.70660   0.78240   0.00000  Uiso   1.00
Zn609  Zn    0.45660   0.75000   0.71760   0.00000  Uiso   1.00
Zn610  Zn    0.04340   0.75000   0.28240   0.00000  Uiso   1.00
Zn611  Zn    0.25000   0.95660   0.71760   0.00000  Uiso   1.00
Zn612  Zn    0.25000   0.54340   0.28240   0.00000  Uiso   1.00
Zn613  Zn    0.04340   0.75000   0.71760   0.00000  Uiso   1.00
Zn614  Zn    0.45660   0.75000   0.28240   0.00000  Uiso   1.00
Zn615  Zn    0.25000   0.54340   0.71760   0.00000  Uiso   1.00
Zn616  Zn    0.25000   0.95660   0.28240   0.00000  Uiso   1.00
C617   C     0.23575   0.52978   0.04154   0.00000  Uiso   1.00
C618   C     0.26425   0.52978   0.95846   0.00000  Uiso   1.00
C619   C     0.47002   0.76385   0.04156   0.00000  Uiso   1.00
C620   C     0.02960   0.76462   0.95848   0.00000  Uiso   1.00
C621   C     0.26425   0.97022   0.04154   0.00000  Uiso   1.00
C622   C     0.23574   0.97022   0.95846   0.00000  Uiso   1.00
C623   C     0.02998   0.73615   0.04156   0.00000  Uiso   1.00
C624   C     0.47040   0.73538   0.95848   0.00000  Uiso   1.00
C625   C     0.48577   0.77979   0.54154   0.00000  Uiso   1.00
C626   C     0.01423   0.77979   0.45846   0.00000  Uiso   1.00
C627   C     0.22021   0.98577   0.54154   0.00000  Uiso   1.00
C628   C     0.22021   0.51423   0.45846   0.00000  Uiso   1.00
C629   C     0.01423   0.72021   0.54154   0.00000  Uiso   1.00
C630   C     0.48577   0.72021   0.45846   0.00000  Uiso   1.00
C631   C     0.27979   0.51423   0.54154   0.00000  Uiso   1.00
C632   C     0.27979   0.98577   0.45846   0.00000  Uiso   1.00
H633   H     0.22456   0.55264   0.02556   0.00000  Uiso   1.00
H634   H     0.27545   0.55264   0.97444   0.00000  Uiso   1.00
H635   H     0.44702   0.77473   0.02559   0.00000  Uiso   1.00
H636   H     0.05232   0.77610   0.97446   0.00000  Uiso   1.00
H637   H     0.27544   0.94736   0.02556   0.00000  Uiso   1.00
H638   H     0.22455   0.94736   0.97444   0.00000  Uiso   1.00
H639   H     0.05298   0.72527   0.02559   0.00000  Uiso   1.00
H640   H     0.44768   0.72390   0.97446   0.00000  Uiso   1.00
H641   H     0.47459   0.80266   0.52557   0.00000  Uiso   1.00
H642   H     0.02541   0.80266   0.47443   0.00000  Uiso   1.00
H643   H     0.19735   0.97458   0.52557   0.00000  Uiso   1.00
H644   H     0.19735   0.52541   0.47443   0.00000  Uiso   1.00
H645   H     0.02541   0.69734   0.52557   0.00000  Uiso   1.00
H646   H     0.47459   0.69734   0.47443   0.00000  Uiso   1.00
H647   H     0.30265   0.52542   0.52557   0.00000  Uiso   1.00
H648   H     0.30265   0.97459   0.47443   0.00000  Uiso   1.00
C649   C     0.23538   0.53005   0.08210   0.00000  Uiso   1.00
C650   C     0.26463   0.53005   0.91790   0.00000  Uiso   1.00
C651   C     0.46975   0.76421   0.08212   0.00000  Uiso   1.00
C652   C     0.02987   0.76499   0.91792   0.00000  Uiso   1.00
C653   C     0.26462   0.96995   0.08210   0.00000  Uiso   1.00
C654   C     0.23537   0.96995   0.91790   0.00000  Uiso   1.00
C655   C     0.03025   0.73579   0.08212   0.00000  Uiso   1.00
C656   C     0.47013   0.73501   0.91792   0.00000  Uiso   1.00
C657   C     0.48540   0.78006   0.58210   0.00000  Uiso   1.00
C658   C     0.01460   0.78006   0.41790   0.00000  Uiso   1.00
C659   C     0.21994   0.98540   0.58210   0.00000  Uiso   1.00
C660   C     0.21994   0.51460   0.41790   0.00000  Uiso   1.00
C661   C     0.01460   0.71994   0.58210   0.00000  Uiso   1.00
C662   C     0.48540   0.71994   0.41790   0.00000  Uiso   1.00
C663   C     0.28006   0.51460   0.58210   0.00000  Uiso   1.00
C664   C     0.28006   0.98540   0.41790   0.00000  Uiso   1.00
O665   O     0.25000   0.50000   0.25000   0.00000  Uiso   1.00
O666   O     0.25000   0.50000   0.75000   0.00000  Uiso   1.00
O667   O     0.00000   0.75000   0.25000   0.00000  Uiso   1.00
O668   O    -0.00000   0.75000   0.75000   0.00000  Uiso   1.00
O669   O     0.25000   0.96964   0.33683   0.00000  Uiso   1.00
O670   O     0.25000   0.53036   0.66317   0.00000  Uiso   1.00
O671   O     0.03036   0.75000   0.33683   0.00000  Uiso   1.00
O672   O     0.46964   0.75000   0.66317   0.00000  Uiso   1.00
O673   O     0.25000   0.53036   0.33683   0.00000  Uiso   1.00
O674   O     0.25000   0.96964   0.66317   0.00000  Uiso   1.00
O675   O     0.46964   0.75000   0.33683   0.00000  Uiso   1.00
O676   O     0.03036   0.75000   0.66317   0.00000  Uiso   1.00
O677   O    -0.00000   0.71964   0.83683   0.00000  Uiso   1.00
O678   O     0.00000   0.78036   0.16317   0.00000  Uiso   1.00
O679   O     0.28036   0.50000   0.83683   0.00000  Uiso   1.00
O680   O     0.21964   0.50000   0.16317   0.00000  Uiso   1.00
O681   O     0.00000   0.78036   0.83683   0.00000  Uiso   1.00
O682   O    -0.00000   0.71964   0.16317   0.00000  Uiso   1.00
O683   O     0.21964   0.50000   0.83683   0.00000  Uiso   1.00
O684   O     0.28036   0.50000   0.16317   0.00000  Uiso   1.00
O685   O     0.20725   0.57307   0.27282   0.00000  Uiso   1.00
O686   O     0.29274   0.92693   0.72718   0.00000  Uiso   1.00
O687   O     0.42693   0.70726   0.27282   0.00000  Uiso   1.00
O688   O     0.07307   0.79275   0.72718   0.00000  Uiso   1.00
O689   O     0.29274   0.92693   0.27282   0.00000  Uiso   1.00
O690   O     0.20725   0.57307   0.72718   0.00000  Uiso   1.00
O691   O     0.07307   0.79275   0.27282   0.00000  Uiso   1.00
O692   O     0.42693   0.70726   0.72718   0.00000  Uiso   1.00
O693   O     0.20725   0.92693   0.72718   0.00000  Uiso   1.00
O694   O     0.29274   0.57307   0.27282   0.00000  Uiso   1.00
O695   O     0.42693   0.79275   0.72718   0.00000  Uiso   1.00
O696   O     0.07307   0.70726   0.27282   0.00000  Uiso   1.00
O697   O     0.29274   0.57307   0.72718   0.00000  Uiso   1.00
O698   O     0.20725   0.92693   0.27282   0.00000  Uiso   1.00
O699   O     0.07307   0.70726   0.72718   0.00000  Uiso   1.00
O700   O     0.42693   0.79275   0.27282   0.00000  Uiso   1.00
O701   O     0.45725   0.82307   0.77282   0.00000  Uiso   1.00
O702   O     0.04274   0.67693   0.22718   0.00000  Uiso   1.00
O703   O     0.17693   0.95726   0.77282   0.00000  Uiso   1.00
O704   O     0.32307   0.54275   0.22718   0.00000  Uiso   1.00
O705   O     0.04274   0.67693   0.77282   0.00000  Uiso   1.00
O706   O     0.45725   0.82307   0.22718   0.00000  Uiso   1.00
O707   O     0.32307   0.54275   0.77282   0.00000  Uiso   1.00
O708   O     0.17693   0.95726   0.22718   0.00000  Uiso   1.00
O709   O     0.45725   0.67693   0.22718   0.00000  Uiso   1.00
O710   O     0.04274   0.82307   0.77282   0.00000  Uiso   1.00
O711   O     0.17693   0.54275   0.22718   0.00000  Uiso   1.00
O712   O     0.32307   0.95726   0.77282   0.00000  Uiso   1.00
O713   O     0.04274   0.82307   0.22718   0.00000  Uiso   1.00
O714   O     0.45725   0.67693   0.77282   0.00000  Uiso   1.00
O715   O     0.32307   0.95726   0.22718   0.00000  Uiso   1.00
O716   O     0.17693   0.54275   0.77282   0.00000  Uiso   1.00
C717   C     0.25000   0.50000   0.02128   0.00000  Uiso   1.00
C718   C     0.25000   0.50000   0.97872   0.00000  Uiso   1.00
C719   C    -0.00000   0.75000   0.02130   0.00000  Uiso   1.00
C720   C    -0.00000   0.75000   0.97874   0.00000  Uiso   1.00
C721   C    -0.00000   0.75000   0.52128   0.00000  Uiso   1.00
C722   C     0.00000   0.75000   0.47872   0.00000  Uiso   1.00
C723   C     0.25000   0.50000   0.52128   0.00000  Uiso   1.00
C724   C     0.25000   0.50000   0.47872   0.00000  Uiso   1.00
C725   C     0.25000   0.50000   0.35508   0.00000  Uiso   1.00
C726   C     0.25000   0.50000   0.64492   0.00000  Uiso   1.00
C727   C    -0.00000   0.75000   0.35508   0.00000  Uiso   1.00
C728   C    -0.00000   0.75000   0.64492   0.00000  Uiso   1.00
C729   C     0.00000   0.75000   0.85509   0.00000  Uiso   1.00
C730   C    -0.00000   0.75000   0.14492   0.00000  Uiso   1.00
C731   C     0.25000   0.50000   0.85508   0.00000  Uiso   1.00
C732   C     0.25000   0.50000   0.14492   0.00000  Uiso   1.00
C733   C     0.17992   0.57009   0.25000   0.00000  Uiso   1.00
C734   C     0.32009   0.92992   0.74999   0.00000  Uiso   1.00
C735   C     0.42992   0.67991   0.25001   0.00000  Uiso   1.00
C736   C     0.07009   0.82008   0.75001   0.00000  Uiso   1.00
C737   C     0.32008   0.92991   0.24999   0.00000  Uiso   1.00
C738   C     0.17991   0.57008   0.74999   0.00000  Uiso   1.00
C739   C     0.07008   0.82009   0.25001   0.00000  Uiso   1.00
C740   C     0.42991   0.67992   0.75001   0.00000  Uiso   1.00
C741   C     0.17992   0.92991   0.75001   0.00000  Uiso   1.00
C742   C     0.32009   0.57008   0.25000   0.00000  Uiso   1.00
C743   C     0.42992   0.82009   0.74999   0.00000  Uiso   1.00
C744   C     0.07009   0.67992   0.24999   0.00000  Uiso   1.00
C745   C     0.32008   0.57009   0.75001   0.00000  Uiso   1.00
C746   C     0.17991   0.92992   0.25000   0.00000  Uiso   1.00
C747   C     0.07008   0.67991   0.74999   0.00000  Uiso   1.00
C748   C     0.42991   0.82008   0.24999   0.00000  Uiso   1.00
C749   C     0.12192   0.90480   0.22493   0.00000  Uiso   1.00
C750   C     0.37779   0.59549   0.77551   0.00000  Uiso   1.00
C751   C     0.09549   0.62220   0.22450   0.00000  Uiso   1.00
C752   C     0.40480   0.87808   0.77507   0.00000  Uiso   1.00
C753   C     0.37808   0.59520   0.22493   0.00000  Uiso   1.00
C754   C     0.12221   0.90451   0.77551   0.00000  Uiso   1.00
C755   C     0.40451   0.87780   0.22450   0.00000  Uiso   1.00
C756   C     0.09520   0.62192   0.77507   0.00000  Uiso   1.00
C757   C     0.12192   0.59520   0.77507   0.00000  Uiso   1.00
C758   C     0.37780   0.90452   0.22450   0.00000  Uiso   1.00
C759   C     0.09550   0.87779   0.77551   0.00000  Uiso   1.00
C760   C     0.40480   0.62192   0.22493   0.00000  Uiso   1.00
C761   C     0.37808   0.90480   0.77507   0.00000  Uiso   1.00
C762   C     0.12220   0.59549   0.22450   0.00000  Uiso   1.00
C763   C     0.40450   0.62221   0.77551   0.00000  Uiso   1.00
C764   C     0.09520   0.87808   0.22493   0.00000  Uiso   1.00
C765   C     0.37216   0.65456   0.72458   0.00000  Uiso   1.00
C766   C     0.12803   0.84525   0.27515   0.00000  Uiso   1.00
C767   C     0.34525   0.87196   0.72486   0.00000  Uiso   1.00
C768   C     0.15456   0.62784   0.27542   0.00000  Uiso   1.00
C769   C     0.12784   0.84544   0.72458   0.00000  Uiso   1.00
C770   C     0.37197   0.65475   0.27515   0.00000  Uiso   1.00
C771   C     0.15475   0.62804   0.72486   0.00000  Uiso   1.00
C772   C     0.34544   0.87216   0.27542   0.00000  Uiso   1.00
C773   C     0.37215   0.84544   0.27541   0.00000  Uiso   1.00
C774   C     0.12803   0.65475   0.72485   0.00000  Uiso   1.00
C775   C     0.34525   0.62804   0.27514   0.00000  Uiso   1.00
C776   C     0.15455   0.87217   0.72457   0.00000  Uiso   1.00
C777   C     0.12785   0.65456   0.27542   0.00000  Uiso   1.00
C778   C     0.37197   0.84525   0.72485   0.00000  Uiso   1.00
C779   C     0.15475   0.87196   0.27514   0.00000  Uiso   1.00
C780   C     0.34545   0.62783   0.72457   0.00000  Uiso   1.00
H781   H     0.11912   0.92767   0.20528   0.00000  Uiso   1.00
H782   H     0.38038   0.57282   0.79545   0.00000  Uiso   1.00
H783   H     0.07281   0.61961   0.20457   0.00000  Uiso   1.00
H784   H     0.42768   0.88088   0.79471   0.00000  Uiso   1.00
H785   H     0.38088   0.57233   0.20528   0.00000  Uiso   1.00
H786   H     0.11962   0.92718   0.79545   0.00000  Uiso   1.00
H787   H     0.42719   0.88039   0.20457   0.00000  Uiso   1.00
H788   H     0.07232   0.61912   0.79471   0.00000  Uiso   1.00
H789   H     0.11912   0.57233   0.79471   0.00000  Uiso   1.00
H790   H     0.38039   0.92719   0.20457   0.00000  Uiso   1.00
H791   H     0.07282   0.88038   0.79545   0.00000  Uiso   1.00
H792   H     0.42767   0.61912   0.20529   0.00000  Uiso   1.00
H793   H     0.38088   0.92767   0.79471   0.00000  Uiso   1.00
H794   H     0.11961   0.57281   0.20457   0.00000  Uiso   1.00
H795   H     0.42718   0.61962   0.79545   0.00000  Uiso   1.00
H796   H     0.07232   0.88088   0.20529   0.00000  Uiso   1.00
H797   H     0.36956   0.67723   0.70465   0.00000  Uiso   1.00
H798   H     0.13082   0.82238   0.29480   0.00000  Uiso   1.00
H799   H     0.32237   0.86916   0.70522   0.00000  Uiso   1.00
H800   H     0.17723   0.63044   0.29536   0.00000  Uiso   1.00
H801   H     0.13044   0.82277   0.70465   0.00000  Uiso   1.00
H802   H     0.36918   0.67762   0.29480   0.00000  Uiso   1.00
H803   H     0.17763   0.63084   0.70522   0.00000  Uiso   1.00
H804   H     0.32277   0.86956   0.29536   0.00000  Uiso   1.00
H805   H     0.36955   0.82276   0.29534   0.00000  Uiso   1.00
H806   H     0.13082   0.67762   0.70520   0.00000  Uiso   1.00
H807   H     0.32237   0.63084   0.29479   0.00000  Uiso   1.00
H808   H     0.17722   0.86957   0.70463   0.00000  Uiso   1.00
H809   H     0.13045   0.67724   0.29534   0.00000  Uiso   1.00
H810   H     0.36918   0.82238   0.70520   0.00000  Uiso   1.00
H811   H     0.17763   0.86916   0.29479   0.00000  Uiso   1.00
H812   H     0.32278   0.63043   0.70463   0.00000  Uiso   1.00
C813   C     0.09812   0.84816   0.25003   0.00000  Uiso   1.00
C814   C     0.40183   0.65188   0.75004   0.00000  Uiso   1.00
C815   C     0.15187   0.59816   0.24997   0.00000  Uiso   1.00
C816   C     0.34816   0.90187   0.74997   0.00000  Uiso   1.00
C817   C     0.40188   0.65184   0.25003   0.00000  Uiso   1.00
C818   C     0.09816   0.84812   0.75004   0.00000  Uiso   1.00
C819   C     0.34813   0.90184   0.24997   0.00000  Uiso   1.00
C820   C     0.15184   0.59813   0.74997   0.00000  Uiso   1.00
C821   C     0.09812   0.65184   0.74997   0.00000  Uiso   1.00
C822   C     0.40184   0.84812   0.24996   0.00000  Uiso   1.00
C823   C     0.15187   0.90184   0.75003   0.00000  Uiso   1.00
C824   C     0.34816   0.59813   0.25002   0.00000  Uiso   1.00
C825   C     0.40188   0.84816   0.74997   0.00000  Uiso   1.00
C826   C     0.09816   0.65188   0.24997   0.00000  Uiso   1.00
C827   C     0.34813   0.59816   0.75003   0.00000  Uiso   1.00
C828   C     0.15184   0.90187   0.25002   0.00000  Uiso   1.00
C829   C     0.25000   0.50000   0.10251   0.00000  Uiso   1.00
C830   C     0.25000   0.50000   0.89749   0.00000  Uiso   1.00
C831   C    -0.00000   0.75000   0.10253   0.00000  Uiso   1.00
C832   C    -0.00000   0.75000   0.89750   0.00000  Uiso   1.00
C833   C    -0.00000   0.75000   0.60251   0.00000  Uiso   1.00
C834   C     0.00000   0.75000   0.39749   0.00000  Uiso   1.00
C835   C     0.25000   0.50000   0.60251   0.00000  Uiso   1.00
C836   C     0.25000   0.50000   0.39749   0.00000  Uiso   1.00
C837   C     0.22005   0.56273   0.10306   0.00000  Uiso   1.00
H838   H     0.19589   0.55458   0.12038   0.00000  Uiso   1.00
H839   H     0.24105   0.57440   0.12266   0.00000  Uiso   1.00
H840   H     0.21141   0.58441   0.08254   0.00000  Uiso   1.00
C841   C     0.27995   0.56272   0.89694   0.00000  Uiso   1.00
H842   H     0.28860   0.58441   0.91746   0.00000  Uiso   1.00
H843   H     0.30412   0.55457   0.87962   0.00000  Uiso   1.00
H844   H     0.25896   0.57440   0.87734   0.00000  Uiso   1.00
C845   C     0.43689   0.77910   0.10310   0.00000  Uiso   1.00
H846   H     0.44474   0.80332   0.12049   0.00000  Uiso   1.00
H847   H     0.41511   0.78752   0.08259   0.00000  Uiso   1.00
H848   H     0.42546   0.75792   0.12265   0.00000  Uiso   1.00
C849   C     0.06237   0.78071   0.89697   0.00000  Uiso   1.00
H850   H     0.07427   0.75988   0.87732   0.00000  Uiso   1.00
H851   H     0.05396   0.80482   0.87971   0.00000  Uiso   1.00
H852   H     0.08397   0.78955   0.91750   0.00000  Uiso   1.00
C853   C     0.27995   0.93727   0.10306   0.00000  Uiso   1.00
H854   H     0.30411   0.94542   0.12038   0.00000  Uiso   1.00
H855   H     0.25895   0.92560   0.12266   0.00000  Uiso   1.00
H856   H     0.28859   0.91559   0.08254   0.00000  Uiso   1.00
C857   C     0.22005   0.93728   0.89694   0.00000  Uiso   1.00
H858   H     0.19588   0.94543   0.87962   0.00000  Uiso   1.00
H859   H     0.24104   0.92560   0.87734   0.00000  Uiso   1.00
H860   H     0.21140   0.91559   0.91746   0.00000  Uiso   1.00
C861   C     0.06311   0.72090   0.10310   0.00000  Uiso   1.00
H862   H     0.05526   0.69668   0.12049   0.00000  Uiso   1.00
H863   H     0.08489   0.71248   0.08259   0.00000  Uiso   1.00
H864   H     0.07454   0.74208   0.12265   0.00000  Uiso   1.00
C865   C     0.43763   0.71929   0.89697   0.00000  Uiso   1.00
H866   H     0.44604   0.69518   0.87971   0.00000  Uiso   1.00
H867   H     0.41603   0.71045   0.91750   0.00000  Uiso   1.00
H868   H     0.42573   0.74012   0.87732   0.00000  Uiso   1.00
C869   C     0.47010   0.81275   0.60307   0.00000  Uiso   1.00
H870   H     0.46147   0.83444   0.58254   0.00000  Uiso   1.00
H871   H     0.44594   0.80462   0.62039   0.00000  Uiso   1.00
H872   H     0.49111   0.82441   0.62266   0.00000  Uiso   1.00
C873   C     0.02990   0.81275   0.39693   0.00000  Uiso   1.00
H874   H     0.05406   0.80462   0.37961   0.00000  Uiso   1.00
H875   H     0.00889   0.82441   0.37734   0.00000  Uiso   1.00
H876   H     0.03853   0.83444   0.41746   0.00000  Uiso   1.00
C877   C     0.18725   0.97010   0.60307   0.00000  Uiso   1.00
H878   H     0.17559   0.99110   0.62266   0.00000  Uiso   1.00
H879   H     0.16557   0.96146   0.58254   0.00000  Uiso   1.00
H880   H     0.19539   0.94593   0.62039   0.00000  Uiso   1.00
C881   C     0.18725   0.52990   0.39693   0.00000  Uiso   1.00
H882   H     0.17559   0.50890   0.37734   0.00000  Uiso   1.00
H883   H     0.16557   0.53854   0.41746   0.00000  Uiso   1.00
H884   H     0.19539   0.55407   0.37961   0.00000  Uiso   1.00
C885   C     0.02990   0.68725   0.60307   0.00000  Uiso   1.00
H886   H     0.05406   0.69538   0.62039   0.00000  Uiso   1.00
H887   H     0.00889   0.67559   0.62266   0.00000  Uiso   1.00
H888   H     0.03853   0.66556   0.58254   0.00000  Uiso   1.00
C889   C     0.47010   0.68725   0.39693   0.00000  Uiso   1.00
H890   H     0.44594   0.69538   0.37961   0.00000  Uiso   1.00
H891   H     0.49111   0.67559   0.37734   0.00000  Uiso   1.00
H892   H     0.46147   0.66556   0.41746   0.00000  Uiso   1.00
C893   C     0.31275   0.52990   0.60307   0.00000  Uiso   1.00
H894   H     0.30461   0.55407   0.62039   0.00000  Uiso   1.00
H895   H     0.32441   0.50890   0.62266   0.00000  Uiso   1.00
H896   H     0.33443   0.53854   0.58254   0.00000  Uiso   1.00
C897   C     0.31275   0.97010   0.39693   0.00000  Uiso   1.00
H898   H     0.32441   0.99110   0.37734   0.00000  Uiso   1.00
H899   H     0.33443   0.96146   0.41746   0.00000  Uiso   1.00
H900   H     0.30461   0.94593   0.37961   0.00000  Uiso   1.00
Zn901  Zn    0.70660   0.50000   0.21760   0.00000  Uiso   1.00
Zn902  Zn    0.79340   0.50000   0.78240   0.00000  Uiso   1.00
Zn903  Zn    0.50000   0.70660   0.21760   0.00000  Uiso   1.00
Zn904  Zn    0.50000   0.79340   0.78240   0.00000  Uiso   1.00
Zn905  Zn    0.79340   0.50000   0.21760   0.00000  Uiso   1.00
Zn906  Zn    0.70660   0.50000   0.78240   0.00000  Uiso   1.00
Zn907  Zn    0.50000   0.79340   0.21760   0.00000  Uiso   1.00
Zn908  Zn    0.50000   0.70660   0.78240   0.00000  Uiso   1.00
Zn909  Zn    0.95660   0.75000   0.71760   0.00000  Uiso   1.00
Zn910  Zn    0.54340   0.75000   0.28240   0.00000  Uiso   1.00
Zn911  Zn    0.75000   0.95660   0.71760   0.00000  Uiso   1.00
Zn912  Zn    0.75000   0.54340   0.28240   0.00000  Uiso   1.00
Zn913  Zn    0.54340   0.75000   0.71760   0.00000  Uiso   1.00
Zn914  Zn    0.95660   0.75000   0.28240   0.00000  Uiso   1.00
Zn915  Zn    0.75000   0.54340   0.71760   0.00000  Uiso   1.00
Zn916  Zn    0.75000   0.95660   0.28240   0.00000  Uiso   1.00
C917   C     0.73575   0.52978   0.04154   0.00000  Uiso   1.00
C918   C     0.76425   0.52978   0.95846   0.00000  Uiso   1.00
C919   C     0.97002   0.76385   0.04156   0.00000  Uiso   1.00
C920   C     0.52960   0.76462   0.95848   0.00000  Uiso   1.00
C921   C     0.76425   0.97022   0.04154   0.00000  Uiso   1.00
C922   C     0.73574   0.97022   0.95846   0.00000  Uiso   1.00
C923   C     0.52998   0.73615   0.04156   0.00000  Uiso   1.00
C924   C     0.97040   0.73538   0.95848   0.00000  Uiso   1.00
C925   C     0.98577   0.77979   0.54154   0.00000  Uiso   1.00
C926   C     0.51423   0.77979   0.45846   0.00000  Uiso   1.00
C927   C     0.72021   0.98577   0.54154   0.00000  Uiso   1.00
C928   C     0.72021   0.51423   0.45846   0.00000  Uiso   1.00
C929   C     0.51423   0.72021   0.54154   0.00000  Uiso   1.00
C930   C     0.98577   0.72021   0.45846   0.00000  Uiso   1.00
C931   C     0.77979   0.51423   0.54154   0.00000  Uiso   1.00
C932   C     0.77979   0.98577   0.45846   0.00000  Uiso   1.00
H933   H     0.72456   0.55264   0.02556   0.00000  Uiso   1.00
H934   H     0.77545   0.55264   0.97444   0.00000  Uiso   1.00
H935   H     0.94702   0.77473   0.02559   0.00000  Uiso   1.00
H936   H     0.55232   0.77610   0.97446   0.00000  Uiso   1.00
H937   H     0.77544   0.94736   0.02556   0.00000  Uiso   1.00
H938   H     0.72455   0.94736   0.97444   0.00000  Uiso   1.00
H939   H     0.55298   0.72527   0.02559   0.00000  Uiso   1.00
H940   H     0.94768   0.72390   0.97446   0.00000  Uiso   1.00
H941   H     0.97459   0.80266   0.52557   0.00000  Uiso   1.00
H942   H     0.52541   0.80266   0.47443   0.00000  Uiso   1.00
H943   H     0.69735   0.97458   0.52557   0.00000  Uiso   1.00
H944   H     0.69735   0.52541   0.47443   0.00000  Uiso   1.00
H945   H     0.52541   0.69734   0.52557   0.00000  Uiso   1.00
H946   H     0.97459   0.69734   0.47443   0.00000  Uiso   1.00
H947   H     0.80265   0.52542   0.52557   0.00000  Uiso   1.00
H948   H     0.80265   0.97459   0.47443   0.00000  Uiso   1.00
C949   C     0.73538   0.53005   0.08210   0.00000  Uiso   1.00
C950   C     0.76463   0.53005   0.91790   0.00000  Uiso   1.00
C951   C     0.96975   0.76421   0.08212   0.00000  Uiso   1.00
C952   C     0.52987   0.76499   0.91792   0.00000  Uiso   1.00
C953   C     0.76462   0.96995   0.08210   0.00000  Uiso   1.00
C954   C     0.73537   0.96995   0.91790   0.00000  Uiso   1.00
C955   C     0.53025   0.73579   0.08212   0.00000  Uiso   1.00
C956   C     0.97013   0.73501   0.91792   0.00000  Uiso   1.00
C957   C     0.98540   0.78006   0.58210   0.00000  Uiso   1.00
C958   C     0.51460   0.78006   0.41790   0.00000  Uiso   1.00
C959   C     0.71994   0.98540   0.58210   0.00000  Uiso   1.00
C960   C     0.71994   0.51460   0.41790   0.00000  Uiso   1.00
C961   C     0.51460   0.71994   0.58210   0.00000  Uiso   1.00
C962   C     0.98540   0.71994   0.41790   0.00000  Uiso   1.00
C963   C     0.78006   0.51460   0.58210   0.00000  Uiso   1.00
C964   C     0.78006   0.98540   0.41790   0.00000  Uiso   1.00
O965   O     0.75000   0.50000   0.25000   0.00000  Uiso   1.00
O966   O     0.75000   0.50000   0.75000   0.00000  Uiso   1.00
O967   O     0.50000   0.75000   0.25000   0.00000  Uiso   1.00
O968   O     0.50000   0.75000   0.75000   0.00000  Uiso   1.00
O969   O     0.75000   0.96964   0.33683   0.00000  Uiso   1.00
O970   O     0.75000   0.53036   0.66317   0.00000  Uiso   1.00
O971   O     0.53036   0.75000   0.33683   0.00000  Uiso   1.00
O972   O     0.96964   0.75000   0.66317   0.00000  Uiso   1.00
O973   O     0.75000   0.53036   0.33683   0.00000  Uiso   1.00
O974   O     0.75000   0.96964   0.66317   0.00000  Uiso   1.00
O975   O     0.96964   0.75000   0.33683   0.00000  Uiso   1.00
O976   O     0.53036   0.75000   0.66317   0.00000  Uiso   1.00
O977   O     0.50000   0.71964   0.83683   0.00000  Uiso   1.00
O978   O     0.50000   0.78036   0.16317   0.00000  Uiso   1.00
O979   O     0.78036   0.50000   0.83683   0.00000  Uiso   1.00
O980   O     0.71964   0.50000   0.16317   0.00000  Uiso   1.00
O981   O     0.50000   0.78036   0.83683   0.00000  Uiso   1.00
O982   O     0.50000   0.71964   0.16317   0.00000  Uiso   1.00
O983   O     0.71964   0.50000   0.83683   0.00000  Uiso   1.00
O984   O     0.78036   0.50000   0.16317   0.00000  Uiso   1.00
O985   O     0.70725   0.57307   0.27282   0.00000  Uiso   1.00
O986   O     0.79274   0.92693   0.72718   0.00000  Uiso   1.00
O987   O     0.92693   0.70726   0.27282   0.00000  Uiso   1.00
O988   O     0.57307   0.79275   0.72718   0.00000  Uiso   1.00
O989   O     0.79274   0.92693   0.27282   0.00000  Uiso   1.00
O990   O     0.70725   0.57307   0.72718   0.00000  Uiso   1.00
O991   O     0.57307   0.79275   0.27282   0.00000  Uiso   1.00
O992   O     0.92693   0.70726   0.72718   0.00000  Uiso   1.00
O993   O     0.70725   0.92693   0.72718   0.00000  Uiso   1.00
O994   O     0.79274   0.57307   0.27282   0.00000  Uiso   1.00
O995   O     0.92693   0.79275   0.72718   0.00000  Uiso   1.00
O996   O     0.57307   0.70726   0.27282   0.00000  Uiso   1.00
O997   O     0.79274   0.57307   0.72718   0.00000  Uiso   1.00
O998   O     0.70725   0.92693   0.27282   0.00000  Uiso   1.00
O999   O     0.57307   0.70726   0.72718   0.00000  Uiso   1.00
O1000  O     0.92693   0.79275   0.27282   0.00000  Uiso   1.00
O1001  O     0.95725   0.82307   0.77282   0.00000  Uiso   1.00
O1002  O     0.54274   0.67693   0.22718   0.00000  Uiso   1.00
O1003  O     0.67693   0.95726   0.77282   0.00000  Uiso   1.00
O1004  O     0.82307   0.54275   0.22718   0.00000  Uiso   1.00
O1005  O     0.54274   0.67693   0.77282   0.00000  Uiso   1.00
O1006  O     0.95725   0.82307   0.22718   0.00000  Uiso   1.00
O1007  O     0.82307   0.54275   0.77282   0.00000  Uiso   1.00
O1008  O     0.67693   0.95726   0.22718   0.00000  Uiso   1.00
O1009  O     0.95725   0.67693   0.22718   0.00000  Uiso   1.00
O1010  O     0.54274   0.82307   0.77282   0.00000  Uiso   1.00
O1011  O     0.67693   0.54275   0.22718   0.00000  Uiso   1.00
O1012  O     0.82307   0.95726   0.77282   0.00000  Uiso   1.00
O1013  O     0.54274   0.82307   0.22718   0.00000  Uiso   1.00
O1014  O     0.95725   0.67693   0.77282   0.00000  Uiso   1.00
O1015  O     0.82307   0.95726   0.22718   0.00000  Uiso   1.00
O1016  O     0.67693   0.54275   0.77282   0.00000  Uiso   1.00
C1017  C     0.75000   0.50000   0.02128   0.00000  Uiso   1.00
C1018  C     0.75000   0.50000   0.97872   0.00000  Uiso   1.00
C1019  C     0.50000   0.75000   0.02130   0.00000  Uiso   1.00
C1020  C     0.50000   0.75000   0.97874   0.00000  Uiso   1.00
C1021  C     0.50000   0.75000   0.52128   0.00000  Uiso   1.00
C1022  C     0.50000   0.75000   0.47872   0.00000  Uiso   1.00
C1023  C     0.75000   0.50000   0.52128   0.00000  Uiso   1.00
C1024  C     0.75000   0.50000   0.47872   0.00000  Uiso   1.00
C1025  C     0.75000   0.50000   0.35508   0.00000  Uiso   1.00
C1026  C     0.75000   0.50000   0.64492   0.00000  Uiso   1.00
C1027  C     0.50000   0.75000   0.35508   0.00000  Uiso   1.00
C1028  C     0.50000   0.75000   0.64492   0.00000  Uiso   1.00
C1029  C     0.50000   0.75000   0.85509   0.00000  Uiso   1.00
C1030  C     0.50000   0.75000   0.14492   0.00000  Uiso   1.00
C1031  C     0.75000   0.50000   0.85508   0.00000  Uiso   1.00
C1032  C     0.75000   0.50000   0.14492   0.00000  Uiso   1.00
C1033  C     0.67992   0.57009   0.25000   0.00000  Uiso   1.00
C1034  C     0.82009   0.92992   0.74999   0.00000  Uiso   1.00
C1035  C     0.92992   0.67991   0.25001   0.00000  Uiso   1.00
C1036  C     0.57009   0.82008   0.75001   0.00000  Uiso   1.00
C1037  C     0.82008   0.92991   0.24999   0.00000  Uiso   1.00
C1038  C     0.67991   0.57008   0.74999   0.00000  Uiso   1.00
C1039  C     0.57008   0.82009   0.25001   0.00000  Uiso   1.00
C1040  C     0.92991   0.67992   0.75001   0.00000  Uiso   1.00
C1041  C     0.67992   0.92991   0.75001   0.00000  Uiso   1.00
C1042  C     0.82009   0.57008   0.25000   0.00000  Uiso   1.00
C1043  C     0.92992   0.82009   0.74999   0.00000  Uiso   1.00
C1044  C     0.57009   0.67992   0.24999   0.00000  Uiso   1.00
C1045  C     0.82008   0.57009   0.75001   0.00000  Uiso   1.00
C1046  C     0.67991   0.92992   0.25000   0.00000  Uiso   1.00
C1047  C     0.57008   0.67991   0.74999   0.00000  Uiso   1.00
C1048  C     0.92991   0.82008   0.24999   0.00000  Uiso   1.00
C1049  C     0.62192   0.90480   0.22493   0.00000  Uiso   1.00
C1050  C     0.87779   0.59549   0.77551   0.00000  Uiso   1.00
C1051  C     0.59549   0.62220   0.22450   0.00000  Uiso   1.00
C1052  C     0.90480   0.87808   0.77507   0.00000  Uiso   1.00
C1053  C     0.87808   0.59520   0.22493   0.00000  Uiso   1.00
C1054  C     0.62221   0.90451   0.77551   0.00000  Uiso   1.00
C1055  C     0.90451   0.87780   0.22450   0.00000  Uiso   1.00
C1056  C     0.59520   0.62192   0.77507   0.00000  Uiso   1.00
C1057  C     0.62192   0.59520   0.77507   0.00000  Uiso   1.00
C1058  C     0.87780   0.90452   0.22450   0.00000  Uiso   1.00
C1059  C     0.59550   0.87779   0.77551   0.00000  Uiso   1.00
C1060  C     0.90480   0.62192   0.22493   0.00000  Uiso   1.00
C1061  C     0.87808   0.90480   0.77507   0.00000  Uiso   1.00
C1062  C     0.62220   0.59549   0.22450   0.00000  Uiso   1.00
C1063  C     0.90450   0.62221   0.77551   0.00000  Uiso   1.00
C1064  C     0.59520   0.87808   0.22493   0.00000  Uiso   1.00
C1065  C     0.87216   0.65456   0.72458   0.00000  Uiso   1.00
C1066  C     0.62803   0.84525   0.27515   0.00000  Uiso   1.00
C1067  C     0.84525   0.87196   0.72486   0.00000  Uiso   1.00
C1068  C     0.65456   0.62784   0.27542   0.00000  Uiso   1.00
C1069  C     0.62784   0.84544   0.72458   0.00000  Uiso   1.00
C1070  C     0.87197   0.65475   0.27515   0.00000  Uiso   1.00
C1071  C     0.65475   0.62804   0.72486   0.00000  Uiso   1.00
C1072  C     0.84544   0.87216   0.27542   0.00000  Uiso   1.00
C1073  C     0.87215   0.84544   0.27541   0.00000  Uiso   1.00
C1074  C     0.62803   0.65475   0.72485   0.00000  Uiso   1.00
C1075  C     0.84525   0.62804   0.27514   0.00000  Uiso   1.00
C1076  C     0.65455   0.87217   0.72457   0.00000  Uiso   1.00
C1077  C     0.62785   0.65456   0.27542   0.00000  Uiso   1.00
C1078  C     0.87197   0.84525   0.72485   0.00000  Uiso   1.00
C1079  C     0.65475   0.87196   0.27514   0.00000  Uiso   1.00
C1080  C     0.84545   0.62783   0.72457   0.00000  Uiso   1.00
H1081  H     0.61912   0.92767   0.20528   0.00000  Uiso   1.00
H1082  H     0.88038   0.57282   0.79545   0.00000  Uiso   1.00
H1083  H     0.57281   0.61961   0.20457   0.00000  Uiso   1.00
H1084  H     0.92768   0.88088   0.79471   0.00000  Uiso   1.00
H1085  H     0.88088   0.57233   0.20528   0.00000  Uiso   1.00
H1086  H     0.61962   0.92718   0.79545   0.00000  Uiso   1.00
H1087  H     0.92719   0.88039   0.20457   0.00000  Uiso   1.00
H1088  H     0.57232   0.61912   0.79471   0.00000  Uiso   1.00
H1089  H     0.61912   0.57233   0.79471   0.00000  Uiso   1.00
H1090  H     0.88039   0.92719   0.20457   0.00000  Uiso   1.00
H1091  H     0.57282   0.88038   0.79545   0.00000  Uiso   1.00
H1092  H     0.92767   0.61912   0.20529   0.00000  Uiso   1.00
H1093  H     0.88088   0.92767   0.79471   0.00000  Uiso   1.00
H1094  H     0.61961   0.57281   0.20457   0.00000  Uiso   1.00
H1095  H     0.92718   0.61962   0.79545   0.00000  Uiso   1.00
H1096  H     0.57232   0.88088   0.20529   0.00000  Uiso   1.00
H1097  H     0.86956   0.67723   0.70465   0.00000  Uiso   1.00
H1098  H     0.63082   0.82238   0.29480   0.00000  Uiso   1.00
H1099  H     0.82237   0.86916   0.70522   0.00000  Uiso   1.00
H1100  H     0.67723   0.63044   0.29536   0.00000  Uiso   1.00
H1101  H     0.63044   0.82277   0.70465   0.00000  Uiso   1.00
H1102  H     0.86918   0.67762   0.29480   0.00000  Uiso   1.00
H1103  H     0.67763   0.63084   0.70522   0.00000  Uiso   1.00
H1104  H     0.82277   0.86956   0.29536   0.00000  Uiso   1.00
H1105  H     0.86955   0.82276   0.29534   0.00000  Uiso   1.00
H1106  H     0.63082   0.67762   0.70520   0.00000  Uiso   1.00
H1107  H     0.82237   0.63084   0.29479   0.00000  Uiso   1.00
H1108  H     0.67722   0.86957   0.70463   0.00000  Uiso   1.00
H1109  H     0.63045   0.67724   0.29534   0.00000  Uiso   1.00
H1110  H     0.86918   0.82238   0.70520   0.00000  Uiso   1.00
H1111  H     0.67763   0.86916   0.29479   0.00000  Uiso   1.00
H1112  H     0.82278   0.63043   0.70463   0.00000  Uiso   1.00
C1113  C     0.59812   0.84816   0.25003   0.00000  Uiso   1.00
C1114  C     0.90183   0.65188   0.75004   0.00000  Uiso   1.00
C1115  C     0.65187   0.59816   0.24997   0.00000  Uiso   1.00
C1116  C     0.84816   0.90187   0.74997   0.00000  Uiso   1.00
C1117  C     0.90188   0.65184   0.25003   0.00000  Uiso   1.00
C1118  C     0.59816   0.84812   0.75004   0.00000  Uiso   1.00
C1119  C     0.84813   0.90184   0.24997   0.00000  Uiso   1.00
C1120  C     0.65184   0.59813   0.74997   0.00000  Uiso   1.00
C1121  C     0.59812   0.65184   0.74997   0.00000  Uiso   1.00
C1122  C     0.90184   0.84812   0.24996   0.00000  Uiso   1.00
C1123  C     0.65187   0.90184   0.75003   0.00000  Uiso   1.00
C1124  C     0.84816   0.59813   0.25002   0.00000  Uiso   1.00
C1125  C     0.90188   0.84816   0.74997   0.00000  Uiso   1.00
C1126  C     0.59816   0.65188   0.24997   0.00000  Uiso   1.00
C1127  C     0.84813   0.59816   0.75003   0.00000  Uiso   1.00
C1128  C     0.65184   0.90187   0.25002   0.00000  Uiso   1.00
C1129  C     0.75000   0.50000   0.10251   0.00000  Uiso   1.00
C1130  C     0.75000   0.50000   0.89749   0.00000  Uiso   1.00
C1131  C     0.50000   0.75000   0.10253   0.00000  Uiso   1.00
C1132  C     0.50000   0.75000   0.89750   0.00000  Uiso   1.00
C1133  C     0.50000   0.75000   0.60251   0.00000  Uiso   1.00
C1134  C     0.50000   0.75000   0.39749   0.00000  Uiso   1.00
C1135  C     0.75000   0.50000   0.60251   0.00000  Uiso   1.00
C1136  C     0.75000   0.50000   0.39749   0.00000  Uiso   1.00
C1137  C     0.72005   0.56273   0.10306   0.00000  Uiso   1.00
H1138  H     0.69589   0.55458   0.12038   0.00000  Uiso   1.00
H1139  H     0.74105   0.57440   0.12266   0.00000  Uiso   1.00
H1140  H     0.71141   0.58441   0.08254   0.00000  Uiso   1.00
C1141  C     0.77995   0.56272   0.89694   0.00000  Uiso   1.00
H1142  H     0.78860   0.58441   0.91746   0.00000  Uiso   1.00
H1143  H     0.80412   0.55457   0.87962   0.00000  Uiso   1.00
H1144  H     0.75896   0.57440   0.87734   0.00000  Uiso   1.00
C1145  C     0.93689   0.77910   0.10310   0.00000  Uiso   1.00
H1146  H     0.94474   0.80332   0.12049   0.00000  Uiso   1.00
H1147  H     0.91511   0.78752   0.08259   0.00000  Uiso   1.00
H1148  H     0.92546   0.75792   0.12265   0.00000  Uiso   1.00
C1149  C     0.56237   0.78071   0.89697   0.00000  Uiso   1.00
H1150  H     0.57427   0.75988   0.87732   0.00000  Uiso   1.00
H1151  H     0.55396   0.80482   0.87971   0.00000  Uiso   1.00
H1152  H     0.58397   0.78955   0.91750   0.00000  Uiso   1.00
C1153  C     0.77995   0.93727   0.10306   0.00000  Uiso   1.00
H1154  H     0.80411   0.94542   0.12038   0.00000  Uiso   1.00
H1155  H     0.75895   0.92560   0.12266   0.00000  Uiso   1.00
H1156  H     0.78859   0.91559   0.08254   0.00000  Uiso   1.00
C1157  C     0.72005   0.93728   0.89694   0.00000  Uiso   1.00
H1158  H     0.69588   0.94543   0.87962   0.00000  Uiso   1.00
H1159  H     0.74104   0.92560   0.87734   0.00000  Uiso   1.00
H1160  H     0.71140   0.91559   0.91746   0.00000  Uiso   1.00
C1161  C     0.56311   0.72090   0.10310   0.00000  Uiso   1.00
H1162  H     0.55526   0.69668   0.12049   0.00000  Uiso   1.00
H1163  H     0.58489   0.71248   0.08259   0.00000  Uiso   1.00
H1164  H     0.57454   0.74208   0.12265   0.00000  Uiso   1.00
C1165  C     0.93763   0.71929   0.89697   0.00000  Uiso   1.00
H1166  H     0.94604   0.69518   0.87971   0.00000  Uiso   1.00
H1167  H     0.91603   0.71045   0.91750   0.00000  Uiso   1.00
H1168  H     0.92573   0.74012   0.87732   0.00000  Uiso   1.00
C1169  C     0.97010   0.81275   0.60307   0.00000  Uiso   1.00
H1170  H     0.96147   0.83444   0.58254   0.00000  Uiso   1.00
H1171  H     0.94594   0.80462   0.62039   0.00000  Uiso   1.00
H1172  H     0.99111   0.82441   0.62266   0.00000  Uiso   1.00
C1173  C     0.52990   0.81275   0.39693   0.00000  Uiso   1.00
H1174  H     0.55406   0.80462   0.37961   0.00000  Uiso   1.00
H1175  H     0.50889   0.82441   0.37734   0.00000  Uiso   1.00
H1176  H     0.53853   0.83444   0.41746   0.00000  Uiso   1.00
C1177  C     0.68725   0.97010   0.60307   0.00000  Uiso   1.00
H1178  H     0.67559   0.99110   0.62266   0.00000  Uiso   1.00
H1179  H     0.66557   0.96146   0.58254   0.00000  Uiso   1.00
H1180  H     0.69539   0.94593   0.62039   0.00000  Uiso   1.00
C1181  C     0.68725   0.52990   0.39693   0.00000  Uiso   1.00
H1182  H     0.67559   0.50890   0.37734   0.00000  Uiso   1.00
H1183  H     0.66557   0.53854   0.41746   0.00000  Uiso   1.00
H1184  H     0.69539   0.55407   0.37961   0.00000  Uiso   1.00
C1185  C     0.52990   0.68725   0.60307   0.00000  Uiso   1.00
H1186  H     0.55406   0.69538   0.62039   0.00000  Uiso   1.00
H1187  H     0.50889   0.67559   0.62266   0.00000  Uiso   1.00
H1188  H     0.53853   0.66556   0.58254   0.00000  Uiso   1.00
C1189  C     0.97010   0.68725   0.39693   0.00000  Uiso   1.00
H1190  H     0.94594   0.69538   0.37961   0.00000  Uiso   1.00
H1191  H     0.99111   0.67559   0.37734   0.00000  Uiso   1.00
H1192  H     0.96147   0.66556   0.41746   0.00000  Uiso   1.00
C1193  C     0.81275   0.52990   0.60307   0.00000  Uiso   1.00
H1194  H     0.80461   0.55407   0.62039   0.00000  Uiso   1.00
H1195  H     0.82441   0.50890   0.62266   0.00000  Uiso   1.00
H1196  H     0.83443   0.53854   0.58254   0.00000  Uiso   1.00
C1197  C     0.81275   0.97010   0.39693   0.00000  Uiso   1.00
H1198  H     0.82441   0.99110   0.37734   0.00000  Uiso   1.00
H1199  H     0.83443   0.96146   0.41746   0.00000  Uiso   1.00
H1200  H     0.80461   0.94593   0.37961   0.00000  Uiso   1.00
loop_
_geom_bond_atom_site_label_1
_geom_bond_atom_site_label_2
_geom_bond_distance
_geom_bond_site_symmetry_2
_ccdc_geom_bond_type
Zn1    O65     1.945   .     S
Zn1    O80     1.935   .     S
Zn1    O111    1.938   .     S
Zn1    O708    1.938   1_545 S
Zn2    O712    1.938   1_545 S
Zn2    O66     1.945   .     S
Zn2    O79     1.935   .     S
Zn2    O107    1.938   .     S
Zn3    O102    1.938   .     S
Zn3    O67     1.945   .     S
Zn3    O82     1.935   .     S
Zn3    O409    1.938   1_455 S
Zn4    O68     1.945   .     S
Zn4    O401    1.938   1_455 S
Zn4    O81     1.935   .     S
Zn4    O110    1.938   .     S
Zn5    O84     1.935   .     S
Zn5    O104    1.938   .     S
Zn5    O65     1.945   .     S
Zn5    O715    1.938   1_545 S
Zn6    O703    1.938   1_545 S
Zn6    O66     1.945   .     S
Zn6    O83     1.935   .     S
Zn6    O116    1.938   .     S
Zn7    O67     1.945   .     S
Zn7    O78     1.935   .     S
Zn7    O113    1.938   .     S
Zn7    O406    1.938   1_455 S
Zn8    O105    1.938   .     S
Zn8    O68     1.945   .     S
Zn8    O77     1.935   .     S
Zn8    O414    1.938   1_455 S
Zn9    O95     1.938   .     S
Zn9    O72     1.935   .     S
Zn9    O92     1.938   .     S
Zn9    O368    1.945   .     S
Zn10   O71     1.935   .     S
Zn10   O91     1.938   .     S
Zn10   O67     1.945   .     S
Zn10   O96     1.938   .     S
Zn11   O86     1.938   .     S
Zn11   O74     1.935   .     S
Zn11   O93     1.938   .     S
Zn11   O666    1.945   .     S
Zn12   O73     1.935   .     S
Zn12   O94     1.938   .     S
Zn12   O65     1.945   .     S
Zn12   O85     1.938   .     S
Zn13   O99     1.938   .     S
Zn13   O76     1.935   .     S
Zn13   O88     1.938   .     S
Zn13   O68     1.945   .     S
Zn14   O100    1.938   .     S
Zn14   O75     1.935   .     S
Zn14   O87     1.938   .     S
Zn14   O367    1.945   .     S
Zn15   O97     1.938   .     S
Zn15   O66     1.945   .     S
Zn15   O70     1.935   .     S
Zn15   O90     1.938   .     S
Zn16   O89     1.938   .     S
Zn16   O98     1.938   .     S
Zn16   O69     1.935   .     S
Zn16   O665    1.945   .     S
C17    C49     1.397   .     A
C17    H33     1.084   .     S
C17    C117    1.398   .     S
C18    C50     1.397   .     A
C18    H34     1.084   .     S
C18    C118    1.398   .     S
C19    H35     1.084   .     S
C19    C419    1.398   .     A
C19    C51     1.397   .     A
C20    H36     1.084   .     S
C20    C52     1.397   .     A
C20    C120    1.398   .     S
C21    C717    1.398   .     A
C21    H37     1.084   .     S
C21    C53     1.397   .     A
C22    H38     1.084   .     S
C22    C718    1.398   .     A
C22    C54     1.397   .     A
C23    C55     1.397   .     A
C23    H39     1.084   .     S
C23    C119    1.398   .     S
C24    C420    1.398   .     A
C24    C56     1.397   .     A
C24    H40     1.084   .     S
C25    H41     1.084   .     S
C25    C421    1.398   .     A
C25    C57     1.397   .     A
C26    H42     1.084   .     S
C26    C58     1.397   .     A
C26    C122    1.398   .     A
C27    H43     1.084   .     S
C27    C59     1.397   .     A
C27    C723    1.398   .     S
C28    H44     1.084   .     S
C28    C60     1.397   .     A
C28    C124    1.398   .     S
C29    H45     1.084   .     S
C29    C61     1.397   .     A
C29    C121    1.398   .     S
C30    H46     1.084   .     S
C30    C62     1.397   .     A
C30    C422    1.398   .     S
C31    C63     1.397   .     A
C31    H47     1.084   .     S
C31    C123    1.398   .     A
C32    C64     1.397   .     A
C32    H48     1.084   .     S
C32    C724    1.398   .     A
C49    C237    1.509   .     S
C49    C229    1.414   .     S
C50    C241    1.509   .     S
C50    C230    1.414   .     S
C51    C245    1.509   .     S
C51    C531    1.414   .     A
C52    C249    1.509   .     S
C52    C232    1.414   .     S
C53    C253    1.509   .     S
C53    C829    1.414   .     A
C54    C830    1.414   .     A
C54    C257    1.509   .     S
C55    C261    1.509   .     S
C55    C231    1.414   .     S
C56    C532    1.414   .     A
C56    C265    1.509   .     S
C57    C269    1.509   .     S
C57    C533    1.414   .     A
C58    C273    1.509   .     S
C58    C234    1.414   .     A
C59    C835    1.414   .     A
C59    C277    1.509   .     S
C60    C281    1.509   .     S
C60    C236    1.414   .     A
C61    C285    1.509   .     S
C61    C233    1.414   .     S
C62    C289    1.509   .     S
C62    C534    1.414   .     S
C63    C293    1.509   .     S
C63    C235    1.414   .     S
C64    C297    1.509   .     S
C64    C836    1.414   .     S
O65    Zn616   1.945   1_545 S
O66    Zn611   1.945   1_545 S
O67    Zn314   1.945   1_455 S
O68    Zn309   1.945   1_455 S
O69    C725    1.279   .     A
O70    C126    1.279   .     S
O71    C127    1.279   .     S
O72    C428    1.279   .     A
O73    C125    1.279   .     S
O74    C726    1.279   .     A
O75    C427    1.279   .     A
O76    C128    1.279   .     S
O77    C129    1.280   .     S
O78    C130    1.279   .     S
O79    C131    1.279   .     A
O80    C132    1.279   .     S
O81    C129    1.280   .     A
O82    C130    1.279   .     A
O83    C131    1.279   .     A
O84    C132    1.279   .     S
O85    C133    1.279   .     A
O86    C134    1.279   .     A
O87    C135    1.279   .     A
O88    C136    1.279   .     A
O89    C137    1.279   .     A
O90    C138    1.279   .     A
O91    C139    1.279   .     A
O92    C140    1.279   .     A
O93    C141    1.279   .     A
O94    C142    1.279   .     A
O95    C143    1.279   .     A
O96    C144    1.279   .     A
O97    C145    1.279   .     A
O98    C146    1.279   .     A
O99    C147    1.279   .     A
O100   C148    1.279   .     A
O101   Zn304   1.938   .     S
O101   C143    1.279   .     A
O102   C144    1.279   .     A
O103   C141    1.279   .     A
O103   Zn606   1.938   .     S
O104   C142    1.279   .     A
O105   C147    1.279   .     A
O106   C148    1.279   .     A
O106   Zn307   1.938   .     S
O107   C145    1.279   .     A
O108   C146    1.279   .     A
O108   Zn601   1.938   .     S
O109   C135    1.279   .     A
O109   Zn303   1.938   .     S
O110   C136    1.279   .     A
O111   C133    1.279   .     A
O112   C134    1.279   .     A
O112   Zn602   1.938   .     S
O113   C139    1.279   .     A
O114   C140    1.279   .     A
O114   Zn308   1.938   .     S
O115   C137    1.279   .     A
O115   Zn605   1.938   .     S
O116   C138    1.279   .     A
C117   C621    1.398   1_545 A
C117   C118    1.466   1_554 S
C118   C622    1.398   1_545 A
C118   C117    1.466   1_556 S
C119   C319    1.398   1_455 A
C119   C120    1.466   1_554 S
C120   C324    1.398   1_455 A
C120   C119    1.466   1_556 S
C121   C325    1.398   1_455 A
C121   C122    1.466   .     S
C122   C330    1.398   1_455 S
C123   C627    1.398   1_545 S
C123   C124    1.466   .     S
C124   C632    1.398   1_545 A
C125   O669    1.279   1_545 A
C125   C236    1.461   .     S
C126   C235    1.461   .     S
C126   O674    1.279   1_545 A
C127   O375    1.279   1_455 A
C127   C234    1.461   .     S
C128   C233    1.461   .     S
C128   O372    1.279   1_455 A
C129   C232    1.461   .     S
C130   C231    1.460   .     S
C131   C230    1.461   .     S
C132   C229    1.461   .     S
C133   C215    1.456   .     S
C134   C216    1.457   .     S
C135   C217    1.456   .     S
C136   C218    1.457   .     S
C137   C219    1.456   .     S
C138   C220    1.457   .     S
C139   C213    1.456   .     S
C140   C214    1.457   .     S
C141   C223    1.456   .     S
C142   C224    1.457   .     S
C143   C225    1.456   .     S
C144   C226    1.457   .     S
C145   C227    1.456   .     S
C146   C228    1.457   .     S
C147   C221    1.456   .     S
C148   C222    1.457   .     S
C149   C164    1.387   .     A
C149   C228    1.402   .     A
C149   H181    1.083   .     S
C150   C163    1.387   .     A
C150   H182    1.083   .     S
C150   C227    1.402   .     A
C151   H183    1.083   .     S
C151   C162    1.387   .     A
C151   C226    1.402   .     A
C152   C225    1.402   .     A
C152   C161    1.387   .     A
C152   H184    1.083   .     S
C153   C224    1.402   .     A
C153   C160    1.387   .     A
C153   H185    1.083   .     S
C154   C159    1.387   .     A
C154   C223    1.402   .     A
C154   H186    1.083   .     S
C155   C158    1.387   .     A
C155   H187    1.083   .     S
C155   C222    1.402   .     A
C156   H188    1.083   .     S
C156   C157    1.387   .     A
C156   C221    1.402   .     A
C157   C220    1.402   .     A
C157   H189    1.083   .     S
C158   H190    1.083   .     S
C158   C219    1.402   .     A
C159   C218    1.402   .     A
C159   H191    1.083   .     S
C160   H192    1.083   .     S
C160   C217    1.402   .     A
C161   H193    1.083   .     S
C161   C216    1.402   .     A
C162   C215    1.402   .     A
C162   H194    1.083   .     S
C163   C214    1.402   .     A
C163   H195    1.083   .     S
C164   H196    1.083   .     S
C164   C213    1.402   .     A
C165   H197    1.083   .     S
C165   C214    1.402   .     A
C165   C180    1.387   .     A
C166   H198    1.083   .     S
C166   C213    1.402   .     A
C166   C179    1.387   .     A
C167   C178    1.387   .     A
C167   H199    1.083   .     S
C167   C216    1.402   .     A
C168   C215    1.402   .     A
C168   C177    1.387   .     A
C168   H200    1.083   .     S
C169   C218    1.402   .     A
C169   C176    1.387   .     A
C169   H201    1.083   .     S
C170   H202    1.083   .     S
C170   C217    1.402   .     A
C170   C175    1.387   .     A
C171   C220    1.402   .     A
C171   H203    1.083   .     S
C171   C174    1.387   .     A
C172   H204    1.083   .     S
C172   C219    1.402   .     A
C172   C173    1.387   .     A
C173   C222    1.402   .     A
C173   H205    1.083   .     S
C174   H206    1.083   .     S
C174   C221    1.402   .     A
C175   H207    1.083   .     S
C175   C224    1.402   .     A
C176   C223    1.402   .     A
C176   H208    1.083   .     S
C177   C226    1.402   .     A
C177   H209    1.083   .     S
C178   H210    1.083   .     S
C178   C225    1.402   .     A
C179   C228    1.402   .     A
C179   H211    1.083   .     S
C180   C227    1.402   .     A
C180   H212    1.083   .     S
C229   C653    1.414   1_545 A
C230   C654    1.414   1_545 A
C231   C351    1.414   1_455 A
C232   C356    1.414   1_455 A
C233   C357    1.414   1_455 A
C234   C362    1.414   1_455 S
C235   C659    1.414   1_545 A
C236   C664    1.414   1_545 S
C237   H239    1.110   .     S
C237   H240    1.111   .     S
C237   H238    1.110   .     S
C241   H243    1.110   .     S
C241   H244    1.110   .     S
C241   H242    1.111   .     S
C245   H246    1.110   .     S
C245   H248    1.110   .     S
C245   H247    1.111   .     S
C249   H250    1.110   .     S
C249   H252    1.111   .     S
C249   H251    1.110   .     S
C253   H255    1.110   .     S
C253   H256    1.111   .     S
C253   H254    1.110   .     S
C257   H258    1.110   .     S
C257   H260    1.111   .     S
C257   H259    1.110   .     S
C261   H262    1.110   .     S
C261   H264    1.111   .     S
C261   H263    1.111   .     S
C265   H267    1.111   .     S
C265   H266    1.110   .     S
C265   H268    1.110   .     S
C269   H271    1.110   .     S
C269   H270    1.111   .     S
C269   H272    1.110   .     S
C273   H276    1.111   .     S
C273   H275    1.110   .     S
C273   H274    1.110   .     S
C277   H278    1.110   .     S
C277   H279    1.111   .     S
C277   H280    1.110   .     S
C281   H284    1.110   .     S
C281   H283    1.111   .     S
C281   H282    1.110   .     S
C285   H287    1.110   .     S
C285   H286    1.110   .     S
C285   H288    1.111   .     S
C289   H290    1.110   .     S
C289   H292    1.111   .     S
C289   H291    1.110   .     S
C293   H294    1.110   .     S
C293   H296    1.111   .     S
C293   H295    1.110   .     S
C297   H299    1.111   .     S
C297   H298    1.110   .     S
C297   H300    1.110   .     S
Zn301  O365    1.945   .     S
Zn301  O380    1.935   .     S
Zn301  O411    1.938   .     S
Zn301  O1008   1.938   1_545 S
Zn302  O1012   1.938   1_545 S
Zn302  O366    1.945   .     S
Zn302  O379    1.935   .     S
Zn302  O407    1.938   .     S
Zn303  O402    1.938   .     S
Zn303  O367    1.945   .     S
Zn303  O382    1.935   .     S
Zn304  O368    1.945   .     S
Zn304  O381    1.935   .     S
Zn304  O410    1.938   .     S
Zn305  O384    1.935   .     S
Zn305  O404    1.938   .     S
Zn305  O365    1.945   .     S
Zn305  O1015   1.938   1_545 S
Zn306  O1003   1.938   1_545 S
Zn306  O366    1.945   .     S
Zn306  O383    1.935   .     S
Zn306  O416    1.938   .     S
Zn307  O367    1.945   .     S
Zn307  O378    1.935   .     S
Zn307  O413    1.938   .     S
Zn308  O405    1.938   .     S
Zn308  O368    1.945   .     S
Zn308  O377    1.935   .     S
Zn309  O395    1.938   .     S
Zn309  O372    1.935   .     S
Zn309  O392    1.938   .     S
Zn309  O68     1.945   1_655 S
Zn310  O371    1.935   .     S
Zn310  O391    1.938   .     S
Zn310  O367    1.945   .     S
Zn310  O396    1.938   .     S
Zn311  O386    1.938   .     S
Zn311  O374    1.935   .     S
Zn311  O393    1.938   .     S
Zn311  O966    1.945   .     S
Zn312  O373    1.935   .     S
Zn312  O394    1.938   .     S
Zn312  O365    1.945   .     S
Zn312  O385    1.938   .     S
Zn313  O399    1.938   .     S
Zn313  O376    1.935   .     S
Zn313  O388    1.938   .     S
Zn313  O368    1.945   .     S
Zn314  O400    1.938   .     S
Zn314  O375    1.935   .     S
Zn314  O387    1.938   .     S
Zn314  O67     1.945   1_655 S
Zn315  O397    1.938   .     S
Zn315  O366    1.945   .     S
Zn315  O370    1.935   .     S
Zn315  O390    1.938   .     S
Zn316  O389    1.938   .     S
Zn316  O398    1.938   .     S
Zn316  O369    1.935   .     S
Zn316  O965    1.945   .     S
C317   C349    1.397   .     A
C317   H333    1.084   .     S
C317   C417    1.398   .     S
C318   C350    1.397   .     A
C318   H334    1.084   .     S
C318   C418    1.398   .     S
C319   H335    1.084   .     S
C319   C119    1.398   1_655 A
C319   C351    1.397   .     A
C320   H336    1.084   .     S
C320   C352    1.397   .     A
C320   C420    1.398   .     S
C321   C1017   1.398   .     A
C321   H337    1.084   .     S
C321   C353    1.397   .     A
C322   H338    1.084   .     S
C322   C1018   1.398   .     A
C322   C354    1.397   .     A
C323   C355    1.397   .     A
C323   H339    1.084   .     S
C323   C419    1.398   .     S
C324   C120    1.398   1_655 A
C324   C356    1.397   .     A
C324   H340    1.084   .     S
C325   H341    1.084   .     S
C325   C121    1.398   1_655 A
C325   C357    1.397   .     A
C326   H342    1.084   .     S
C326   C358    1.397   .     A
C326   C422    1.398   .     A
C327   H343    1.084   .     S
C327   C359    1.397   .     A
C327   C1023   1.398   .     S
C328   H344    1.084   .     S
C328   C360    1.397   .     A
C328   C424    1.398   .     S
C329   H345    1.084   .     S
C329   C361    1.397   .     A
C329   C421    1.398   .     S
C330   H346    1.084   .     S
C330   C362    1.397   .     A
C330   C122    1.398   1_655 S
C331   C363    1.397   .     A
C331   H347    1.084   .     S
C331   C423    1.398   .     A
C332   C364    1.397   .     A
C332   H348    1.084   .     S
C332   C1024   1.398   .     A
C349   C537    1.509   .     S
C349   C529    1.414   .     S
C350   C541    1.509   .     S
C350   C530    1.414   .     S
C351   C545    1.509   .     S
C351   C231    1.414   1_655 A
C352   C549    1.509   .     S
C352   C532    1.414   .     S
C353   C553    1.509   .     S
C353   C1129   1.414   .     A
C354   C1130   1.414   .     A
C354   C557    1.509   .     S
C355   C561    1.509   .     S
C355   C531    1.414   .     S
C356   C232    1.414   1_655 A
C356   C565    1.509   .     S
C357   C569    1.509   .     S
C357   C233    1.414   1_655 A
C358   C573    1.509   .     S
C358   C534    1.414   .     A
C359   C1135   1.414   .     A
C359   C577    1.509   .     S
C360   C581    1.509   .     S
C360   C536    1.414   .     A
C361   C585    1.509   .     S
C361   C533    1.414   .     S
C362   C589    1.509   .     S
C362   C234    1.414   1_655 S
C363   C593    1.509   .     S
C363   C535    1.414   .     S
C364   C597    1.509   .     S
C364   C1136   1.414   .     S
O365   Zn916   1.945   1_545 S
O366   Zn911   1.945   1_545 S
O369   C1025   1.279   .     A
O370   C426    1.279   .     S
O371   C427    1.279   .     S
O372   C128    1.279   1_655 A
O373   C425    1.279   .     S
O374   C1026   1.279   .     A
O375   C127    1.279   1_655 A
O376   C428    1.279   .     S
O377   C429    1.280   .     S
O378   C430    1.279   .     S
O379   C431    1.279   .     A
O380   C432    1.279   .     S
O381   C429    1.280   .     A
O382   C430    1.279   .     A
O383   C431    1.279   .     A
O384   C432    1.279   .     S
O385   C433    1.279   .     A
O386   C434    1.279   .     A
O387   C435    1.279   .     A
O388   C436    1.279   .     A
O389   C437    1.279   .     A
O390   C438    1.279   .     A
O391   C439    1.279   .     A
O392   C440    1.279   .     A
O393   C441    1.279   .     A
O394   C442    1.279   .     A
O395   C443    1.279   .     A
O396   C444    1.279   .     A
O397   C445    1.279   .     A
O398   C446    1.279   .     A
O399   C447    1.279   .     A
O400   C448    1.279   .     A
O401   Zn4     1.938   1_655 S
O401   C443    1.279   .     A
O402   C444    1.279   .     A
O403   C441    1.279   .     A
O403   Zn906   1.938   .     S
O404   C442    1.279   .     A
O405   C447    1.279   .     A
O406   C448    1.279   .     A
O406   Zn7     1.938   1_655 S
O407   C445    1.279   .     A
O408   C446    1.279   .     A
O408   Zn901   1.938   .     S
O409   C435    1.279   .     A
O409   Zn3     1.938   1_655 S
O410   C436    1.279   .     A
O411   C433    1.279   .     A
O412   C434    1.279   .     A
O412   Zn902   1.938   .     S
O413   C439    1.279   .     A
O414   C440    1.279   .     A
O414   Zn8     1.938   1_655 S
O415   C437    1.279   .     A
O415   Zn905   1.938   .     S
O416   C438    1.279   .     A
C417   C921    1.398   1_545 A
C417   C418    1.466   1_554 S
C418   C922    1.398   1_545 A
C418   C417    1.466   1_556 S
C419   C420    1.466   1_554 S
C420   C419    1.466   1_556 S
C421   C422    1.466   .     S
C423   C927    1.398   1_545 S
C423   C424    1.466   .     S
C424   C932    1.398   1_545 A
C425   O969    1.279   1_545 A
C425   C536    1.461   .     S
C426   C535    1.461   .     S
C426   O974    1.279   1_545 A
C427   C534    1.461   .     S
C428   C533    1.461   .     S
C429   C532    1.461   .     S
C430   C531    1.460   .     S
C431   C530    1.461   .     S
C432   C529    1.461   .     S
C433   C515    1.456   .     S
C434   C516    1.457   .     S
C435   C517    1.456   .     S
C436   C518    1.457   .     S
C437   C519    1.456   .     S
C438   C520    1.457   .     S
C439   C513    1.456   .     S
C440   C514    1.457   .     S
C441   C523    1.456   .     S
C442   C524    1.457   .     S
C443   C525    1.456   .     S
C444   C526    1.457   .     S
C445   C527    1.456   .     S
C446   C528    1.457   .     S
C447   C521    1.456   .     S
C448   C522    1.457   .     S
C449   C464    1.387   .     A
C449   C528    1.402   .     A
C449   H481    1.083   .     S
C450   C463    1.387   .     A
C450   H482    1.083   .     S
C450   C527    1.402   .     A
C451   H483    1.083   .     S
C451   C462    1.387   .     A
C451   C526    1.402   .     A
C452   C525    1.402   .     A
C452   C461    1.387   .     A
C452   H484    1.083   .     S
C453   C524    1.402   .     A
C453   C460    1.387   .     A
C453   H485    1.083   .     S
C454   C459    1.387   .     A
C454   C523    1.402   .     A
C454   H486    1.083   .     S
C455   C458    1.387   .     A
C455   H487    1.083   .     S
C455   C522    1.402   .     A
C456   H488    1.083   .     S
C456   C457    1.387   .     A
C456   C521    1.402   .     A
C457   C520    1.402   .     A
C457   H489    1.083   .     S
C458   H490    1.083   .     S
C458   C519    1.402   .     A
C459   C518    1.402   .     A
C459   H491    1.083   .     S
C460   H492    1.083   .     S
C460   C517    1.402   .     A
C461   H493    1.083   .     S
C461   C516    1.402   .     A
C462   C515    1.402   .     A
C462   H494    1.083   .     S
C463   C514    1.402   .     A
C463   H495    1.083   .     S
C464   H496    1.083   .     S
C464   C513    1.402   .     A
C465   H497    1.083   .     S
C465   C514    1.402   .     A
C465   C480    1.387   .     A
C466   H498    1.083   .     S
C466   C513    1.402   .     A
C466   C479    1.387   .     A
C467   C478    1.387   .     A
C467   H499    1.083   .     S
C467   C516    1.402   .     A
C468   C515    1.402   .     A
C468   C477    1.387   .     A
C468   H500    1.083   .     S
C469   C518    1.402   .     A
C469   C476    1.387   .     A
C469   H501    1.083   .     S
C470   H502    1.083   .     S
C470   C517    1.402   .     A
C470   C475    1.387   .     A
C471   C520    1.402   .     A
C471   H503    1.083   .     S
C471   C474    1.387   .     A
C472   H504    1.083   .     S
C472   C519    1.402   .     A
C472   C473    1.387   .     A
C473   C522    1.402   .     A
C473   H505    1.083   .     S
C474   H506    1.083   .     S
C474   C521    1.402   .     A
C475   H507    1.083   .     S
C475   C524    1.402   .     A
C476   C523    1.402   .     A
C476   H508    1.083   .     S
C477   C526    1.402   .     A
C477   H509    1.083   .     S
C478   H510    1.083   .     S
C478   C525    1.402   .     A
C479   C528    1.402   .     A
C479   H511    1.083   .     S
C480   C527    1.402   .     A
C480   H512    1.083   .     S
C529   C953    1.414   1_545 A
C530   C954    1.414   1_545 A
C535   C959    1.414   1_545 A
C536   C964    1.414   1_545 S
C537   H539    1.110   .     S
C537   H540    1.111   .     S
C537   H538    1.110   .     S
C541   H543    1.110   .     S
C541   H544    1.110   .     S
C541   H542    1.111   .     S
C545   H546    1.110   .     S
C545   H548    1.110   .     S
C545   H547    1.111   .     S
C549   H550    1.110   .     S
C549   H552    1.111   .     S
C549   H551    1.110   .     S
C553   H555    1.110   .     S
C553   H556    1.111   .     S
C553   H554    1.110   .     S
C557   H558    1.110   .     S
C557   H560    1.111   .     S
C557   H559    1.110   .     S
C561   H562    1.110   .     S
C561   H564    1.111   .     S
C561   H563    1.111   .     S
C565   H567    1.111   .     S
C565   H566    1.110   .     S
C565   H568    1.110   .     S
C569   H571    1.110   .     S
C569   H570    1.111   .     S
C569   H572    1.110   .     S
C573   H576    1.111   .     S
C573   H575    1.110   .     S
C573   H574    1.110   .     S
C577   H578    1.110   .     S
C577   H579    1.111   .     S
C577   H580    1.110   .     S
C581   H584    1.110   .     S
C581   H583    1.111   .     S
C581   H582    1.110   .     S
C585   H587    1.110   .     S
C585   H586    1.110   .     S
C585   H588    1.111   .     S
C589   H590    1.110   .     S
C589   H592    1.111   .     S
C589   H591    1.110   .     S
C593   H594    1.110   .     S
C593   H596    1.111   .     S
C593   H595    1.110   .     S
C597   H599    1.111   .     S
C597   H598    1.110   .     S
C597   H600    1.110   .     S
Zn601  O665    1.945   .     S
Zn601  O680    1.935   .     S
Zn601  O711    1.938   .     S
Zn602  O666    1.945   .     S
Zn602  O679    1.935   .     S
Zn602  O707    1.938   .     S
Zn603  O702    1.938   .     S
Zn603  O667    1.945   .     S
Zn603  O682    1.935   .     S
Zn603  O1009   1.938   1_455 S
Zn604  O668    1.945   .     S
Zn604  O1001   1.938   1_455 S
Zn604  O681    1.935   .     S
Zn604  O710    1.938   .     S
Zn605  O684    1.935   .     S
Zn605  O704    1.938   .     S
Zn605  O665    1.945   .     S
Zn606  O666    1.945   .     S
Zn606  O683    1.935   .     S
Zn606  O716    1.938   .     S
Zn607  O667    1.945   .     S
Zn607  O678    1.935   .     S
Zn607  O713    1.938   .     S
Zn607  O1006   1.938   1_455 S
Zn608  O705    1.938   .     S
Zn608  O668    1.945   .     S
Zn608  O677    1.935   .     S
Zn608  O1014   1.938   1_455 S
Zn609  O695    1.938   .     S
Zn609  O672    1.935   .     S
Zn609  O692    1.938   .     S
Zn609  O968    1.945   .     S
Zn610  O671    1.935   .     S
Zn610  O691    1.938   .     S
Zn610  O667    1.945   .     S
Zn610  O696    1.938   .     S
Zn611  O686    1.938   .     S
Zn611  O674    1.935   .     S
Zn611  O693    1.938   .     S
Zn611  O66     1.945   1_565 S
Zn612  O673    1.935   .     S
Zn612  O694    1.938   .     S
Zn612  O665    1.945   .     S
Zn612  O685    1.938   .     S
Zn613  O699    1.938   .     S
Zn613  O676    1.935   .     S
Zn613  O688    1.938   .     S
Zn613  O668    1.945   .     S
Zn614  O700    1.938   .     S
Zn614  O675    1.935   .     S
Zn614  O687    1.938   .     S
Zn614  O967    1.945   .     S
Zn615  O697    1.938   .     S
Zn615  O666    1.945   .     S
Zn615  O670    1.935   .     S
Zn615  O690    1.938   .     S
Zn616  O689    1.938   .     S
Zn616  O698    1.938   .     S
Zn616  O669    1.935   .     S
Zn616  O65     1.945   1_565 S
C617   C649    1.397   .     A
C617   H633    1.084   .     S
C617   C717    1.398   .     S
C618   C650    1.397   .     A
C618   H634    1.084   .     S
C618   C718    1.398   .     S
C619   H635    1.084   .     S
C619   C1019   1.398   .     A
C619   C651    1.397   .     A
C620   H636    1.084   .     S
C620   C652    1.397   .     A
C620   C720    1.398   .     S
C621   C117    1.398   1_565 A
C621   H637    1.084   .     S
C621   C653    1.397   .     A
C622   H638    1.084   .     S
C622   C118    1.398   1_565 A
C622   C654    1.397   .     A
C623   C655    1.397   .     A
C623   H639    1.084   .     S
C623   C719    1.398   .     S
C624   C1020   1.398   .     A
C624   C656    1.397   .     A
C624   H640    1.084   .     S
C625   H641    1.084   .     S
C625   C1021   1.398   .     A
C625   C657    1.397   .     A
C626   H642    1.084   .     S
C626   C658    1.397   .     A
C626   C722    1.398   .     A
C627   H643    1.084   .     S
C627   C659    1.397   .     A
C627   C123    1.398   1_565 S
C628   H644    1.084   .     S
C628   C660    1.397   .     A
C628   C724    1.398   .     S
C629   H645    1.084   .     S
C629   C661    1.397   .     A
C629   C721    1.398   .     S
C630   H646    1.084   .     S
C630   C662    1.397   .     A
C630   C1022   1.398   .     S
C631   C663    1.397   .     A
C631   H647    1.084   .     S
C631   C723    1.398   .     A
C632   C664    1.397   .     A
C632   H648    1.084   .     S
C632   C124    1.398   1_565 A
C649   C837    1.509   .     S
C649   C829    1.414   .     S
C650   C841    1.509   .     S
C650   C830    1.414   .     S
C651   C845    1.509   .     S
C651   C1131   1.414   .     A
C652   C849    1.509   .     S
C652   C832    1.414   .     S
C653   C853    1.509   .     S
C653   C229    1.414   1_565 A
C654   C230    1.414   1_565 A
C654   C857    1.509   .     S
C655   C861    1.509   .     S
C655   C831    1.414   .     S
C656   C1132   1.414   .     A
C656   C865    1.509   .     S
C657   C869    1.509   .     S
C657   C1133   1.414   .     A
C658   C873    1.509   .     S
C658   C834    1.414   .     A
C659   C235    1.414   1_565 A
C659   C877    1.509   .     S
C660   C881    1.509   .     S
C660   C836    1.414   .     A
C661   C885    1.509   .     S
C661   C833    1.414   .     S
C662   C889    1.509   .     S
C662   C1134   1.414   .     S
C663   C893    1.509   .     S
C663   C835    1.414   .     S
C664   C897    1.509   .     S
C664   C236    1.414   1_565 S
O667   Zn914   1.945   1_455 S
O668   Zn909   1.945   1_455 S
O669   C125    1.279   1_565 A
O670   C726    1.279   .     S
O671   C727    1.279   .     S
O672   C1028   1.279   .     A
O673   C725    1.279   .     S
O674   C126    1.279   1_565 A
O675   C1027   1.279   .     A
O676   C728    1.279   .     S
O677   C729    1.280   .     S
O678   C730    1.279   .     S
O679   C731    1.279   .     A
O680   C732    1.279   .     S
O681   C729    1.280   .     A
O682   C730    1.279   .     A
O683   C731    1.279   .     A
O684   C732    1.279   .     S
O685   C733    1.279   .     A
O686   C734    1.279   .     A
O687   C735    1.279   .     A
O688   C736    1.279   .     A
O689   C737    1.279   .     A
O690   C738    1.279   .     A
O691   C739    1.279   .     A
O692   C740    1.279   .     A
O693   C741    1.279   .     A
O694   C742    1.279   .     A
O695   C743    1.279   .     A
O696   C744    1.279   .     A
O697   C745    1.279   .     A
O698   C746    1.279   .     A
O699   C747    1.279   .     A
O700   C748    1.279   .     A
O701   Zn904   1.938   .     S
O701   C743    1.279   .     A
O702   C744    1.279   .     A
O703   C741    1.279   .     A
O703   Zn6     1.938   1_565 S
O704   C742    1.279   .     A
O705   C747    1.279   .     A
O706   C748    1.279   .     A
O706   Zn907   1.938   .     S
O707   C745    1.279   .     A
O708   C746    1.279   .     A
O708   Zn1     1.938   1_565 S
O709   C735    1.279   .     A
O709   Zn903   1.938   .     S
O710   C736    1.279   .     A
O711   C733    1.279   .     A
O712   C734    1.279   .     A
O712   Zn2     1.938   1_565 S
O713   C739    1.279   .     A
O714   C740    1.279   .     A
O714   Zn908   1.938   .     S
O715   C737    1.279   .     A
O715   Zn5     1.938   1_565 S
O716   C738    1.279   .     A
C717   C718    1.466   1_554 S
C718   C717    1.466   1_556 S
C719   C919    1.398   1_455 A
C719   C720    1.466   1_554 S
C720   C924    1.398   1_455 A
C720   C719    1.466   1_556 S
C721   C925    1.398   1_455 A
C721   C722    1.466   .     S
C722   C930    1.398   1_455 S
C723   C724    1.466   .     S
C725   C836    1.461   .     S
C726   C835    1.461   .     S
C727   O975    1.279   1_455 A
C727   C834    1.461   .     S
C728   C833    1.461   .     S
C728   O972    1.279   1_455 A
C729   C832    1.461   .     S
C730   C831    1.460   .     S
C731   C830    1.461   .     S
C732   C829    1.461   .     S
C733   C815    1.456   .     S
C734   C816    1.457   .     S
C735   C817    1.456   .     S
C736   C818    1.457   .     S
C737   C819    1.456   .     S
C738   C820    1.457   .     S
C739   C813    1.456   .     S
C740   C814    1.457   .     S
C741   C823    1.456   .     S
C742   C824    1.457   .     S
C743   C825    1.456   .     S
C744   C826    1.457   .     S
C745   C827    1.456   .     S
C746   C828    1.457   .     S
C747   C821    1.456   .     S
C748   C822    1.457   .     S
C749   C764    1.387   .     A
C749   C828    1.402   .     A
C749   H781    1.083   .     S
C750   C763    1.387   .     A
C750   H782    1.083   .     S
C750   C827    1.402   .     A
C751   H783    1.083   .     S
C751   C762    1.387   .     A
C751   C826    1.402   .     A
C752   C825    1.402   .     A
C752   C761    1.387   .     A
C752   H784    1.083   .     S
C753   C824    1.402   .     A
C753   C760    1.387   .     A
C753   H785    1.083   .     S
C754   C759    1.387   .     A
C754   C823    1.402   .     A
C754   H786    1.083   .     S
C755   C758    1.387   .     A
C755   H787    1.083   .     S
C755   C822    1.402   .     A
C756   H788    1.083   .     S
C756   C757    1.387   .     A
C756   C821    1.402   .     A
C757   C820    1.402   .     A
C757   H789    1.083   .     S
C758   H790    1.083   .     S
C758   C819    1.402   .     A
C759   C818    1.402   .     A
C759   H791    1.083   .     S
C760   H792    1.083   .     S
C760   C817    1.402   .     A
C761   H793    1.083   .     S
C761   C816    1.402   .     A
C762   C815    1.402   .     A
C762   H794    1.083   .     S
C763   C814    1.402   .     A
C763   H795    1.083   .     S
C764   H796    1.083   .     S
C764   C813    1.402   .     A
C765   H797    1.083   .     S
C765   C814    1.402   .     A
C765   C780    1.387   .     A
C766   H798    1.083   .     S
C766   C813    1.402   .     A
C766   C779    1.387   .     A
C767   C778    1.387   .     A
C767   H799    1.083   .     S
C767   C816    1.402   .     A
C768   C815    1.402   .     A
C768   C777    1.387   .     A
C768   H800    1.083   .     S
C769   C818    1.402   .     A
C769   C776    1.387   .     A
C769   H801    1.083   .     S
C770   H802    1.083   .     S
C770   C817    1.402   .     A
C770   C775    1.387   .     A
C771   C820    1.402   .     A
C771   H803    1.083   .     S
C771   C774    1.387   .     A
C772   H804    1.083   .     S
C772   C819    1.402   .     A
C772   C773    1.387   .     A
C773   C822    1.402   .     A
C773   H805    1.083   .     S
C774   H806    1.083   .     S
C774   C821    1.402   .     A
C775   H807    1.083   .     S
C775   C824    1.402   .     A
C776   C823    1.402   .     A
C776   H808    1.083   .     S
C777   C826    1.402   .     A
C777   H809    1.083   .     S
C778   H810    1.083   .     S
C778   C825    1.402   .     A
C779   C828    1.402   .     A
C779   H811    1.083   .     S
C780   C827    1.402   .     A
C780   H812    1.083   .     S
C831   C951    1.414   1_455 A
C832   C956    1.414   1_455 A
C833   C957    1.414   1_455 A
C834   C962    1.414   1_455 S
C837   H839    1.110   .     S
C837   H840    1.111   .     S
C837   H838    1.110   .     S
C841   H843    1.110   .     S
C841   H844    1.110   .     S
C841   H842    1.111   .     S
C845   H846    1.110   .     S
C845   H848    1.110   .     S
C845   H847    1.111   .     S
C849   H850    1.110   .     S
C849   H852    1.111   .     S
C849   H851    1.110   .     S
C853   H855    1.110   .     S
C853   H856    1.111   .     S
C853   H854    1.110   .     S
C857   H858    1.110   .     S
C857   H860    1.111   .     S
C857   H859    1.110   .     S
C861   H862    1.110   .     S
C861   H864    1.111   .     S
C861   H863    1.111   .     S
C865   H867    1.111   .     S
C865   H866    1.110   .     S
C865   H868    1.110   .     S
C869   H871    1.110   .     S
C869   H870    1.111   .     S
C869   H872    1.110   .     S
C873   H876    1.111   .     S
C873   H875    1.110   .     S
C873   H874    1.110   .     S
C877   H878    1.110   .     S
C877   H879    1.111   .     S
C877   H880    1.110   .     S
C881   H884    1.110   .     S
C881   H883    1.111   .     S
C881   H882    1.110   .     S
C885   H887    1.110   .     S
C885   H886    1.110   .     S
C885   H888    1.111   .     S
C889   H890    1.110   .     S
C889   H892    1.111   .     S
C889   H891    1.110   .     S
C893   H894    1.110   .     S
C893   H896    1.111   .     S
C893   H895    1.110   .     S
C897   H899    1.111   .     S
C897   H898    1.110   .     S
C897   H900    1.110   .     S
Zn901  O965    1.945   .     S
Zn901  O980    1.935   .     S
Zn901  O1011   1.938   .     S
Zn902  O966    1.945   .     S
Zn902  O979    1.935   .     S
Zn902  O1007   1.938   .     S
Zn903  O1002   1.938   .     S
Zn903  O967    1.945   .     S
Zn903  O982    1.935   .     S
Zn904  O968    1.945   .     S
Zn904  O981    1.935   .     S
Zn904  O1010   1.938   .     S
Zn905  O984    1.935   .     S
Zn905  O1004   1.938   .     S
Zn905  O965    1.945   .     S
Zn906  O966    1.945   .     S
Zn906  O983    1.935   .     S
Zn906  O1016   1.938   .     S
Zn907  O967    1.945   .     S
Zn907  O978    1.935   .     S
Zn907  O1013   1.938   .     S
Zn908  O1005   1.938   .     S
Zn908  O968    1.945   .     S
Zn908  O977    1.935   .     S
Zn909  O995    1.938   .     S
Zn909  O972    1.935   .     S
Zn909  O992    1.938   .     S
Zn909  O668    1.945   1_655 S
Zn910  O971    1.935   .     S
Zn910  O991    1.938   .     S
Zn910  O967    1.945   .     S
Zn910  O996    1.938   .     S
Zn911  O986    1.938   .     S
Zn911  O974    1.935   .     S
Zn911  O993    1.938   .     S
Zn911  O366    1.945   1_565 S
Zn912  O973    1.935   .     S
Zn912  O994    1.938   .     S
Zn912  O965    1.945   .     S
Zn912  O985    1.938   .     S
Zn913  O999    1.938   .     S
Zn913  O976    1.935   .     S
Zn913  O988    1.938   .     S
Zn913  O968    1.945   .     S
Zn914  O1000   1.938   .     S
Zn914  O975    1.935   .     S
Zn914  O987    1.938   .     S
Zn914  O667    1.945   1_655 S
Zn915  O997    1.938   .     S
Zn915  O966    1.945   .     S
Zn915  O970    1.935   .     S
Zn915  O990    1.938   .     S
Zn916  O989    1.938   .     S
Zn916  O998    1.938   .     S
Zn916  O969    1.935   .     S
Zn916  O365    1.945   1_565 S
C917   C949    1.397   .     A
C917   H933    1.084   .     S
C917   C1017   1.398   .     S
C918   C950    1.397   .     A
C918   H934    1.084   .     S
C918   C1018   1.398   .     S
C919   H935    1.084   .     S
C919   C719    1.398   1_655 A
C919   C951    1.397   .     A
C920   H936    1.084   .     S
C920   C952    1.397   .     A
C920   C1020   1.398   .     S
C921   C417    1.398   1_565 A
C921   H937    1.084   .     S
C921   C953    1.397   .     A
C922   H938    1.084   .     S
C922   C418    1.398   1_565 A
C922   C954    1.397   .     A
C923   C955    1.397   .     A
C923   H939    1.084   .     S
C923   C1019   1.398   .     S
C924   C720    1.398   1_655 A
C924   C956    1.397   .     A
C924   H940    1.084   .     S
C925   H941    1.084   .     S
C925   C721    1.398   1_655 A
C925   C957    1.397   .     A
C926   H942    1.084   .     S
C926   C958    1.397   .     A
C926   C1022   1.398   .     A
C927   H943    1.084   .     S
C927   C959    1.397   .     A
C927   C423    1.398   1_565 S
C928   H944    1.084   .     S
C928   C960    1.397   .     A
C928   C1024   1.398   .     S
C929   H945    1.084   .     S
C929   C961    1.397   .     A
C929   C1021   1.398   .     S
C930   H946    1.084   .     S
C930   C962    1.397   .     A
C930   C722    1.398   1_655 S
C931   C963    1.397   .     A
C931   H947    1.084   .     S
C931   C1023   1.398   .     A
C932   C964    1.397   .     A
C932   H948    1.084   .     S
C932   C424    1.398   1_565 A
C949   C1137   1.509   .     S
C949   C1129   1.414   .     S
C950   C1141   1.509   .     S
C950   C1130   1.414   .     S
C951   C1145   1.509   .     S
C951   C831    1.414   1_655 A
C952   C1149   1.509   .     S
C952   C1132   1.414   .     S
C953   C1153   1.509   .     S
C953   C529    1.414   1_565 A
C954   C530    1.414   1_565 A
C954   C1157   1.509   .     S
C955   C1161   1.509   .     S
C955   C1131   1.414   .     S
C956   C832    1.414   1_655 A
C956   C1165   1.509   .     S
C957   C1169   1.509   .     S
C957   C833    1.414   1_655 A
C958   C1173   1.509   .     S
C958   C1134   1.414   .     A
C959   C535    1.414   1_565 A
C959   C1177   1.509   .     S
C960   C1181   1.509   .     S
C960   C1136   1.414   .     A
C961   C1185   1.509   .     S
C961   C1133   1.414   .     S
C962   C1189   1.509   .     S
C962   C834    1.414   1_655 S
C963   C1193   1.509   .     S
C963   C1135   1.414   .     S
C964   C1197   1.509   .     S
C964   C536    1.414   1_565 S
O969   C425    1.279   1_565 A
O970   C1026   1.279   .     S
O971   C1027   1.279   .     S
O972   C728    1.279   1_655 A
O973   C1025   1.279   .     S
O974   C426    1.279   1_565 A
O975   C727    1.279   1_655 A
O976   C1028   1.279   .     S
O977   C1029   1.280   .     S
O978   C1030   1.279   .     S
O979   C1031   1.279   .     A
O980   C1032   1.279   .     S
O981   C1029   1.280   .     A
O982   C1030   1.279   .     A
O983   C1031   1.279   .     A
O984   C1032   1.279   .     S
O985   C1033   1.279   .     A
O986   C1034   1.279   .     A
O987   C1035   1.279   .     A
O988   C1036   1.279   .     A
O989   C1037   1.279   .     A
O990   C1038   1.279   .     A
O991   C1039   1.279   .     A
O992   C1040   1.279   .     A
O993   C1041   1.279   .     A
O994   C1042   1.279   .     A
O995   C1043   1.279   .     A
O996   C1044   1.279   .     A
O997   C1045   1.279   .     A
O998   C1046   1.279   .     A
O999   C1047   1.279   .     A
O1000  C1048   1.279   .     A
O1001  Zn604   1.938   1_655 S
O1001  C1043   1.279   .     A
O1002  C1044   1.279   .     A
O1003  C1041   1.279   .     A
O1003  Zn306   1.938   1_565 S
O1004  C1042   1.279   .     A
O1005  C1047   1.279   .     A
O1006  C1048   1.279   .     A
O1006  Zn607   1.938   1_655 S
O1007  C1045   1.279   .     A
O1008  C1046   1.279   .     A
O1008  Zn301   1.938   1_565 S
O1009  C1035   1.279   .     A
O1009  Zn603   1.938   1_655 S
O1010  C1036   1.279   .     A
O1011  C1033   1.279   .     A
O1012  C1034   1.279   .     A
O1012  Zn302   1.938   1_565 S
O1013  C1039   1.279   .     A
O1014  C1040   1.279   .     A
O1014  Zn608   1.938   1_655 S
O1015  C1037   1.279   .     A
O1015  Zn305   1.938   1_565 S
O1016  C1038   1.279   .     A
C1017  C1018   1.466   1_554 S
C1018  C1017   1.466   1_556 S
C1019  C1020   1.466   1_554 S
C1020  C1019   1.466   1_556 S
C1021  C1022   1.466   .     S
C1023  C1024   1.466   .     S
C1025  C1136   1.461   .     S
C1026  C1135   1.461   .     S
C1027  C1134   1.461   .     S
C1028  C1133   1.461   .     S
C1029  C1132   1.461   .     S
C1030  C1131   1.460   .     S
C1031  C1130   1.461   .     S
C1032  C1129   1.461   .     S
C1033  C1115   1.456   .     S
C1034  C1116   1.457   .     S
C1035  C1117   1.456   .     S
C1036  C1118   1.457   .     S
C1037  C1119   1.456   .     S
C1038  C1120   1.457   .     S
C1039  C1113   1.456   .     S
C1040  C1114   1.457   .     S
C1041  C1123   1.456   .     S
C1042  C1124   1.457   .     S
C1043  C1125   1.456   .     S
C1044  C1126   1.457   .     S
C1045  C1127   1.456   .     S
C1046  C1128   1.457   .     S
C1047  C1121   1.456   .     S
C1048  C1122   1.457   .     S
C1049  C1064   1.387   .     A
C1049  C1128   1.402   .     A
C1049  H1081   1.083   .     S
C1050  C1063   1.387   .     A
C1050  H1082   1.083   .     S
C1050  C1127   1.402   .     A
C1051  H1083   1.083   .     S
C1051  C1062   1.387   .     A
C1051  C1126   1.402   .     A
C1052  C1125   1.402   .     A
C1052  C1061   1.387   .     A
C1052  H1084   1.083   .     S
C1053  C1124   1.402   .     A
C1053  C1060   1.387   .     A
C1053  H1085   1.083   .     S
C1054  C1059   1.387   .     A
C1054  C1123   1.402   .     A
C1054  H1086   1.083   .     S
C1055  C1058   1.387   .     A
C1055  H1087   1.083   .     S
C1055  C1122   1.402   .     A
C1056  H1088   1.083   .     S
C1056  C1057   1.387   .     A
C1056  C1121   1.402   .     A
C1057  C1120   1.402   .     A
C1057  H1089   1.083   .     S
C1058  H1090   1.083   .     S
C1058  C1119   1.402   .     A
C1059  C1118   1.402   .     A
C1059  H1091   1.083   .     S
C1060  H1092   1.083   .     S
C1060  C1117   1.402   .     A
C1061  H1093   1.083   .     S
C1061  C1116   1.402   .     A
C1062  C1115   1.402   .     A
C1062  H1094   1.083   .     S
C1063  C1114   1.402   .     A
C1063  H1095   1.083   .     S
C1064  H1096   1.083   .     S
C1064  C1113   1.402   .     A
C1065  H1097   1.083   .     S
C1065  C1114   1.402   .     A
C1065  C1080   1.387   .     A
C1066  H1098   1.083   .     S
C1066  C1113   1.402   .     A
C1066  C1079   1.387   .     A
C1067  C1078   1.387   .     A
C1067  H1099   1.083   .     S
C1067  C1116   1.402   .     A
C1068  C1115   1.402   .     A
C1068  C1077   1.387   .     A
C1068  H1100   1.083   .     S
C1069  C1118   1.402   .     A
C1069  C1076   1.387   .     A
C1069  H1101   1.083   .     S
C1070  H1102   1.083   .     S
C1070  C1117   1.402   .     A
C1070  C1075   1.387   .     A
C1071  C1120   1.402   .     A
C1071  H1103   1.083   .     S
C1071  C1074   1.387   .     A
C1072  H1104   1.083   .     S
C1072  C1119   1.402   .     A
C1072  C1073   1.387   .     A
C1073  C1122   1.402   .     A
C1073  H1105   1.083   .     S
C1074  H1106   1.083   .     S
C1074  C1121   1.402   .     A
C1075  H1107   1.083   .     S
C1075  C1124   1.402   .     A
C1076  C1123   1.402   .     A
C1076  H1108   1.083   .     S
C1077  C1126   1.402   .     A
C1077  H1109   1.083   .     S
C1078  H1110   1.083   .     S
C1078  C1125   1.402   .     A
C1079  C1128   1.402   .     A
C1079  H1111   1.083   .     S
C1080  C1127   1.402   .     A
C1080  H1112   1.083   .     S
C1137  H1139   1.110   .     S
C1137  H1140   1.111   .     S
C1137  H1138   1.110   .     S
C1141  H1143   1.110   .     S
C1141  H1144   1.110   .     S
C1141  H1142   1.111   .     S
C1145  H1146   1.110   .     S
C1145  H1148   1.110   .     S
C1145  H1147   1.111   .     S
C1149  H1150   1.110   .     S
C1149  H1152   1.111   .     S
C1149  H1151   1.110   .     S
C1153  H1155   1.110   .     S
C1153  H1156   1.111   .     S
C1153  H1154   1.110   .     S
C1157  H1158   1.110   .     S
C1157  H1160   1.111   .     S
C1157  H1159   1.110   .     S
C1161  H1162   1.110   .     S
C1161  H1164   1.111   .     S
C1161  H1163   1.111   .     S
C1165  H1167   1.111   .     S
C1165  H1166   1.110   .     S
C1165  H1168   1.110   .     S
C1169  H1171   1.110   .     S
C1169  H1170   1.111   .     S
C1169  H1172   1.110   .     S
C1173  H1176   1.111   .     S
C1173  H1175   1.110   .     S
C1173  H1174   1.110   .     S
C1177  H1178   1.110   .     S
C1177  H1179   1.111   .     S
C1177  H1180   1.110   .     S
C1181  H1184   1.110   .     S
C1181  H1183   1.111   .     S
C1181  H1182   1.110   .     S
C1185  H1187   1.110   .     S
C1185  H1186   1.110   .     S
C1185  H1188   1.111   .     S
C1189  H1190   1.110   .     S
C1189  H1192   1.111   .     S
C1189  H1191   1.110   .     S
C1193  H1194   1.110   .     S
C1193  H1196   1.111   .     S
C1193  H1195   1.110   .     S
C1197  H1199   1.111   .     S
C1197  H1198   1.110   .     S
C1197  H1200   1.110   .     S
