data_str_m2_o10_o17_pcu_sym.132
_audit_creation_date              2020-01-03
_audit_creation_method            'Materials Studio'
_symmetry_space_group_name_H-M    'P1'
_symmetry_Int_Tables_number       1
_symmetry_cell_setting            triclinic
loop_
_symmetry_equiv_pos_as_xyz
  x,y,z
_cell_length_a                    30.3069
_cell_length_b                    26.1821
_cell_length_c                    22.2456
_cell_angle_alpha                 102.6856
_cell_angle_beta                  94.8924
_cell_angle_gamma                 92.2494
loop_
_atom_site_label
_atom_site_type_symbol
_atom_site_fract_x
_atom_site_fract_y
_atom_site_fract_z
_atom_site_U_iso_or_equiv
_atom_site_adp_type
_atom_site_occupancy
C1     C     0.24769   0.06677   0.15142   0.00000  Uiso   1.00
C2     C     0.25236   0.26656   0.18191   0.00000  Uiso   1.00
C3     C     0.01437   0.12425   0.05708   0.00000  Uiso   1.00
C4     C     0.48572   0.21068   0.27582   0.00000  Uiso   1.00
C5     C     0.24224   0.01122   0.14374   0.00000  Uiso   1.00
C6     C     0.25787   0.32211   0.18958   0.00000  Uiso   1.00
C7     C     0.16433   0.16664   0.16704   0.00000  Uiso   1.00
C8     C     0.33571   0.16708   0.16642   0.00000  Uiso   1.00
C9     C     0.41197   0.19286   0.22053   0.00000  Uiso   1.00
C10    C     0.08852   0.14226   0.11277   0.00000  Uiso   1.00
C11    C     0.38421   0.16736   0.16663   0.00000  Uiso   1.00
C12    C     0.11589   0.16688   0.16702   0.00000  Uiso   1.00
C13    C     0.40311   0.14091   0.11347   0.00000  Uiso   1.00
C14    C     0.09701   0.19326   0.22011   0.00000  Uiso   1.00
C15    C     0.44939   0.14452   0.11202   0.00000  Uiso   1.00
C16    C     0.05072   0.19006   0.22116   0.00000  Uiso   1.00
C17    C     0.47685   0.16743   0.16652   0.00000  Uiso   1.00
C18    C     0.02334   0.16742   0.16641   0.00000  Uiso   1.00
C19    C     0.45802   0.19039   0.22115   0.00000  Uiso   1.00
C20    C     0.04224   0.14465   0.11165   0.00000  Uiso   1.00
C21    C     0.46866   0.12476   0.05717   0.00000  Uiso   1.00
C22    C     0.03139   0.20983   0.27598   0.00000  Uiso   1.00
Cu23   Cu    0.25500   0.17246   0.22813   0.00000  Uiso   1.00
Cu24   Cu    0.24499   0.16087   0.10521   0.00000  Uiso   1.00
H25    H     0.44848   0.10909   0.01397   0.00000  Uiso   1.00
H26    H     0.05148   0.22521   0.31932   0.00000  Uiso   1.00
H27    H     0.02738   0.10764   0.01371   0.00000  Uiso   1.00
H28    H     0.47233   0.22710   0.31905   0.00000  Uiso   1.00
H29    H     0.21534   0.12595   0.31577   0.00000  Uiso   1.00
H30    H     0.28466   0.20738   0.01756   0.00000  Uiso   1.00
N31    N     0.23744   0.15214   0.01284   0.00000  Uiso   1.00
N32    N     0.26255   0.18119   0.32049   0.00000  Uiso   1.00
O33    O     0.25325   0.09538   0.20659   0.00000  Uiso   1.00
O34    O     0.24674   0.23796   0.12674   0.00000  Uiso   1.00
O35    O     0.24480   0.08559   0.10279   0.00000  Uiso   1.00
O36    O     0.25520   0.24774   0.23055   0.00000  Uiso   1.00
O37    O     0.18935   0.17155   0.21857   0.00000  Uiso   1.00
O38    O     0.31064   0.16179   0.11476   0.00000  Uiso   1.00
O39    O     0.18090   0.16176   0.11477   0.00000  Uiso   1.00
O40    O     0.31910   0.17157   0.21857   0.00000  Uiso   1.00
N41    N     0.39442   0.22291   0.27451   0.00000  Uiso   1.00
H42    H     0.37268   0.24956   0.26171   0.00000  Uiso   1.00
H43    H     0.37853   0.19770   0.29742   0.00000  Uiso   1.00
N44    N     0.10812   0.11389   0.05964   0.00000  Uiso   1.00
H45    H     0.10110   0.13172   0.02249   0.00000  Uiso   1.00
H46    H     0.09480   0.07515   0.04816   0.00000  Uiso   1.00
O47    O     0.37594   0.11282   0.06251   0.00000  Uiso   1.00
C48    C     0.38069   0.05810   0.05545   0.00000  Uiso   1.00
H49    H     0.41149   0.04757   0.08004   0.00000  Uiso   1.00
H50    H     0.38194   0.04057   0.00545   0.00000  Uiso   1.00
C51    C     0.34096   0.03255   0.07713   0.00000  Uiso   1.00
H52    H     0.31018   0.04002   0.05064   0.00000  Uiso   1.00
H53    H     0.34411   0.32286   0.06920   0.00000  Uiso   1.00
H54    H     0.33922   0.04866   0.12731   0.00000  Uiso   1.00
O55    O     0.12419   0.22093   0.27131   0.00000  Uiso   1.00
C56    C     0.11977   0.27575   0.27874   0.00000  Uiso   1.00
H57    H     0.11879   0.29312   0.32884   0.00000  Uiso   1.00
H58    H     0.08898   0.28666   0.25453   0.00000  Uiso   1.00
C59    C     0.15952   0.30109   0.25687   0.00000  Uiso   1.00
H60    H     0.16101   0.28510   0.20660   0.00000  Uiso   1.00
H61    H     0.15661   0.01083   0.26504   0.00000  Uiso   1.00
H62    H     0.19031   0.29329   0.28305   0.00000  Uiso   1.00
N63    N     0.21780   0.31482   0.08779   0.00000  Uiso   1.00
H64    H     0.23493   0.31932   0.05027   0.00000  Uiso   1.00
H65    H     0.18677   0.33041   0.08316   0.00000  Uiso   1.00
N66    N     0.28236   0.01851   0.24550   0.00000  Uiso   1.00
H67    H     0.26527   0.01402   0.28306   0.00000  Uiso   1.00
H68    H     0.31339   0.00290   0.25007   0.00000  Uiso   1.00
C69    C     0.74769   0.06677   0.15142   0.00000  Uiso   1.00
C70    C     0.75236   0.26656   0.18191   0.00000  Uiso   1.00
C71    C     0.51437   0.12425   0.05708   0.00000  Uiso   1.00
C72    C     0.98572   0.21068   0.27582   0.00000  Uiso   1.00
C73    C     0.74224   0.01122   0.14374   0.00000  Uiso   1.00
C74    C     0.75787   0.32211   0.18958   0.00000  Uiso   1.00
C75    C     0.66433   0.16664   0.16704   0.00000  Uiso   1.00
C76    C     0.83571   0.16708   0.16642   0.00000  Uiso   1.00
C77    C     0.91197   0.19286   0.22053   0.00000  Uiso   1.00
C78    C     0.58852   0.14226   0.11277   0.00000  Uiso   1.00
C79    C     0.88421   0.16736   0.16663   0.00000  Uiso   1.00
C80    C     0.61589   0.16688   0.16702   0.00000  Uiso   1.00
C81    C     0.90311   0.14091   0.11347   0.00000  Uiso   1.00
C82    C     0.59701   0.19326   0.22011   0.00000  Uiso   1.00
C83    C     0.94939   0.14452   0.11202   0.00000  Uiso   1.00
C84    C     0.55072   0.19006   0.22116   0.00000  Uiso   1.00
C85    C     0.97685   0.16743   0.16652   0.00000  Uiso   1.00
C86    C     0.52334   0.16742   0.16641   0.00000  Uiso   1.00
C87    C     0.95802   0.19039   0.22115   0.00000  Uiso   1.00
C88    C     0.54224   0.14465   0.11165   0.00000  Uiso   1.00
C89    C     0.96866   0.12476   0.05717   0.00000  Uiso   1.00
C90    C     0.53139   0.20983   0.27598   0.00000  Uiso   1.00
Cu91   Cu    0.75500   0.17246   0.22813   0.00000  Uiso   1.00
Cu92   Cu    0.74499   0.16087   0.10521   0.00000  Uiso   1.00
H93    H     0.94848   0.10909   0.01397   0.00000  Uiso   1.00
H94    H     0.55148   0.22521   0.31932   0.00000  Uiso   1.00
H95    H     0.52738   0.10764   0.01371   0.00000  Uiso   1.00
H96    H     0.97233   0.22710   0.31905   0.00000  Uiso   1.00
H97    H     0.71534   0.12595   0.31577   0.00000  Uiso   1.00
H98    H     0.78466   0.20738   0.01756   0.00000  Uiso   1.00
N99    N     0.73744   0.15214   0.01284   0.00000  Uiso   1.00
N100   N     0.76255   0.18119   0.32049   0.00000  Uiso   1.00
O101   O     0.75325   0.09538   0.20659   0.00000  Uiso   1.00
O102   O     0.74674   0.23796   0.12674   0.00000  Uiso   1.00
O103   O     0.74480   0.08559   0.10279   0.00000  Uiso   1.00
O104   O     0.75520   0.24774   0.23055   0.00000  Uiso   1.00
O105   O     0.68935   0.17155   0.21857   0.00000  Uiso   1.00
O106   O     0.81064   0.16179   0.11476   0.00000  Uiso   1.00
O107   O     0.68090   0.16176   0.11477   0.00000  Uiso   1.00
O108   O     0.81910   0.17157   0.21857   0.00000  Uiso   1.00
N109   N     0.89442   0.22291   0.27451   0.00000  Uiso   1.00
H110   H     0.87268   0.24956   0.26171   0.00000  Uiso   1.00
H111   H     0.87853   0.19770   0.29742   0.00000  Uiso   1.00
N112   N     0.60812   0.11389   0.05964   0.00000  Uiso   1.00
H113   H     0.60110   0.13172   0.02249   0.00000  Uiso   1.00
H114   H     0.59480   0.07515   0.04816   0.00000  Uiso   1.00
O115   O     0.87594   0.11282   0.06251   0.00000  Uiso   1.00
C116   C     0.88069   0.05810   0.05545   0.00000  Uiso   1.00
H117   H     0.91149   0.04757   0.08004   0.00000  Uiso   1.00
H118   H     0.88194   0.04057   0.00545   0.00000  Uiso   1.00
C119   C     0.84096   0.03255   0.07713   0.00000  Uiso   1.00
H120   H     0.81018   0.04002   0.05064   0.00000  Uiso   1.00
H121   H     0.84411   0.32286   0.06920   0.00000  Uiso   1.00
H122   H     0.83922   0.04866   0.12731   0.00000  Uiso   1.00
O123   O     0.62419   0.22093   0.27131   0.00000  Uiso   1.00
C124   C     0.61977   0.27575   0.27874   0.00000  Uiso   1.00
H125   H     0.61879   0.29312   0.32884   0.00000  Uiso   1.00
H126   H     0.58898   0.28666   0.25453   0.00000  Uiso   1.00
C127   C     0.65952   0.30109   0.25687   0.00000  Uiso   1.00
H128   H     0.66101   0.28510   0.20660   0.00000  Uiso   1.00
H129   H     0.65661   0.01083   0.26504   0.00000  Uiso   1.00
H130   H     0.69031   0.29329   0.28305   0.00000  Uiso   1.00
N131   N     0.71780   0.31482   0.08779   0.00000  Uiso   1.00
H132   H     0.73493   0.31932   0.05027   0.00000  Uiso   1.00
H133   H     0.68677   0.33041   0.08316   0.00000  Uiso   1.00
N134   N     0.78236   0.01851   0.24550   0.00000  Uiso   1.00
H135   H     0.76527   0.01402   0.28306   0.00000  Uiso   1.00
H136   H     0.81339   0.00290   0.25007   0.00000  Uiso   1.00
C137   C     0.24769   0.40010   0.15142   0.00000  Uiso   1.00
C138   C     0.25236   0.59990   0.18191   0.00000  Uiso   1.00
C139   C     0.01437   0.45758   0.05708   0.00000  Uiso   1.00
C140   C     0.48572   0.54402   0.27582   0.00000  Uiso   1.00
C141   C     0.24224   0.34456   0.14374   0.00000  Uiso   1.00
C142   C     0.25787   0.65544   0.18958   0.00000  Uiso   1.00
C143   C     0.16433   0.49997   0.16704   0.00000  Uiso   1.00
C144   C     0.33571   0.50041   0.16642   0.00000  Uiso   1.00
C145   C     0.41197   0.52619   0.22053   0.00000  Uiso   1.00
C146   C     0.08852   0.47560   0.11277   0.00000  Uiso   1.00
C147   C     0.38421   0.50069   0.16663   0.00000  Uiso   1.00
C148   C     0.11589   0.50022   0.16702   0.00000  Uiso   1.00
C149   C     0.40311   0.47425   0.11347   0.00000  Uiso   1.00
C150   C     0.09701   0.52659   0.22011   0.00000  Uiso   1.00
C151   C     0.44939   0.47786   0.11202   0.00000  Uiso   1.00
C152   C     0.05072   0.52339   0.22116   0.00000  Uiso   1.00
C153   C     0.47685   0.50076   0.16652   0.00000  Uiso   1.00
C154   C     0.02334   0.50075   0.16641   0.00000  Uiso   1.00
C155   C     0.45802   0.52372   0.22115   0.00000  Uiso   1.00
C156   C     0.04224   0.47799   0.11165   0.00000  Uiso   1.00
C157   C     0.46866   0.45810   0.05717   0.00000  Uiso   1.00
C158   C     0.03139   0.54316   0.27598   0.00000  Uiso   1.00
Cu159  Cu    0.25500   0.50579   0.22813   0.00000  Uiso   1.00
Cu160  Cu    0.24499   0.49421   0.10521   0.00000  Uiso   1.00
H161   H     0.44848   0.44242   0.01397   0.00000  Uiso   1.00
H162   H     0.05148   0.55855   0.31932   0.00000  Uiso   1.00
H163   H     0.02738   0.44098   0.01371   0.00000  Uiso   1.00
H164   H     0.47233   0.56043   0.31905   0.00000  Uiso   1.00
H165   H     0.21534   0.45928   0.31577   0.00000  Uiso   1.00
H166   H     0.28466   0.54071   0.01756   0.00000  Uiso   1.00
N167   N     0.23744   0.48547   0.01284   0.00000  Uiso   1.00
N168   N     0.26255   0.51453   0.32049   0.00000  Uiso   1.00
O169   O     0.25325   0.42871   0.20659   0.00000  Uiso   1.00
O170   O     0.24674   0.57129   0.12674   0.00000  Uiso   1.00
O171   O     0.24480   0.41892   0.10279   0.00000  Uiso   1.00
O172   O     0.25520   0.58108   0.23055   0.00000  Uiso   1.00
O173   O     0.18935   0.50488   0.21857   0.00000  Uiso   1.00
O174   O     0.31064   0.49512   0.11476   0.00000  Uiso   1.00
O175   O     0.18090   0.49510   0.11477   0.00000  Uiso   1.00
O176   O     0.31910   0.50490   0.21857   0.00000  Uiso   1.00
N177   N     0.39442   0.55624   0.27451   0.00000  Uiso   1.00
H178   H     0.37268   0.58290   0.26171   0.00000  Uiso   1.00
H179   H     0.37853   0.53103   0.29742   0.00000  Uiso   1.00
N180   N     0.10812   0.44722   0.05964   0.00000  Uiso   1.00
H181   H     0.10110   0.46505   0.02249   0.00000  Uiso   1.00
H182   H     0.09480   0.40848   0.04816   0.00000  Uiso   1.00
O183   O     0.37594   0.44615   0.06251   0.00000  Uiso   1.00
C184   C     0.38069   0.39143   0.05545   0.00000  Uiso   1.00
H185   H     0.41149   0.38090   0.08004   0.00000  Uiso   1.00
H186   H     0.38194   0.37391   0.00545   0.00000  Uiso   1.00
C187   C     0.34096   0.36589   0.07713   0.00000  Uiso   1.00
H188   H     0.31018   0.37336   0.05064   0.00000  Uiso   1.00
H189   H     0.34411   0.65619   0.06920   0.00000  Uiso   1.00
H190   H     0.33922   0.38200   0.12731   0.00000  Uiso   1.00
O191   O     0.12419   0.55427   0.27131   0.00000  Uiso   1.00
C192   C     0.11977   0.60909   0.27874   0.00000  Uiso   1.00
H193   H     0.11879   0.62646   0.32884   0.00000  Uiso   1.00
H194   H     0.08898   0.62000   0.25453   0.00000  Uiso   1.00
C195   C     0.15952   0.63442   0.25687   0.00000  Uiso   1.00
H196   H     0.16101   0.61843   0.20660   0.00000  Uiso   1.00
H197   H     0.15661   0.34417   0.26504   0.00000  Uiso   1.00
H198   H     0.19031   0.62662   0.28305   0.00000  Uiso   1.00
N199   N     0.21780   0.64815   0.08779   0.00000  Uiso   1.00
H200   H     0.23493   0.65266   0.05027   0.00000  Uiso   1.00
H201   H     0.18677   0.66374   0.08316   0.00000  Uiso   1.00
N202   N     0.28236   0.35184   0.24550   0.00000  Uiso   1.00
H203   H     0.26527   0.34736   0.28306   0.00000  Uiso   1.00
H204   H     0.31339   0.33623   0.25007   0.00000  Uiso   1.00
C205   C     0.74769   0.40010   0.15142   0.00000  Uiso   1.00
C206   C     0.75236   0.59990   0.18191   0.00000  Uiso   1.00
C207   C     0.51437   0.45758   0.05708   0.00000  Uiso   1.00
C208   C     0.98572   0.54402   0.27582   0.00000  Uiso   1.00
C209   C     0.74224   0.34456   0.14374   0.00000  Uiso   1.00
C210   C     0.75787   0.65544   0.18958   0.00000  Uiso   1.00
C211   C     0.66433   0.49997   0.16704   0.00000  Uiso   1.00
C212   C     0.83571   0.50041   0.16642   0.00000  Uiso   1.00
C213   C     0.91197   0.52619   0.22053   0.00000  Uiso   1.00
C214   C     0.58852   0.47560   0.11277   0.00000  Uiso   1.00
C215   C     0.88421   0.50069   0.16663   0.00000  Uiso   1.00
C216   C     0.61589   0.50022   0.16702   0.00000  Uiso   1.00
C217   C     0.90311   0.47425   0.11347   0.00000  Uiso   1.00
C218   C     0.59701   0.52659   0.22011   0.00000  Uiso   1.00
C219   C     0.94939   0.47786   0.11202   0.00000  Uiso   1.00
C220   C     0.55072   0.52339   0.22116   0.00000  Uiso   1.00
C221   C     0.97685   0.50076   0.16652   0.00000  Uiso   1.00
C222   C     0.52334   0.50075   0.16641   0.00000  Uiso   1.00
C223   C     0.95802   0.52372   0.22115   0.00000  Uiso   1.00
C224   C     0.54224   0.47799   0.11165   0.00000  Uiso   1.00
C225   C     0.96866   0.45810   0.05717   0.00000  Uiso   1.00
C226   C     0.53139   0.54316   0.27598   0.00000  Uiso   1.00
Cu227  Cu    0.75500   0.50579   0.22813   0.00000  Uiso   1.00
Cu228  Cu    0.74499   0.49421   0.10521   0.00000  Uiso   1.00
H229   H     0.94848   0.44242   0.01397   0.00000  Uiso   1.00
H230   H     0.55148   0.55855   0.31932   0.00000  Uiso   1.00
H231   H     0.52738   0.44098   0.01371   0.00000  Uiso   1.00
H232   H     0.97233   0.56043   0.31905   0.00000  Uiso   1.00
H233   H     0.71534   0.45928   0.31577   0.00000  Uiso   1.00
H234   H     0.78466   0.54071   0.01756   0.00000  Uiso   1.00
N235   N     0.73744   0.48547   0.01284   0.00000  Uiso   1.00
N236   N     0.76255   0.51453   0.32049   0.00000  Uiso   1.00
O237   O     0.75325   0.42871   0.20659   0.00000  Uiso   1.00
O238   O     0.74674   0.57129   0.12674   0.00000  Uiso   1.00
O239   O     0.74480   0.41892   0.10279   0.00000  Uiso   1.00
O240   O     0.75520   0.58108   0.23055   0.00000  Uiso   1.00
O241   O     0.68935   0.50488   0.21857   0.00000  Uiso   1.00
O242   O     0.81064   0.49512   0.11476   0.00000  Uiso   1.00
O243   O     0.68090   0.49510   0.11477   0.00000  Uiso   1.00
O244   O     0.81910   0.50490   0.21857   0.00000  Uiso   1.00
N245   N     0.89442   0.55624   0.27451   0.00000  Uiso   1.00
H246   H     0.87268   0.58290   0.26171   0.00000  Uiso   1.00
H247   H     0.87853   0.53103   0.29742   0.00000  Uiso   1.00
N248   N     0.60812   0.44722   0.05964   0.00000  Uiso   1.00
H249   H     0.60110   0.46505   0.02249   0.00000  Uiso   1.00
H250   H     0.59480   0.40848   0.04816   0.00000  Uiso   1.00
O251   O     0.87594   0.44615   0.06251   0.00000  Uiso   1.00
C252   C     0.88069   0.39143   0.05545   0.00000  Uiso   1.00
H253   H     0.91149   0.38090   0.08004   0.00000  Uiso   1.00
H254   H     0.88194   0.37391   0.00545   0.00000  Uiso   1.00
C255   C     0.84096   0.36589   0.07713   0.00000  Uiso   1.00
H256   H     0.81018   0.37336   0.05064   0.00000  Uiso   1.00
H257   H     0.84411   0.65619   0.06920   0.00000  Uiso   1.00
H258   H     0.83922   0.38200   0.12731   0.00000  Uiso   1.00
O259   O     0.62419   0.55427   0.27131   0.00000  Uiso   1.00
C260   C     0.61977   0.60909   0.27874   0.00000  Uiso   1.00
H261   H     0.61879   0.62646   0.32884   0.00000  Uiso   1.00
H262   H     0.58898   0.62000   0.25453   0.00000  Uiso   1.00
C263   C     0.65952   0.63442   0.25687   0.00000  Uiso   1.00
H264   H     0.66101   0.61843   0.20660   0.00000  Uiso   1.00
H265   H     0.65661   0.34417   0.26504   0.00000  Uiso   1.00
H266   H     0.69031   0.62662   0.28305   0.00000  Uiso   1.00
N267   N     0.71780   0.64815   0.08779   0.00000  Uiso   1.00
H268   H     0.73493   0.65266   0.05027   0.00000  Uiso   1.00
H269   H     0.68677   0.66374   0.08316   0.00000  Uiso   1.00
N270   N     0.78236   0.35184   0.24550   0.00000  Uiso   1.00
H271   H     0.76527   0.34736   0.28306   0.00000  Uiso   1.00
H272   H     0.81339   0.33623   0.25007   0.00000  Uiso   1.00
C273   C     0.24769   0.73344   0.15142   0.00000  Uiso   1.00
C274   C     0.25236   0.93323   0.18191   0.00000  Uiso   1.00
C275   C     0.01437   0.79092   0.05708   0.00000  Uiso   1.00
C276   C     0.48572   0.87735   0.27582   0.00000  Uiso   1.00
C277   C     0.24224   0.67789   0.14374   0.00000  Uiso   1.00
C278   C     0.25787   0.98878   0.18958   0.00000  Uiso   1.00
C279   C     0.16433   0.83330   0.16704   0.00000  Uiso   1.00
C280   C     0.33571   0.83374   0.16642   0.00000  Uiso   1.00
C281   C     0.41197   0.85952   0.22053   0.00000  Uiso   1.00
C282   C     0.08852   0.80893   0.11277   0.00000  Uiso   1.00
C283   C     0.38421   0.83403   0.16663   0.00000  Uiso   1.00
C284   C     0.11589   0.83355   0.16702   0.00000  Uiso   1.00
C285   C     0.40311   0.80758   0.11347   0.00000  Uiso   1.00
C286   C     0.09701   0.85992   0.22011   0.00000  Uiso   1.00
C287   C     0.44939   0.81119   0.11202   0.00000  Uiso   1.00
C288   C     0.05072   0.85672   0.22116   0.00000  Uiso   1.00
C289   C     0.47685   0.83410   0.16652   0.00000  Uiso   1.00
C290   C     0.02334   0.83409   0.16641   0.00000  Uiso   1.00
C291   C     0.45802   0.85706   0.22115   0.00000  Uiso   1.00
C292   C     0.04224   0.81132   0.11165   0.00000  Uiso   1.00
C293   C     0.46866   0.79143   0.05717   0.00000  Uiso   1.00
C294   C     0.03139   0.87650   0.27598   0.00000  Uiso   1.00
Cu295  Cu    0.25500   0.83913   0.22813   0.00000  Uiso   1.00
Cu296  Cu    0.24499   0.82754   0.10521   0.00000  Uiso   1.00
H297   H     0.44848   0.77576   0.01397   0.00000  Uiso   1.00
H298   H     0.05148   0.89188   0.31932   0.00000  Uiso   1.00
H299   H     0.02738   0.77431   0.01371   0.00000  Uiso   1.00
H300   H     0.47233   0.89376   0.31905   0.00000  Uiso   1.00
H301   H     0.21534   0.79262   0.31577   0.00000  Uiso   1.00
H302   H     0.28466   0.87405   0.01756   0.00000  Uiso   1.00
N303   N     0.23744   0.81881   0.01284   0.00000  Uiso   1.00
N304   N     0.26255   0.84786   0.32049   0.00000  Uiso   1.00
O305   O     0.25325   0.76204   0.20659   0.00000  Uiso   1.00
O306   O     0.24674   0.90462   0.12674   0.00000  Uiso   1.00
O307   O     0.24480   0.75226   0.10279   0.00000  Uiso   1.00
O308   O     0.25520   0.91441   0.23055   0.00000  Uiso   1.00
O309   O     0.18935   0.83821   0.21857   0.00000  Uiso   1.00
O310   O     0.31064   0.82845   0.11476   0.00000  Uiso   1.00
O311   O     0.18090   0.82843   0.11477   0.00000  Uiso   1.00
O312   O     0.31910   0.83824   0.21857   0.00000  Uiso   1.00
N313   N     0.39442   0.88957   0.27451   0.00000  Uiso   1.00
H314   H     0.37268   0.91623   0.26171   0.00000  Uiso   1.00
H315   H     0.37853   0.86436   0.29742   0.00000  Uiso   1.00
N316   N     0.10812   0.78055   0.05964   0.00000  Uiso   1.00
H317   H     0.10110   0.79839   0.02249   0.00000  Uiso   1.00
H318   H     0.09480   0.74181   0.04816   0.00000  Uiso   1.00
O319   O     0.37594   0.77949   0.06251   0.00000  Uiso   1.00
C320   C     0.38069   0.72476   0.05545   0.00000  Uiso   1.00
H321   H     0.41149   0.71423   0.08004   0.00000  Uiso   1.00
H322   H     0.38194   0.70724   0.00545   0.00000  Uiso   1.00
C323   C     0.34096   0.69922   0.07713   0.00000  Uiso   1.00
H324   H     0.31018   0.70669   0.05064   0.00000  Uiso   1.00
H325   H     0.34411   0.98952   0.06920   0.00000  Uiso   1.00
H326   H     0.33922   0.71533   0.12731   0.00000  Uiso   1.00
O327   O     0.12419   0.88760   0.27131   0.00000  Uiso   1.00
C328   C     0.11977   0.94242   0.27874   0.00000  Uiso   1.00
H329   H     0.11879   0.95979   0.32884   0.00000  Uiso   1.00
H330   H     0.08898   0.95333   0.25453   0.00000  Uiso   1.00
C331   C     0.15952   0.96775   0.25687   0.00000  Uiso   1.00
H332   H     0.16101   0.95177   0.20660   0.00000  Uiso   1.00
H333   H     0.15661   0.67750   0.26504   0.00000  Uiso   1.00
H334   H     0.19031   0.95996   0.28305   0.00000  Uiso   1.00
N335   N     0.21780   0.98149   0.08779   0.00000  Uiso   1.00
H336   H     0.23493   0.98599   0.05027   0.00000  Uiso   1.00
H337   H     0.18677   0.99708   0.08316   0.00000  Uiso   1.00
N338   N     0.28236   0.68517   0.24550   0.00000  Uiso   1.00
H339   H     0.26527   0.68069   0.28306   0.00000  Uiso   1.00
H340   H     0.31339   0.66956   0.25007   0.00000  Uiso   1.00
C341   C     0.74769   0.73344   0.15142   0.00000  Uiso   1.00
C342   C     0.75236   0.93323   0.18191   0.00000  Uiso   1.00
C343   C     0.51437   0.79092   0.05708   0.00000  Uiso   1.00
C344   C     0.98572   0.87735   0.27582   0.00000  Uiso   1.00
C345   C     0.74224   0.67789   0.14374   0.00000  Uiso   1.00
C346   C     0.75787   0.98878   0.18958   0.00000  Uiso   1.00
C347   C     0.66433   0.83330   0.16704   0.00000  Uiso   1.00
C348   C     0.83571   0.83374   0.16642   0.00000  Uiso   1.00
C349   C     0.91197   0.85952   0.22053   0.00000  Uiso   1.00
C350   C     0.58852   0.80893   0.11277   0.00000  Uiso   1.00
C351   C     0.88421   0.83403   0.16663   0.00000  Uiso   1.00
C352   C     0.61589   0.83355   0.16702   0.00000  Uiso   1.00
C353   C     0.90311   0.80758   0.11347   0.00000  Uiso   1.00
C354   C     0.59701   0.85992   0.22011   0.00000  Uiso   1.00
C355   C     0.94939   0.81119   0.11202   0.00000  Uiso   1.00
C356   C     0.55072   0.85672   0.22116   0.00000  Uiso   1.00
C357   C     0.97685   0.83410   0.16652   0.00000  Uiso   1.00
C358   C     0.52334   0.83409   0.16641   0.00000  Uiso   1.00
C359   C     0.95802   0.85706   0.22115   0.00000  Uiso   1.00
C360   C     0.54224   0.81132   0.11165   0.00000  Uiso   1.00
C361   C     0.96866   0.79143   0.05717   0.00000  Uiso   1.00
C362   C     0.53139   0.87650   0.27598   0.00000  Uiso   1.00
Cu363  Cu    0.75500   0.83913   0.22813   0.00000  Uiso   1.00
Cu364  Cu    0.74499   0.82754   0.10521   0.00000  Uiso   1.00
H365   H     0.94848   0.77576   0.01397   0.00000  Uiso   1.00
H366   H     0.55148   0.89188   0.31932   0.00000  Uiso   1.00
H367   H     0.52738   0.77431   0.01371   0.00000  Uiso   1.00
H368   H     0.97233   0.89376   0.31905   0.00000  Uiso   1.00
H369   H     0.71534   0.79262   0.31577   0.00000  Uiso   1.00
H370   H     0.78466   0.87405   0.01756   0.00000  Uiso   1.00
N371   N     0.73744   0.81881   0.01284   0.00000  Uiso   1.00
N372   N     0.76255   0.84786   0.32049   0.00000  Uiso   1.00
O373   O     0.75325   0.76204   0.20659   0.00000  Uiso   1.00
O374   O     0.74674   0.90462   0.12674   0.00000  Uiso   1.00
O375   O     0.74480   0.75226   0.10279   0.00000  Uiso   1.00
O376   O     0.75520   0.91441   0.23055   0.00000  Uiso   1.00
O377   O     0.68935   0.83821   0.21857   0.00000  Uiso   1.00
O378   O     0.81064   0.82845   0.11476   0.00000  Uiso   1.00
O379   O     0.68090   0.82843   0.11477   0.00000  Uiso   1.00
O380   O     0.81910   0.83824   0.21857   0.00000  Uiso   1.00
N381   N     0.89442   0.88957   0.27451   0.00000  Uiso   1.00
H382   H     0.87268   0.91623   0.26171   0.00000  Uiso   1.00
H383   H     0.87853   0.86436   0.29742   0.00000  Uiso   1.00
N384   N     0.60812   0.78055   0.05964   0.00000  Uiso   1.00
H385   H     0.60110   0.79839   0.02249   0.00000  Uiso   1.00
H386   H     0.59480   0.74181   0.04816   0.00000  Uiso   1.00
O387   O     0.87594   0.77949   0.06251   0.00000  Uiso   1.00
C388   C     0.88069   0.72476   0.05545   0.00000  Uiso   1.00
H389   H     0.91149   0.71423   0.08004   0.00000  Uiso   1.00
H390   H     0.88194   0.70724   0.00545   0.00000  Uiso   1.00
C391   C     0.84096   0.69922   0.07713   0.00000  Uiso   1.00
H392   H     0.81018   0.70669   0.05064   0.00000  Uiso   1.00
H393   H     0.84411   0.98952   0.06920   0.00000  Uiso   1.00
H394   H     0.83922   0.71533   0.12731   0.00000  Uiso   1.00
O395   O     0.62419   0.88760   0.27131   0.00000  Uiso   1.00
C396   C     0.61977   0.94242   0.27874   0.00000  Uiso   1.00
H397   H     0.61879   0.95979   0.32884   0.00000  Uiso   1.00
H398   H     0.58898   0.95333   0.25453   0.00000  Uiso   1.00
C399   C     0.65952   0.96775   0.25687   0.00000  Uiso   1.00
H400   H     0.66101   0.95177   0.20660   0.00000  Uiso   1.00
H401   H     0.65661   0.67750   0.26504   0.00000  Uiso   1.00
H402   H     0.69031   0.95996   0.28305   0.00000  Uiso   1.00
N403   N     0.71780   0.98149   0.08779   0.00000  Uiso   1.00
H404   H     0.73493   0.98599   0.05027   0.00000  Uiso   1.00
H405   H     0.68677   0.99708   0.08316   0.00000  Uiso   1.00
N406   N     0.78236   0.68517   0.24550   0.00000  Uiso   1.00
H407   H     0.76527   0.68069   0.28306   0.00000  Uiso   1.00
H408   H     0.81339   0.66956   0.25007   0.00000  Uiso   1.00
C409   C     0.24769   0.06677   0.48476   0.00000  Uiso   1.00
C410   C     0.25236   0.26656   0.51524   0.00000  Uiso   1.00
C411   C     0.01437   0.12425   0.39041   0.00000  Uiso   1.00
C412   C     0.48572   0.21068   0.60915   0.00000  Uiso   1.00
C413   C     0.24224   0.01122   0.47707   0.00000  Uiso   1.00
C414   C     0.25787   0.32211   0.52291   0.00000  Uiso   1.00
C415   C     0.16433   0.16664   0.50038   0.00000  Uiso   1.00
C416   C     0.33571   0.16708   0.49975   0.00000  Uiso   1.00
C417   C     0.41197   0.19286   0.55386   0.00000  Uiso   1.00
C418   C     0.08852   0.14226   0.44610   0.00000  Uiso   1.00
C419   C     0.38421   0.16736   0.49996   0.00000  Uiso   1.00
C420   C     0.11589   0.16688   0.50035   0.00000  Uiso   1.00
C421   C     0.40311   0.14091   0.44681   0.00000  Uiso   1.00
C422   C     0.09701   0.19326   0.55344   0.00000  Uiso   1.00
C423   C     0.44939   0.14452   0.44536   0.00000  Uiso   1.00
C424   C     0.05072   0.19006   0.55450   0.00000  Uiso   1.00
C425   C     0.47685   0.16743   0.49985   0.00000  Uiso   1.00
C426   C     0.02334   0.16742   0.49974   0.00000  Uiso   1.00
C427   C     0.45802   0.19039   0.55448   0.00000  Uiso   1.00
C428   C     0.04224   0.14465   0.44498   0.00000  Uiso   1.00
C429   C     0.46866   0.12476   0.39050   0.00000  Uiso   1.00
C430   C     0.03139   0.20983   0.60932   0.00000  Uiso   1.00
Cu431  Cu    0.25500   0.17246   0.56146   0.00000  Uiso   1.00
Cu432  Cu    0.24499   0.16087   0.43854   0.00000  Uiso   1.00
H433   H     0.44848   0.10909   0.34730   0.00000  Uiso   1.00
H434   H     0.05148   0.22521   0.65265   0.00000  Uiso   1.00
H435   H     0.02738   0.10764   0.34704   0.00000  Uiso   1.00
H436   H     0.47233   0.22710   0.65239   0.00000  Uiso   1.00
H437   H     0.21534   0.12595   0.64911   0.00000  Uiso   1.00
H438   H     0.28466   0.20738   0.35089   0.00000  Uiso   1.00
N439   N     0.23744   0.15214   0.34617   0.00000  Uiso   1.00
N440   N     0.26255   0.18119   0.65383   0.00000  Uiso   1.00
O441   O     0.25325   0.09538   0.53992   0.00000  Uiso   1.00
O442   O     0.24674   0.23796   0.46008   0.00000  Uiso   1.00
O443   O     0.24480   0.08559   0.43612   0.00000  Uiso   1.00
O444   O     0.25520   0.24774   0.56388   0.00000  Uiso   1.00
O445   O     0.18935   0.17155   0.55191   0.00000  Uiso   1.00
O446   O     0.31064   0.16179   0.44809   0.00000  Uiso   1.00
O447   O     0.18090   0.16176   0.44810   0.00000  Uiso   1.00
O448   O     0.31910   0.17157   0.55190   0.00000  Uiso   1.00
N449   N     0.39442   0.22291   0.60785   0.00000  Uiso   1.00
H450   H     0.37268   0.24956   0.59505   0.00000  Uiso   1.00
H451   H     0.37853   0.19770   0.63075   0.00000  Uiso   1.00
N452   N     0.10812   0.11389   0.39297   0.00000  Uiso   1.00
H453   H     0.10110   0.13172   0.35582   0.00000  Uiso   1.00
H454   H     0.09480   0.07515   0.38149   0.00000  Uiso   1.00
O455   O     0.37594   0.11282   0.39584   0.00000  Uiso   1.00
C456   C     0.38069   0.05810   0.38878   0.00000  Uiso   1.00
H457   H     0.41149   0.04757   0.41338   0.00000  Uiso   1.00
H458   H     0.38194   0.04057   0.33878   0.00000  Uiso   1.00
C459   C     0.34096   0.03255   0.41046   0.00000  Uiso   1.00
H460   H     0.31018   0.04002   0.38397   0.00000  Uiso   1.00
H461   H     0.34411   0.32286   0.40253   0.00000  Uiso   1.00
H462   H     0.33922   0.04866   0.46065   0.00000  Uiso   1.00
O463   O     0.12419   0.22093   0.60464   0.00000  Uiso   1.00
C464   C     0.11977   0.27575   0.61208   0.00000  Uiso   1.00
H465   H     0.11879   0.29312   0.66217   0.00000  Uiso   1.00
H466   H     0.08898   0.28666   0.58786   0.00000  Uiso   1.00
C467   C     0.15952   0.30109   0.59020   0.00000  Uiso   1.00
H468   H     0.16101   0.28510   0.53994   0.00000  Uiso   1.00
H469   H     0.15661   0.01083   0.59838   0.00000  Uiso   1.00
H470   H     0.19031   0.29329   0.61639   0.00000  Uiso   1.00
N471   N     0.21780   0.31482   0.42112   0.00000  Uiso   1.00
H472   H     0.23493   0.31932   0.38360   0.00000  Uiso   1.00
H473   H     0.18677   0.33041   0.41649   0.00000  Uiso   1.00
N474   N     0.28236   0.01851   0.57883   0.00000  Uiso   1.00
H475   H     0.26527   0.01402   0.61640   0.00000  Uiso   1.00
H476   H     0.31339   0.00290   0.58341   0.00000  Uiso   1.00
C477   C     0.74769   0.06677   0.48476   0.00000  Uiso   1.00
C478   C     0.75236   0.26656   0.51524   0.00000  Uiso   1.00
C479   C     0.51437   0.12425   0.39041   0.00000  Uiso   1.00
C480   C     0.98572   0.21068   0.60915   0.00000  Uiso   1.00
C481   C     0.74224   0.01122   0.47707   0.00000  Uiso   1.00
C482   C     0.75787   0.32211   0.52291   0.00000  Uiso   1.00
C483   C     0.66433   0.16664   0.50038   0.00000  Uiso   1.00
C484   C     0.83571   0.16708   0.49975   0.00000  Uiso   1.00
C485   C     0.91197   0.19286   0.55386   0.00000  Uiso   1.00
C486   C     0.58852   0.14226   0.44610   0.00000  Uiso   1.00
C487   C     0.88421   0.16736   0.49996   0.00000  Uiso   1.00
C488   C     0.61589   0.16688   0.50035   0.00000  Uiso   1.00
C489   C     0.90311   0.14091   0.44681   0.00000  Uiso   1.00
C490   C     0.59701   0.19326   0.55344   0.00000  Uiso   1.00
C491   C     0.94939   0.14452   0.44536   0.00000  Uiso   1.00
C492   C     0.55072   0.19006   0.55450   0.00000  Uiso   1.00
C493   C     0.97685   0.16743   0.49985   0.00000  Uiso   1.00
C494   C     0.52334   0.16742   0.49974   0.00000  Uiso   1.00
C495   C     0.95802   0.19039   0.55448   0.00000  Uiso   1.00
C496   C     0.54224   0.14465   0.44498   0.00000  Uiso   1.00
C497   C     0.96866   0.12476   0.39050   0.00000  Uiso   1.00
C498   C     0.53139   0.20983   0.60932   0.00000  Uiso   1.00
Cu499  Cu    0.75500   0.17246   0.56146   0.00000  Uiso   1.00
Cu500  Cu    0.74499   0.16087   0.43854   0.00000  Uiso   1.00
H501   H     0.94848   0.10909   0.34730   0.00000  Uiso   1.00
H502   H     0.55148   0.22521   0.65265   0.00000  Uiso   1.00
H503   H     0.52738   0.10764   0.34704   0.00000  Uiso   1.00
H504   H     0.97233   0.22710   0.65239   0.00000  Uiso   1.00
H505   H     0.71534   0.12595   0.64911   0.00000  Uiso   1.00
H506   H     0.78466   0.20738   0.35089   0.00000  Uiso   1.00
N507   N     0.73744   0.15214   0.34617   0.00000  Uiso   1.00
N508   N     0.76255   0.18119   0.65383   0.00000  Uiso   1.00
O509   O     0.75325   0.09538   0.53992   0.00000  Uiso   1.00
O510   O     0.74674   0.23796   0.46008   0.00000  Uiso   1.00
O511   O     0.74480   0.08559   0.43612   0.00000  Uiso   1.00
O512   O     0.75520   0.24774   0.56388   0.00000  Uiso   1.00
O513   O     0.68935   0.17155   0.55191   0.00000  Uiso   1.00
O514   O     0.81064   0.16179   0.44809   0.00000  Uiso   1.00
O515   O     0.68090   0.16176   0.44810   0.00000  Uiso   1.00
O516   O     0.81910   0.17157   0.55190   0.00000  Uiso   1.00
N517   N     0.89442   0.22291   0.60785   0.00000  Uiso   1.00
H518   H     0.87268   0.24956   0.59505   0.00000  Uiso   1.00
H519   H     0.87853   0.19770   0.63075   0.00000  Uiso   1.00
N520   N     0.60812   0.11389   0.39297   0.00000  Uiso   1.00
H521   H     0.60110   0.13172   0.35582   0.00000  Uiso   1.00
H522   H     0.59480   0.07515   0.38149   0.00000  Uiso   1.00
O523   O     0.87594   0.11282   0.39584   0.00000  Uiso   1.00
C524   C     0.88069   0.05810   0.38878   0.00000  Uiso   1.00
H525   H     0.91149   0.04757   0.41338   0.00000  Uiso   1.00
H526   H     0.88194   0.04057   0.33878   0.00000  Uiso   1.00
C527   C     0.84096   0.03255   0.41046   0.00000  Uiso   1.00
H528   H     0.81018   0.04002   0.38397   0.00000  Uiso   1.00
H529   H     0.84411   0.32286   0.40253   0.00000  Uiso   1.00
H530   H     0.83922   0.04866   0.46065   0.00000  Uiso   1.00
O531   O     0.62419   0.22093   0.60464   0.00000  Uiso   1.00
C532   C     0.61977   0.27575   0.61208   0.00000  Uiso   1.00
H533   H     0.61879   0.29312   0.66217   0.00000  Uiso   1.00
H534   H     0.58898   0.28666   0.58786   0.00000  Uiso   1.00
C535   C     0.65952   0.30109   0.59020   0.00000  Uiso   1.00
H536   H     0.66101   0.28510   0.53994   0.00000  Uiso   1.00
H537   H     0.65661   0.01083   0.59838   0.00000  Uiso   1.00
H538   H     0.69031   0.29329   0.61639   0.00000  Uiso   1.00
N539   N     0.71780   0.31482   0.42112   0.00000  Uiso   1.00
H540   H     0.73493   0.31932   0.38360   0.00000  Uiso   1.00
H541   H     0.68677   0.33041   0.41649   0.00000  Uiso   1.00
N542   N     0.78236   0.01851   0.57883   0.00000  Uiso   1.00
H543   H     0.76527   0.01402   0.61640   0.00000  Uiso   1.00
H544   H     0.81339   0.00290   0.58341   0.00000  Uiso   1.00
C545   C     0.24769   0.40010   0.48476   0.00000  Uiso   1.00
C546   C     0.25236   0.59990   0.51524   0.00000  Uiso   1.00
C547   C     0.01437   0.45758   0.39041   0.00000  Uiso   1.00
C548   C     0.48572   0.54402   0.60915   0.00000  Uiso   1.00
C549   C     0.24224   0.34456   0.47707   0.00000  Uiso   1.00
C550   C     0.25787   0.65544   0.52291   0.00000  Uiso   1.00
C551   C     0.16433   0.49997   0.50038   0.00000  Uiso   1.00
C552   C     0.33571   0.50041   0.49975   0.00000  Uiso   1.00
C553   C     0.41197   0.52619   0.55386   0.00000  Uiso   1.00
C554   C     0.08852   0.47560   0.44610   0.00000  Uiso   1.00
C555   C     0.38421   0.50069   0.49996   0.00000  Uiso   1.00
C556   C     0.11589   0.50022   0.50035   0.00000  Uiso   1.00
C557   C     0.40311   0.47425   0.44681   0.00000  Uiso   1.00
C558   C     0.09701   0.52659   0.55344   0.00000  Uiso   1.00
C559   C     0.44939   0.47786   0.44536   0.00000  Uiso   1.00
C560   C     0.05072   0.52339   0.55450   0.00000  Uiso   1.00
C561   C     0.47685   0.50076   0.49985   0.00000  Uiso   1.00
C562   C     0.02334   0.50075   0.49974   0.00000  Uiso   1.00
C563   C     0.45802   0.52372   0.55448   0.00000  Uiso   1.00
C564   C     0.04224   0.47799   0.44498   0.00000  Uiso   1.00
C565   C     0.46866   0.45810   0.39050   0.00000  Uiso   1.00
C566   C     0.03139   0.54316   0.60932   0.00000  Uiso   1.00
Cu567  Cu    0.25500   0.50579   0.56146   0.00000  Uiso   1.00
Cu568  Cu    0.24499   0.49421   0.43854   0.00000  Uiso   1.00
H569   H     0.44848   0.44242   0.34730   0.00000  Uiso   1.00
H570   H     0.05148   0.55855   0.65265   0.00000  Uiso   1.00
H571   H     0.02738   0.44098   0.34704   0.00000  Uiso   1.00
H572   H     0.47233   0.56043   0.65239   0.00000  Uiso   1.00
H573   H     0.21534   0.45928   0.64911   0.00000  Uiso   1.00
H574   H     0.28466   0.54071   0.35089   0.00000  Uiso   1.00
N575   N     0.23744   0.48547   0.34617   0.00000  Uiso   1.00
N576   N     0.26255   0.51453   0.65383   0.00000  Uiso   1.00
O577   O     0.25325   0.42871   0.53992   0.00000  Uiso   1.00
O578   O     0.24674   0.57129   0.46008   0.00000  Uiso   1.00
O579   O     0.24480   0.41892   0.43612   0.00000  Uiso   1.00
O580   O     0.25520   0.58108   0.56388   0.00000  Uiso   1.00
O581   O     0.18935   0.50488   0.55191   0.00000  Uiso   1.00
O582   O     0.31064   0.49512   0.44809   0.00000  Uiso   1.00
O583   O     0.18090   0.49510   0.44810   0.00000  Uiso   1.00
O584   O     0.31910   0.50490   0.55190   0.00000  Uiso   1.00
N585   N     0.39442   0.55624   0.60785   0.00000  Uiso   1.00
H586   H     0.37268   0.58290   0.59505   0.00000  Uiso   1.00
H587   H     0.37853   0.53103   0.63075   0.00000  Uiso   1.00
N588   N     0.10812   0.44722   0.39297   0.00000  Uiso   1.00
H589   H     0.10110   0.46505   0.35582   0.00000  Uiso   1.00
H590   H     0.09480   0.40848   0.38149   0.00000  Uiso   1.00
O591   O     0.37594   0.44615   0.39584   0.00000  Uiso   1.00
C592   C     0.38069   0.39143   0.38878   0.00000  Uiso   1.00
H593   H     0.41149   0.38090   0.41338   0.00000  Uiso   1.00
H594   H     0.38194   0.37391   0.33878   0.00000  Uiso   1.00
C595   C     0.34096   0.36589   0.41046   0.00000  Uiso   1.00
H596   H     0.31018   0.37336   0.38397   0.00000  Uiso   1.00
H597   H     0.34411   0.65619   0.40253   0.00000  Uiso   1.00
H598   H     0.33922   0.38200   0.46065   0.00000  Uiso   1.00
O599   O     0.12419   0.55427   0.60464   0.00000  Uiso   1.00
C600   C     0.11977   0.60909   0.61208   0.00000  Uiso   1.00
H601   H     0.11879   0.62646   0.66217   0.00000  Uiso   1.00
H602   H     0.08898   0.62000   0.58786   0.00000  Uiso   1.00
C603   C     0.15952   0.63442   0.59020   0.00000  Uiso   1.00
H604   H     0.16101   0.61843   0.53994   0.00000  Uiso   1.00
H605   H     0.15661   0.34417   0.59838   0.00000  Uiso   1.00
H606   H     0.19031   0.62662   0.61639   0.00000  Uiso   1.00
N607   N     0.21780   0.64815   0.42112   0.00000  Uiso   1.00
H608   H     0.23493   0.65266   0.38360   0.00000  Uiso   1.00
H609   H     0.18677   0.66374   0.41649   0.00000  Uiso   1.00
N610   N     0.28236   0.35184   0.57883   0.00000  Uiso   1.00
H611   H     0.26527   0.34736   0.61640   0.00000  Uiso   1.00
H612   H     0.31339   0.33623   0.58341   0.00000  Uiso   1.00
C613   C     0.74769   0.40010   0.48476   0.00000  Uiso   1.00
C614   C     0.75236   0.59990   0.51524   0.00000  Uiso   1.00
C615   C     0.51437   0.45758   0.39041   0.00000  Uiso   1.00
C616   C     0.98572   0.54402   0.60915   0.00000  Uiso   1.00
C617   C     0.74224   0.34456   0.47707   0.00000  Uiso   1.00
C618   C     0.75787   0.65544   0.52291   0.00000  Uiso   1.00
C619   C     0.66433   0.49997   0.50038   0.00000  Uiso   1.00
C620   C     0.83571   0.50041   0.49975   0.00000  Uiso   1.00
C621   C     0.91197   0.52619   0.55386   0.00000  Uiso   1.00
C622   C     0.58852   0.47560   0.44610   0.00000  Uiso   1.00
C623   C     0.88421   0.50069   0.49996   0.00000  Uiso   1.00
C624   C     0.61589   0.50022   0.50035   0.00000  Uiso   1.00
C625   C     0.90311   0.47425   0.44681   0.00000  Uiso   1.00
C626   C     0.59701   0.52659   0.55344   0.00000  Uiso   1.00
C627   C     0.94939   0.47786   0.44536   0.00000  Uiso   1.00
C628   C     0.55072   0.52339   0.55450   0.00000  Uiso   1.00
C629   C     0.97685   0.50076   0.49985   0.00000  Uiso   1.00
C630   C     0.52334   0.50075   0.49974   0.00000  Uiso   1.00
C631   C     0.95802   0.52372   0.55448   0.00000  Uiso   1.00
C632   C     0.54224   0.47799   0.44498   0.00000  Uiso   1.00
C633   C     0.96866   0.45810   0.39050   0.00000  Uiso   1.00
C634   C     0.53139   0.54316   0.60932   0.00000  Uiso   1.00
Cu635  Cu    0.75500   0.50579   0.56146   0.00000  Uiso   1.00
Cu636  Cu    0.74499   0.49421   0.43854   0.00000  Uiso   1.00
H637   H     0.94848   0.44242   0.34730   0.00000  Uiso   1.00
H638   H     0.55148   0.55855   0.65265   0.00000  Uiso   1.00
H639   H     0.52738   0.44098   0.34704   0.00000  Uiso   1.00
H640   H     0.97233   0.56043   0.65239   0.00000  Uiso   1.00
H641   H     0.71534   0.45928   0.64911   0.00000  Uiso   1.00
H642   H     0.78466   0.54071   0.35089   0.00000  Uiso   1.00
N643   N     0.73744   0.48547   0.34617   0.00000  Uiso   1.00
N644   N     0.76255   0.51453   0.65383   0.00000  Uiso   1.00
O645   O     0.75325   0.42871   0.53992   0.00000  Uiso   1.00
O646   O     0.74674   0.57129   0.46008   0.00000  Uiso   1.00
O647   O     0.74480   0.41892   0.43612   0.00000  Uiso   1.00
O648   O     0.75520   0.58108   0.56388   0.00000  Uiso   1.00
O649   O     0.68935   0.50488   0.55191   0.00000  Uiso   1.00
O650   O     0.81064   0.49512   0.44809   0.00000  Uiso   1.00
O651   O     0.68090   0.49510   0.44810   0.00000  Uiso   1.00
O652   O     0.81910   0.50490   0.55190   0.00000  Uiso   1.00
N653   N     0.89442   0.55624   0.60785   0.00000  Uiso   1.00
H654   H     0.87268   0.58290   0.59505   0.00000  Uiso   1.00
H655   H     0.87853   0.53103   0.63075   0.00000  Uiso   1.00
N656   N     0.60812   0.44722   0.39297   0.00000  Uiso   1.00
H657   H     0.60110   0.46505   0.35582   0.00000  Uiso   1.00
H658   H     0.59480   0.40848   0.38149   0.00000  Uiso   1.00
O659   O     0.87594   0.44615   0.39584   0.00000  Uiso   1.00
C660   C     0.88069   0.39143   0.38878   0.00000  Uiso   1.00
H661   H     0.91149   0.38090   0.41338   0.00000  Uiso   1.00
H662   H     0.88194   0.37391   0.33878   0.00000  Uiso   1.00
C663   C     0.84096   0.36589   0.41046   0.00000  Uiso   1.00
H664   H     0.81018   0.37336   0.38397   0.00000  Uiso   1.00
H665   H     0.84411   0.65619   0.40253   0.00000  Uiso   1.00
H666   H     0.83922   0.38200   0.46065   0.00000  Uiso   1.00
O667   O     0.62419   0.55427   0.60464   0.00000  Uiso   1.00
C668   C     0.61977   0.60909   0.61208   0.00000  Uiso   1.00
H669   H     0.61879   0.62646   0.66217   0.00000  Uiso   1.00
H670   H     0.58898   0.62000   0.58786   0.00000  Uiso   1.00
C671   C     0.65952   0.63442   0.59020   0.00000  Uiso   1.00
H672   H     0.66101   0.61843   0.53994   0.00000  Uiso   1.00
H673   H     0.65661   0.34417   0.59838   0.00000  Uiso   1.00
H674   H     0.69031   0.62662   0.61639   0.00000  Uiso   1.00
N675   N     0.71780   0.64815   0.42112   0.00000  Uiso   1.00
H676   H     0.73493   0.65266   0.38360   0.00000  Uiso   1.00
H677   H     0.68677   0.66374   0.41649   0.00000  Uiso   1.00
N678   N     0.78236   0.35184   0.57883   0.00000  Uiso   1.00
H679   H     0.76527   0.34736   0.61640   0.00000  Uiso   1.00
H680   H     0.81339   0.33623   0.58341   0.00000  Uiso   1.00
C681   C     0.24769   0.73344   0.48476   0.00000  Uiso   1.00
C682   C     0.25236   0.93323   0.51524   0.00000  Uiso   1.00
C683   C     0.01437   0.79092   0.39041   0.00000  Uiso   1.00
C684   C     0.48572   0.87735   0.60915   0.00000  Uiso   1.00
C685   C     0.24224   0.67789   0.47707   0.00000  Uiso   1.00
C686   C     0.25787   0.98878   0.52291   0.00000  Uiso   1.00
C687   C     0.16433   0.83330   0.50038   0.00000  Uiso   1.00
C688   C     0.33571   0.83374   0.49975   0.00000  Uiso   1.00
C689   C     0.41197   0.85952   0.55386   0.00000  Uiso   1.00
C690   C     0.08852   0.80893   0.44610   0.00000  Uiso   1.00
C691   C     0.38421   0.83403   0.49996   0.00000  Uiso   1.00
C692   C     0.11589   0.83355   0.50035   0.00000  Uiso   1.00
C693   C     0.40311   0.80758   0.44681   0.00000  Uiso   1.00
C694   C     0.09701   0.85992   0.55344   0.00000  Uiso   1.00
C695   C     0.44939   0.81119   0.44536   0.00000  Uiso   1.00
C696   C     0.05072   0.85672   0.55450   0.00000  Uiso   1.00
C697   C     0.47685   0.83410   0.49985   0.00000  Uiso   1.00
C698   C     0.02334   0.83409   0.49974   0.00000  Uiso   1.00
C699   C     0.45802   0.85706   0.55448   0.00000  Uiso   1.00
C700   C     0.04224   0.81132   0.44498   0.00000  Uiso   1.00
C701   C     0.46866   0.79143   0.39050   0.00000  Uiso   1.00
C702   C     0.03139   0.87650   0.60932   0.00000  Uiso   1.00
Cu703  Cu    0.25500   0.83913   0.56146   0.00000  Uiso   1.00
Cu704  Cu    0.24499   0.82754   0.43854   0.00000  Uiso   1.00
H705   H     0.44848   0.77576   0.34730   0.00000  Uiso   1.00
H706   H     0.05148   0.89188   0.65265   0.00000  Uiso   1.00
H707   H     0.02738   0.77431   0.34704   0.00000  Uiso   1.00
H708   H     0.47233   0.89376   0.65239   0.00000  Uiso   1.00
H709   H     0.21534   0.79262   0.64911   0.00000  Uiso   1.00
H710   H     0.28466   0.87405   0.35089   0.00000  Uiso   1.00
N711   N     0.23744   0.81881   0.34617   0.00000  Uiso   1.00
N712   N     0.26255   0.84786   0.65383   0.00000  Uiso   1.00
O713   O     0.25325   0.76204   0.53992   0.00000  Uiso   1.00
O714   O     0.24674   0.90462   0.46008   0.00000  Uiso   1.00
O715   O     0.24480   0.75226   0.43612   0.00000  Uiso   1.00
O716   O     0.25520   0.91441   0.56388   0.00000  Uiso   1.00
O717   O     0.18935   0.83821   0.55191   0.00000  Uiso   1.00
O718   O     0.31064   0.82845   0.44809   0.00000  Uiso   1.00
O719   O     0.18090   0.82843   0.44810   0.00000  Uiso   1.00
O720   O     0.31910   0.83824   0.55190   0.00000  Uiso   1.00
N721   N     0.39442   0.88957   0.60785   0.00000  Uiso   1.00
H722   H     0.37268   0.91623   0.59505   0.00000  Uiso   1.00
H723   H     0.37853   0.86436   0.63075   0.00000  Uiso   1.00
N724   N     0.10812   0.78055   0.39297   0.00000  Uiso   1.00
H725   H     0.10110   0.79839   0.35582   0.00000  Uiso   1.00
H726   H     0.09480   0.74181   0.38149   0.00000  Uiso   1.00
O727   O     0.37594   0.77949   0.39584   0.00000  Uiso   1.00
C728   C     0.38069   0.72476   0.38878   0.00000  Uiso   1.00
H729   H     0.41149   0.71423   0.41338   0.00000  Uiso   1.00
H730   H     0.38194   0.70724   0.33878   0.00000  Uiso   1.00
C731   C     0.34096   0.69922   0.41046   0.00000  Uiso   1.00
H732   H     0.31018   0.70669   0.38397   0.00000  Uiso   1.00
H733   H     0.34411   0.98952   0.40253   0.00000  Uiso   1.00
H734   H     0.33922   0.71533   0.46065   0.00000  Uiso   1.00
O735   O     0.12419   0.88760   0.60464   0.00000  Uiso   1.00
C736   C     0.11977   0.94242   0.61208   0.00000  Uiso   1.00
H737   H     0.11879   0.95979   0.66217   0.00000  Uiso   1.00
H738   H     0.08898   0.95333   0.58786   0.00000  Uiso   1.00
C739   C     0.15952   0.96775   0.59020   0.00000  Uiso   1.00
H740   H     0.16101   0.95177   0.53994   0.00000  Uiso   1.00
H741   H     0.15661   0.67750   0.59838   0.00000  Uiso   1.00
H742   H     0.19031   0.95996   0.61639   0.00000  Uiso   1.00
N743   N     0.21780   0.98149   0.42112   0.00000  Uiso   1.00
H744   H     0.23493   0.98599   0.38360   0.00000  Uiso   1.00
H745   H     0.18677   0.99708   0.41649   0.00000  Uiso   1.00
N746   N     0.28236   0.68517   0.57883   0.00000  Uiso   1.00
H747   H     0.26527   0.68069   0.61640   0.00000  Uiso   1.00
H748   H     0.31339   0.66956   0.58341   0.00000  Uiso   1.00
C749   C     0.74769   0.73344   0.48476   0.00000  Uiso   1.00
C750   C     0.75236   0.93323   0.51524   0.00000  Uiso   1.00
C751   C     0.51437   0.79092   0.39041   0.00000  Uiso   1.00
C752   C     0.98572   0.87735   0.60915   0.00000  Uiso   1.00
C753   C     0.74224   0.67789   0.47707   0.00000  Uiso   1.00
C754   C     0.75787   0.98878   0.52291   0.00000  Uiso   1.00
C755   C     0.66433   0.83330   0.50038   0.00000  Uiso   1.00
C756   C     0.83571   0.83374   0.49975   0.00000  Uiso   1.00
C757   C     0.91197   0.85952   0.55386   0.00000  Uiso   1.00
C758   C     0.58852   0.80893   0.44610   0.00000  Uiso   1.00
C759   C     0.88421   0.83403   0.49996   0.00000  Uiso   1.00
C760   C     0.61589   0.83355   0.50035   0.00000  Uiso   1.00
C761   C     0.90311   0.80758   0.44681   0.00000  Uiso   1.00
C762   C     0.59701   0.85992   0.55344   0.00000  Uiso   1.00
C763   C     0.94939   0.81119   0.44536   0.00000  Uiso   1.00
C764   C     0.55072   0.85672   0.55450   0.00000  Uiso   1.00
C765   C     0.97685   0.83410   0.49985   0.00000  Uiso   1.00
C766   C     0.52334   0.83409   0.49974   0.00000  Uiso   1.00
C767   C     0.95802   0.85706   0.55448   0.00000  Uiso   1.00
C768   C     0.54224   0.81132   0.44498   0.00000  Uiso   1.00
C769   C     0.96866   0.79143   0.39050   0.00000  Uiso   1.00
C770   C     0.53139   0.87650   0.60932   0.00000  Uiso   1.00
Cu771  Cu    0.75500   0.83913   0.56146   0.00000  Uiso   1.00
Cu772  Cu    0.74499   0.82754   0.43854   0.00000  Uiso   1.00
H773   H     0.94848   0.77576   0.34730   0.00000  Uiso   1.00
H774   H     0.55148   0.89188   0.65265   0.00000  Uiso   1.00
H775   H     0.52738   0.77431   0.34704   0.00000  Uiso   1.00
H776   H     0.97233   0.89376   0.65239   0.00000  Uiso   1.00
H777   H     0.71534   0.79262   0.64911   0.00000  Uiso   1.00
H778   H     0.78466   0.87405   0.35089   0.00000  Uiso   1.00
N779   N     0.73744   0.81881   0.34617   0.00000  Uiso   1.00
N780   N     0.76255   0.84786   0.65383   0.00000  Uiso   1.00
O781   O     0.75325   0.76204   0.53992   0.00000  Uiso   1.00
O782   O     0.74674   0.90462   0.46008   0.00000  Uiso   1.00
O783   O     0.74480   0.75226   0.43612   0.00000  Uiso   1.00
O784   O     0.75520   0.91441   0.56388   0.00000  Uiso   1.00
O785   O     0.68935   0.83821   0.55191   0.00000  Uiso   1.00
O786   O     0.81064   0.82845   0.44809   0.00000  Uiso   1.00
O787   O     0.68090   0.82843   0.44810   0.00000  Uiso   1.00
O788   O     0.81910   0.83824   0.55190   0.00000  Uiso   1.00
N789   N     0.89442   0.88957   0.60785   0.00000  Uiso   1.00
H790   H     0.87268   0.91623   0.59505   0.00000  Uiso   1.00
H791   H     0.87853   0.86436   0.63075   0.00000  Uiso   1.00
N792   N     0.60812   0.78055   0.39297   0.00000  Uiso   1.00
H793   H     0.60110   0.79839   0.35582   0.00000  Uiso   1.00
H794   H     0.59480   0.74181   0.38149   0.00000  Uiso   1.00
O795   O     0.87594   0.77949   0.39584   0.00000  Uiso   1.00
C796   C     0.88069   0.72476   0.38878   0.00000  Uiso   1.00
H797   H     0.91149   0.71423   0.41338   0.00000  Uiso   1.00
H798   H     0.88194   0.70724   0.33878   0.00000  Uiso   1.00
C799   C     0.84096   0.69922   0.41046   0.00000  Uiso   1.00
H800   H     0.81018   0.70669   0.38397   0.00000  Uiso   1.00
H801   H     0.84411   0.98952   0.40253   0.00000  Uiso   1.00
H802   H     0.83922   0.71533   0.46065   0.00000  Uiso   1.00
O803   O     0.62419   0.88760   0.60464   0.00000  Uiso   1.00
C804   C     0.61977   0.94242   0.61208   0.00000  Uiso   1.00
H805   H     0.61879   0.95979   0.66217   0.00000  Uiso   1.00
H806   H     0.58898   0.95333   0.58786   0.00000  Uiso   1.00
C807   C     0.65952   0.96775   0.59020   0.00000  Uiso   1.00
H808   H     0.66101   0.95177   0.53994   0.00000  Uiso   1.00
H809   H     0.65661   0.67750   0.59838   0.00000  Uiso   1.00
H810   H     0.69031   0.95996   0.61639   0.00000  Uiso   1.00
N811   N     0.71780   0.98149   0.42112   0.00000  Uiso   1.00
H812   H     0.73493   0.98599   0.38360   0.00000  Uiso   1.00
H813   H     0.68677   0.99708   0.41649   0.00000  Uiso   1.00
N814   N     0.78236   0.68517   0.57883   0.00000  Uiso   1.00
H815   H     0.76527   0.68069   0.61640   0.00000  Uiso   1.00
H816   H     0.81339   0.66956   0.58341   0.00000  Uiso   1.00
C817   C     0.24769   0.06677   0.81809   0.00000  Uiso   1.00
C818   C     0.25236   0.26656   0.84858   0.00000  Uiso   1.00
C819   C     0.01437   0.12425   0.72374   0.00000  Uiso   1.00
C820   C     0.48572   0.21068   0.94248   0.00000  Uiso   1.00
C821   C     0.24224   0.01122   0.81040   0.00000  Uiso   1.00
C822   C     0.25787   0.32211   0.85625   0.00000  Uiso   1.00
C823   C     0.16433   0.16664   0.83371   0.00000  Uiso   1.00
C824   C     0.33571   0.16708   0.83309   0.00000  Uiso   1.00
C825   C     0.41197   0.19286   0.88720   0.00000  Uiso   1.00
C826   C     0.08852   0.14226   0.77943   0.00000  Uiso   1.00
C827   C     0.38421   0.16736   0.83330   0.00000  Uiso   1.00
C828   C     0.11589   0.16688   0.83369   0.00000  Uiso   1.00
C829   C     0.40311   0.14091   0.78014   0.00000  Uiso   1.00
C830   C     0.09701   0.19326   0.88677   0.00000  Uiso   1.00
C831   C     0.44939   0.14452   0.77869   0.00000  Uiso   1.00
C832   C     0.05072   0.19006   0.88783   0.00000  Uiso   1.00
C833   C     0.47685   0.16743   0.83318   0.00000  Uiso   1.00
C834   C     0.02334   0.16742   0.83307   0.00000  Uiso   1.00
C835   C     0.45802   0.19039   0.88782   0.00000  Uiso   1.00
C836   C     0.04224   0.14465   0.77831   0.00000  Uiso   1.00
C837   C     0.46866   0.12476   0.72383   0.00000  Uiso   1.00
C838   C     0.03139   0.20983   0.94265   0.00000  Uiso   1.00
Cu839  Cu    0.25500   0.17246   0.89479   0.00000  Uiso   1.00
Cu840  Cu    0.24499   0.16087   0.77187   0.00000  Uiso   1.00
H841   H     0.44848   0.10909   0.68064   0.00000  Uiso   1.00
H842   H     0.05148   0.22521   0.98599   0.00000  Uiso   1.00
H843   H     0.02738   0.10764   0.68038   0.00000  Uiso   1.00
H844   H     0.47233   0.22710   0.98572   0.00000  Uiso   1.00
H845   H     0.21534   0.12595   0.98244   0.00000  Uiso   1.00
H846   H     0.28466   0.20738   0.68422   0.00000  Uiso   1.00
N847   N     0.23744   0.15214   0.67951   0.00000  Uiso   1.00
N848   N     0.26255   0.18119   0.98716   0.00000  Uiso   1.00
O849   O     0.25325   0.09538   0.87326   0.00000  Uiso   1.00
O850   O     0.24674   0.23796   0.79341   0.00000  Uiso   1.00
O851   O     0.24480   0.08559   0.76945   0.00000  Uiso   1.00
O852   O     0.25520   0.24774   0.89721   0.00000  Uiso   1.00
O853   O     0.18935   0.17155   0.88524   0.00000  Uiso   1.00
O854   O     0.31064   0.16179   0.78143   0.00000  Uiso   1.00
O855   O     0.18090   0.16176   0.78143   0.00000  Uiso   1.00
O856   O     0.31910   0.17157   0.88523   0.00000  Uiso   1.00
N857   N     0.39442   0.22291   0.94118   0.00000  Uiso   1.00
H858   H     0.37268   0.24956   0.92838   0.00000  Uiso   1.00
H859   H     0.37853   0.19770   0.96409   0.00000  Uiso   1.00
N860   N     0.10812   0.11389   0.72630   0.00000  Uiso   1.00
H861   H     0.10110   0.13172   0.68915   0.00000  Uiso   1.00
H862   H     0.09480   0.07515   0.71482   0.00000  Uiso   1.00
O863   O     0.37594   0.11282   0.72917   0.00000  Uiso   1.00
C864   C     0.38069   0.05810   0.72212   0.00000  Uiso   1.00
H865   H     0.41149   0.04757   0.74671   0.00000  Uiso   1.00
H866   H     0.38194   0.04057   0.67211   0.00000  Uiso   1.00
C867   C     0.34096   0.03255   0.74379   0.00000  Uiso   1.00
H868   H     0.31018   0.04002   0.71730   0.00000  Uiso   1.00
H869   H     0.34411   0.32286   0.73587   0.00000  Uiso   1.00
H870   H     0.33922   0.04866   0.79398   0.00000  Uiso   1.00
O871   O     0.12419   0.22093   0.93797   0.00000  Uiso   1.00
C872   C     0.11977   0.27575   0.94541   0.00000  Uiso   1.00
H873   H     0.11879   0.29312   0.99550   0.00000  Uiso   1.00
H874   H     0.08898   0.28666   0.92119   0.00000  Uiso   1.00
C875   C     0.15952   0.30109   0.92353   0.00000  Uiso   1.00
H876   H     0.16101   0.28510   0.87327   0.00000  Uiso   1.00
H877   H     0.15661   0.01083   0.93171   0.00000  Uiso   1.00
H878   H     0.19031   0.29329   0.94972   0.00000  Uiso   1.00
N879   N     0.21780   0.31482   0.75445   0.00000  Uiso   1.00
H880   H     0.23493   0.31932   0.71693   0.00000  Uiso   1.00
H881   H     0.18677   0.33041   0.74982   0.00000  Uiso   1.00
N882   N     0.28236   0.01851   0.91216   0.00000  Uiso   1.00
H883   H     0.26527   0.01402   0.94973   0.00000  Uiso   1.00
H884   H     0.31339   0.00290   0.91674   0.00000  Uiso   1.00
C885   C     0.74769   0.06677   0.81809   0.00000  Uiso   1.00
C886   C     0.75236   0.26656   0.84858   0.00000  Uiso   1.00
C887   C     0.51437   0.12425   0.72374   0.00000  Uiso   1.00
C888   C     0.98572   0.21068   0.94248   0.00000  Uiso   1.00
C889   C     0.74224   0.01122   0.81040   0.00000  Uiso   1.00
C890   C     0.75787   0.32211   0.85625   0.00000  Uiso   1.00
C891   C     0.66433   0.16664   0.83371   0.00000  Uiso   1.00
C892   C     0.83571   0.16708   0.83309   0.00000  Uiso   1.00
C893   C     0.91197   0.19286   0.88720   0.00000  Uiso   1.00
C894   C     0.58852   0.14226   0.77943   0.00000  Uiso   1.00
C895   C     0.88421   0.16736   0.83330   0.00000  Uiso   1.00
C896   C     0.61589   0.16688   0.83369   0.00000  Uiso   1.00
C897   C     0.90311   0.14091   0.78014   0.00000  Uiso   1.00
C898   C     0.59701   0.19326   0.88677   0.00000  Uiso   1.00
C899   C     0.94939   0.14452   0.77869   0.00000  Uiso   1.00
C900   C     0.55072   0.19006   0.88783   0.00000  Uiso   1.00
C901   C     0.97685   0.16743   0.83318   0.00000  Uiso   1.00
C902   C     0.52334   0.16742   0.83307   0.00000  Uiso   1.00
C903   C     0.95802   0.19039   0.88782   0.00000  Uiso   1.00
C904   C     0.54224   0.14465   0.77831   0.00000  Uiso   1.00
C905   C     0.96866   0.12476   0.72383   0.00000  Uiso   1.00
C906   C     0.53139   0.20983   0.94265   0.00000  Uiso   1.00
Cu907  Cu    0.75500   0.17246   0.89479   0.00000  Uiso   1.00
Cu908  Cu    0.74499   0.16087   0.77187   0.00000  Uiso   1.00
H909   H     0.94848   0.10909   0.68064   0.00000  Uiso   1.00
H910   H     0.55148   0.22521   0.98599   0.00000  Uiso   1.00
H911   H     0.52738   0.10764   0.68038   0.00000  Uiso   1.00
H912   H     0.97233   0.22710   0.98572   0.00000  Uiso   1.00
H913   H     0.71534   0.12595   0.98244   0.00000  Uiso   1.00
H914   H     0.78466   0.20738   0.68422   0.00000  Uiso   1.00
N915   N     0.73744   0.15214   0.67951   0.00000  Uiso   1.00
N916   N     0.76255   0.18119   0.98716   0.00000  Uiso   1.00
O917   O     0.75325   0.09538   0.87326   0.00000  Uiso   1.00
O918   O     0.74674   0.23796   0.79341   0.00000  Uiso   1.00
O919   O     0.74480   0.08559   0.76945   0.00000  Uiso   1.00
O920   O     0.75520   0.24774   0.89721   0.00000  Uiso   1.00
O921   O     0.68935   0.17155   0.88524   0.00000  Uiso   1.00
O922   O     0.81064   0.16179   0.78143   0.00000  Uiso   1.00
O923   O     0.68090   0.16176   0.78143   0.00000  Uiso   1.00
O924   O     0.81910   0.17157   0.88523   0.00000  Uiso   1.00
N925   N     0.89442   0.22291   0.94118   0.00000  Uiso   1.00
H926   H     0.87268   0.24956   0.92838   0.00000  Uiso   1.00
H927   H     0.87853   0.19770   0.96409   0.00000  Uiso   1.00
N928   N     0.60812   0.11389   0.72630   0.00000  Uiso   1.00
H929   H     0.60110   0.13172   0.68915   0.00000  Uiso   1.00
H930   H     0.59480   0.07515   0.71482   0.00000  Uiso   1.00
O931   O     0.87594   0.11282   0.72917   0.00000  Uiso   1.00
C932   C     0.88069   0.05810   0.72212   0.00000  Uiso   1.00
H933   H     0.91149   0.04757   0.74671   0.00000  Uiso   1.00
H934   H     0.88194   0.04057   0.67211   0.00000  Uiso   1.00
C935   C     0.84096   0.03255   0.74379   0.00000  Uiso   1.00
H936   H     0.81018   0.04002   0.71730   0.00000  Uiso   1.00
H937   H     0.84411   0.32286   0.73587   0.00000  Uiso   1.00
H938   H     0.83922   0.04866   0.79398   0.00000  Uiso   1.00
O939   O     0.62419   0.22093   0.93797   0.00000  Uiso   1.00
C940   C     0.61977   0.27575   0.94541   0.00000  Uiso   1.00
H941   H     0.61879   0.29312   0.99550   0.00000  Uiso   1.00
H942   H     0.58898   0.28666   0.92119   0.00000  Uiso   1.00
C943   C     0.65952   0.30109   0.92353   0.00000  Uiso   1.00
H944   H     0.66101   0.28510   0.87327   0.00000  Uiso   1.00
H945   H     0.65661   0.01083   0.93171   0.00000  Uiso   1.00
H946   H     0.69031   0.29329   0.94972   0.00000  Uiso   1.00
N947   N     0.71780   0.31482   0.75445   0.00000  Uiso   1.00
H948   H     0.73493   0.31932   0.71693   0.00000  Uiso   1.00
H949   H     0.68677   0.33041   0.74982   0.00000  Uiso   1.00
N950   N     0.78236   0.01851   0.91216   0.00000  Uiso   1.00
H951   H     0.76527   0.01402   0.94973   0.00000  Uiso   1.00
H952   H     0.81339   0.00290   0.91674   0.00000  Uiso   1.00
C953   C     0.24769   0.40010   0.81809   0.00000  Uiso   1.00
C954   C     0.25236   0.59990   0.84858   0.00000  Uiso   1.00
C955   C     0.01437   0.45758   0.72374   0.00000  Uiso   1.00
C956   C     0.48572   0.54402   0.94248   0.00000  Uiso   1.00
C957   C     0.24224   0.34456   0.81040   0.00000  Uiso   1.00
C958   C     0.25787   0.65544   0.85625   0.00000  Uiso   1.00
C959   C     0.16433   0.49997   0.83371   0.00000  Uiso   1.00
C960   C     0.33571   0.50041   0.83309   0.00000  Uiso   1.00
C961   C     0.41197   0.52619   0.88720   0.00000  Uiso   1.00
C962   C     0.08852   0.47560   0.77943   0.00000  Uiso   1.00
C963   C     0.38421   0.50069   0.83330   0.00000  Uiso   1.00
C964   C     0.11589   0.50022   0.83369   0.00000  Uiso   1.00
C965   C     0.40311   0.47425   0.78014   0.00000  Uiso   1.00
C966   C     0.09701   0.52659   0.88677   0.00000  Uiso   1.00
C967   C     0.44939   0.47786   0.77869   0.00000  Uiso   1.00
C968   C     0.05072   0.52339   0.88783   0.00000  Uiso   1.00
C969   C     0.47685   0.50076   0.83318   0.00000  Uiso   1.00
C970   C     0.02334   0.50075   0.83307   0.00000  Uiso   1.00
C971   C     0.45802   0.52372   0.88782   0.00000  Uiso   1.00
C972   C     0.04224   0.47799   0.77831   0.00000  Uiso   1.00
C973   C     0.46866   0.45810   0.72383   0.00000  Uiso   1.00
C974   C     0.03139   0.54316   0.94265   0.00000  Uiso   1.00
Cu975  Cu    0.25500   0.50579   0.89479   0.00000  Uiso   1.00
Cu976  Cu    0.24499   0.49421   0.77187   0.00000  Uiso   1.00
H977   H     0.44848   0.44242   0.68064   0.00000  Uiso   1.00
H978   H     0.05148   0.55855   0.98599   0.00000  Uiso   1.00
H979   H     0.02738   0.44098   0.68038   0.00000  Uiso   1.00
H980   H     0.47233   0.56043   0.98572   0.00000  Uiso   1.00
H981   H     0.21534   0.45928   0.98244   0.00000  Uiso   1.00
H982   H     0.28466   0.54071   0.68422   0.00000  Uiso   1.00
N983   N     0.23744   0.48547   0.67951   0.00000  Uiso   1.00
N984   N     0.26255   0.51453   0.98716   0.00000  Uiso   1.00
O985   O     0.25325   0.42871   0.87326   0.00000  Uiso   1.00
O986   O     0.24674   0.57129   0.79341   0.00000  Uiso   1.00
O987   O     0.24480   0.41892   0.76945   0.00000  Uiso   1.00
O988   O     0.25520   0.58108   0.89721   0.00000  Uiso   1.00
O989   O     0.18935   0.50488   0.88524   0.00000  Uiso   1.00
O990   O     0.31064   0.49512   0.78143   0.00000  Uiso   1.00
O991   O     0.18090   0.49510   0.78143   0.00000  Uiso   1.00
O992   O     0.31910   0.50490   0.88523   0.00000  Uiso   1.00
N993   N     0.39442   0.55624   0.94118   0.00000  Uiso   1.00
H994   H     0.37268   0.58290   0.92838   0.00000  Uiso   1.00
H995   H     0.37853   0.53103   0.96409   0.00000  Uiso   1.00
N996   N     0.10812   0.44722   0.72630   0.00000  Uiso   1.00
H997   H     0.10110   0.46505   0.68915   0.00000  Uiso   1.00
H998   H     0.09480   0.40848   0.71482   0.00000  Uiso   1.00
O999   O     0.37594   0.44615   0.72917   0.00000  Uiso   1.00
C1000  C     0.38069   0.39143   0.72212   0.00000  Uiso   1.00
H1001  H     0.41149   0.38090   0.74671   0.00000  Uiso   1.00
H1002  H     0.38194   0.37391   0.67211   0.00000  Uiso   1.00
C1003  C     0.34096   0.36589   0.74379   0.00000  Uiso   1.00
H1004  H     0.31018   0.37336   0.71730   0.00000  Uiso   1.00
H1005  H     0.34411   0.65619   0.73587   0.00000  Uiso   1.00
H1006  H     0.33922   0.38200   0.79398   0.00000  Uiso   1.00
O1007  O     0.12419   0.55427   0.93797   0.00000  Uiso   1.00
C1008  C     0.11977   0.60909   0.94541   0.00000  Uiso   1.00
H1009  H     0.11879   0.62646   0.99550   0.00000  Uiso   1.00
H1010  H     0.08898   0.62000   0.92119   0.00000  Uiso   1.00
C1011  C     0.15952   0.63442   0.92353   0.00000  Uiso   1.00
H1012  H     0.16101   0.61843   0.87327   0.00000  Uiso   1.00
H1013  H     0.15661   0.34417   0.93171   0.00000  Uiso   1.00
H1014  H     0.19031   0.62662   0.94972   0.00000  Uiso   1.00
N1015  N     0.21780   0.64815   0.75445   0.00000  Uiso   1.00
H1016  H     0.23493   0.65266   0.71693   0.00000  Uiso   1.00
H1017  H     0.18677   0.66374   0.74982   0.00000  Uiso   1.00
N1018  N     0.28236   0.35184   0.91216   0.00000  Uiso   1.00
H1019  H     0.26527   0.34736   0.94973   0.00000  Uiso   1.00
H1020  H     0.31339   0.33623   0.91674   0.00000  Uiso   1.00
C1021  C     0.74769   0.40010   0.81809   0.00000  Uiso   1.00
C1022  C     0.75236   0.59990   0.84858   0.00000  Uiso   1.00
C1023  C     0.51437   0.45758   0.72374   0.00000  Uiso   1.00
C1024  C     0.98572   0.54402   0.94248   0.00000  Uiso   1.00
C1025  C     0.74224   0.34456   0.81040   0.00000  Uiso   1.00
C1026  C     0.75787   0.65544   0.85625   0.00000  Uiso   1.00
C1027  C     0.66433   0.49997   0.83371   0.00000  Uiso   1.00
C1028  C     0.83571   0.50041   0.83309   0.00000  Uiso   1.00
C1029  C     0.91197   0.52619   0.88720   0.00000  Uiso   1.00
C1030  C     0.58852   0.47560   0.77943   0.00000  Uiso   1.00
C1031  C     0.88421   0.50069   0.83330   0.00000  Uiso   1.00
C1032  C     0.61589   0.50022   0.83369   0.00000  Uiso   1.00
C1033  C     0.90311   0.47425   0.78014   0.00000  Uiso   1.00
C1034  C     0.59701   0.52659   0.88677   0.00000  Uiso   1.00
C1035  C     0.94939   0.47786   0.77869   0.00000  Uiso   1.00
C1036  C     0.55072   0.52339   0.88783   0.00000  Uiso   1.00
C1037  C     0.97685   0.50076   0.83318   0.00000  Uiso   1.00
C1038  C     0.52334   0.50075   0.83307   0.00000  Uiso   1.00
C1039  C     0.95802   0.52372   0.88782   0.00000  Uiso   1.00
C1040  C     0.54224   0.47799   0.77831   0.00000  Uiso   1.00
C1041  C     0.96866   0.45810   0.72383   0.00000  Uiso   1.00
C1042  C     0.53139   0.54316   0.94265   0.00000  Uiso   1.00
Cu1043 Cu    0.75500   0.50579   0.89479   0.00000  Uiso   1.00
Cu1044 Cu    0.74499   0.49421   0.77187   0.00000  Uiso   1.00
H1045  H     0.94848   0.44242   0.68064   0.00000  Uiso   1.00
H1046  H     0.55148   0.55855   0.98599   0.00000  Uiso   1.00
H1047  H     0.52738   0.44098   0.68038   0.00000  Uiso   1.00
H1048  H     0.97233   0.56043   0.98572   0.00000  Uiso   1.00
H1049  H     0.71534   0.45928   0.98244   0.00000  Uiso   1.00
H1050  H     0.78466   0.54071   0.68422   0.00000  Uiso   1.00
N1051  N     0.73744   0.48547   0.67951   0.00000  Uiso   1.00
N1052  N     0.76255   0.51453   0.98716   0.00000  Uiso   1.00
O1053  O     0.75325   0.42871   0.87326   0.00000  Uiso   1.00
O1054  O     0.74674   0.57129   0.79341   0.00000  Uiso   1.00
O1055  O     0.74480   0.41892   0.76945   0.00000  Uiso   1.00
O1056  O     0.75520   0.58108   0.89721   0.00000  Uiso   1.00
O1057  O     0.68935   0.50488   0.88524   0.00000  Uiso   1.00
O1058  O     0.81064   0.49512   0.78143   0.00000  Uiso   1.00
O1059  O     0.68090   0.49510   0.78143   0.00000  Uiso   1.00
O1060  O     0.81910   0.50490   0.88523   0.00000  Uiso   1.00
N1061  N     0.89442   0.55624   0.94118   0.00000  Uiso   1.00
H1062  H     0.87268   0.58290   0.92838   0.00000  Uiso   1.00
H1063  H     0.87853   0.53103   0.96409   0.00000  Uiso   1.00
N1064  N     0.60812   0.44722   0.72630   0.00000  Uiso   1.00
H1065  H     0.60110   0.46505   0.68915   0.00000  Uiso   1.00
H1066  H     0.59480   0.40848   0.71482   0.00000  Uiso   1.00
O1067  O     0.87594   0.44615   0.72917   0.00000  Uiso   1.00
C1068  C     0.88069   0.39143   0.72212   0.00000  Uiso   1.00
H1069  H     0.91149   0.38090   0.74671   0.00000  Uiso   1.00
H1070  H     0.88194   0.37391   0.67211   0.00000  Uiso   1.00
C1071  C     0.84096   0.36589   0.74379   0.00000  Uiso   1.00
H1072  H     0.81018   0.37336   0.71730   0.00000  Uiso   1.00
H1073  H     0.84411   0.65619   0.73587   0.00000  Uiso   1.00
H1074  H     0.83922   0.38200   0.79398   0.00000  Uiso   1.00
O1075  O     0.62419   0.55427   0.93797   0.00000  Uiso   1.00
C1076  C     0.61977   0.60909   0.94541   0.00000  Uiso   1.00
H1077  H     0.61879   0.62646   0.99550   0.00000  Uiso   1.00
H1078  H     0.58898   0.62000   0.92119   0.00000  Uiso   1.00
C1079  C     0.65952   0.63442   0.92353   0.00000  Uiso   1.00
H1080  H     0.66101   0.61843   0.87327   0.00000  Uiso   1.00
H1081  H     0.65661   0.34417   0.93171   0.00000  Uiso   1.00
H1082  H     0.69031   0.62662   0.94972   0.00000  Uiso   1.00
N1083  N     0.71780   0.64815   0.75445   0.00000  Uiso   1.00
H1084  H     0.73493   0.65266   0.71693   0.00000  Uiso   1.00
H1085  H     0.68677   0.66374   0.74982   0.00000  Uiso   1.00
N1086  N     0.78236   0.35184   0.91216   0.00000  Uiso   1.00
H1087  H     0.76527   0.34736   0.94973   0.00000  Uiso   1.00
H1088  H     0.81339   0.33623   0.91674   0.00000  Uiso   1.00
C1089  C     0.24769   0.73344   0.81809   0.00000  Uiso   1.00
C1090  C     0.25236   0.93323   0.84858   0.00000  Uiso   1.00
C1091  C     0.01437   0.79092   0.72374   0.00000  Uiso   1.00
C1092  C     0.48572   0.87735   0.94248   0.00000  Uiso   1.00
C1093  C     0.24224   0.67789   0.81040   0.00000  Uiso   1.00
C1094  C     0.25787   0.98878   0.85625   0.00000  Uiso   1.00
C1095  C     0.16433   0.83330   0.83371   0.00000  Uiso   1.00
C1096  C     0.33571   0.83374   0.83309   0.00000  Uiso   1.00
C1097  C     0.41197   0.85952   0.88720   0.00000  Uiso   1.00
C1098  C     0.08852   0.80893   0.77943   0.00000  Uiso   1.00
C1099  C     0.38421   0.83403   0.83330   0.00000  Uiso   1.00
C1100  C     0.11589   0.83355   0.83369   0.00000  Uiso   1.00
C1101  C     0.40311   0.80758   0.78014   0.00000  Uiso   1.00
C1102  C     0.09701   0.85992   0.88677   0.00000  Uiso   1.00
C1103  C     0.44939   0.81119   0.77869   0.00000  Uiso   1.00
C1104  C     0.05072   0.85672   0.88783   0.00000  Uiso   1.00
C1105  C     0.47685   0.83410   0.83318   0.00000  Uiso   1.00
C1106  C     0.02334   0.83409   0.83307   0.00000  Uiso   1.00
C1107  C     0.45802   0.85706   0.88782   0.00000  Uiso   1.00
C1108  C     0.04224   0.81132   0.77831   0.00000  Uiso   1.00
C1109  C     0.46866   0.79143   0.72383   0.00000  Uiso   1.00
C1110  C     0.03139   0.87650   0.94265   0.00000  Uiso   1.00
Cu1111 Cu    0.25500   0.83913   0.89479   0.00000  Uiso   1.00
Cu1112 Cu    0.24499   0.82754   0.77187   0.00000  Uiso   1.00
H1113  H     0.44848   0.77576   0.68064   0.00000  Uiso   1.00
H1114  H     0.05148   0.89188   0.98599   0.00000  Uiso   1.00
H1115  H     0.02738   0.77431   0.68038   0.00000  Uiso   1.00
H1116  H     0.47233   0.89376   0.98572   0.00000  Uiso   1.00
H1117  H     0.21534   0.79262   0.98244   0.00000  Uiso   1.00
H1118  H     0.28466   0.87405   0.68422   0.00000  Uiso   1.00
N1119  N     0.23744   0.81881   0.67951   0.00000  Uiso   1.00
N1120  N     0.26255   0.84786   0.98716   0.00000  Uiso   1.00
O1121  O     0.25325   0.76204   0.87326   0.00000  Uiso   1.00
O1122  O     0.24674   0.90462   0.79341   0.00000  Uiso   1.00
O1123  O     0.24480   0.75226   0.76945   0.00000  Uiso   1.00
O1124  O     0.25520   0.91441   0.89721   0.00000  Uiso   1.00
O1125  O     0.18935   0.83821   0.88524   0.00000  Uiso   1.00
O1126  O     0.31064   0.82845   0.78143   0.00000  Uiso   1.00
O1127  O     0.18090   0.82843   0.78143   0.00000  Uiso   1.00
O1128  O     0.31910   0.83824   0.88523   0.00000  Uiso   1.00
N1129  N     0.39442   0.88957   0.94118   0.00000  Uiso   1.00
H1130  H     0.37268   0.91623   0.92838   0.00000  Uiso   1.00
H1131  H     0.37853   0.86436   0.96409   0.00000  Uiso   1.00
N1132  N     0.10812   0.78055   0.72630   0.00000  Uiso   1.00
H1133  H     0.10110   0.79839   0.68915   0.00000  Uiso   1.00
H1134  H     0.09480   0.74181   0.71482   0.00000  Uiso   1.00
O1135  O     0.37594   0.77949   0.72917   0.00000  Uiso   1.00
C1136  C     0.38069   0.72476   0.72212   0.00000  Uiso   1.00
H1137  H     0.41149   0.71423   0.74671   0.00000  Uiso   1.00
H1138  H     0.38194   0.70724   0.67211   0.00000  Uiso   1.00
C1139  C     0.34096   0.69922   0.74379   0.00000  Uiso   1.00
H1140  H     0.31018   0.70669   0.71730   0.00000  Uiso   1.00
H1141  H     0.34411   0.98952   0.73587   0.00000  Uiso   1.00
H1142  H     0.33922   0.71533   0.79398   0.00000  Uiso   1.00
O1143  O     0.12419   0.88760   0.93797   0.00000  Uiso   1.00
C1144  C     0.11977   0.94242   0.94541   0.00000  Uiso   1.00
H1145  H     0.11879   0.95979   0.99550   0.00000  Uiso   1.00
H1146  H     0.08898   0.95333   0.92119   0.00000  Uiso   1.00
C1147  C     0.15952   0.96775   0.92353   0.00000  Uiso   1.00
H1148  H     0.16101   0.95177   0.87327   0.00000  Uiso   1.00
H1149  H     0.15661   0.67750   0.93171   0.00000  Uiso   1.00
H1150  H     0.19031   0.95996   0.94972   0.00000  Uiso   1.00
N1151  N     0.21780   0.98149   0.75445   0.00000  Uiso   1.00
H1152  H     0.23493   0.98599   0.71693   0.00000  Uiso   1.00
H1153  H     0.18677   0.99708   0.74982   0.00000  Uiso   1.00
N1154  N     0.28236   0.68517   0.91216   0.00000  Uiso   1.00
H1155  H     0.26527   0.68069   0.94973   0.00000  Uiso   1.00
H1156  H     0.31339   0.66956   0.91674   0.00000  Uiso   1.00
C1157  C     0.74769   0.73344   0.81809   0.00000  Uiso   1.00
C1158  C     0.75236   0.93323   0.84858   0.00000  Uiso   1.00
C1159  C     0.51437   0.79092   0.72374   0.00000  Uiso   1.00
C1160  C     0.98572   0.87735   0.94248   0.00000  Uiso   1.00
C1161  C     0.74224   0.67789   0.81040   0.00000  Uiso   1.00
C1162  C     0.75787   0.98878   0.85625   0.00000  Uiso   1.00
C1163  C     0.66433   0.83330   0.83371   0.00000  Uiso   1.00
C1164  C     0.83571   0.83374   0.83309   0.00000  Uiso   1.00
C1165  C     0.91197   0.85952   0.88720   0.00000  Uiso   1.00
C1166  C     0.58852   0.80893   0.77943   0.00000  Uiso   1.00
C1167  C     0.88421   0.83403   0.83330   0.00000  Uiso   1.00
C1168  C     0.61589   0.83355   0.83369   0.00000  Uiso   1.00
C1169  C     0.90311   0.80758   0.78014   0.00000  Uiso   1.00
C1170  C     0.59701   0.85992   0.88677   0.00000  Uiso   1.00
C1171  C     0.94939   0.81119   0.77869   0.00000  Uiso   1.00
C1172  C     0.55072   0.85672   0.88783   0.00000  Uiso   1.00
C1173  C     0.97685   0.83410   0.83318   0.00000  Uiso   1.00
C1174  C     0.52334   0.83409   0.83307   0.00000  Uiso   1.00
C1175  C     0.95802   0.85706   0.88782   0.00000  Uiso   1.00
C1176  C     0.54224   0.81132   0.77831   0.00000  Uiso   1.00
C1177  C     0.96866   0.79143   0.72383   0.00000  Uiso   1.00
C1178  C     0.53139   0.87650   0.94265   0.00000  Uiso   1.00
Cu1179 Cu    0.75500   0.83913   0.89479   0.00000  Uiso   1.00
Cu1180 Cu    0.74499   0.82754   0.77187   0.00000  Uiso   1.00
H1181  H     0.94848   0.77576   0.68064   0.00000  Uiso   1.00
H1182  H     0.55148   0.89188   0.98599   0.00000  Uiso   1.00
H1183  H     0.52738   0.77431   0.68038   0.00000  Uiso   1.00
H1184  H     0.97233   0.89376   0.98572   0.00000  Uiso   1.00
H1185  H     0.71534   0.79262   0.98244   0.00000  Uiso   1.00
H1186  H     0.78466   0.87405   0.68422   0.00000  Uiso   1.00
N1187  N     0.73744   0.81881   0.67951   0.00000  Uiso   1.00
N1188  N     0.76255   0.84786   0.98716   0.00000  Uiso   1.00
O1189  O     0.75325   0.76204   0.87326   0.00000  Uiso   1.00
O1190  O     0.74674   0.90462   0.79341   0.00000  Uiso   1.00
O1191  O     0.74480   0.75226   0.76945   0.00000  Uiso   1.00
O1192  O     0.75520   0.91441   0.89721   0.00000  Uiso   1.00
O1193  O     0.68935   0.83821   0.88524   0.00000  Uiso   1.00
O1194  O     0.81064   0.82845   0.78143   0.00000  Uiso   1.00
O1195  O     0.68090   0.82843   0.78143   0.00000  Uiso   1.00
O1196  O     0.81910   0.83824   0.88523   0.00000  Uiso   1.00
N1197  N     0.89442   0.88957   0.94118   0.00000  Uiso   1.00
H1198  H     0.87268   0.91623   0.92838   0.00000  Uiso   1.00
H1199  H     0.87853   0.86436   0.96409   0.00000  Uiso   1.00
N1200  N     0.60812   0.78055   0.72630   0.00000  Uiso   1.00
H1201  H     0.60110   0.79839   0.68915   0.00000  Uiso   1.00
H1202  H     0.59480   0.74181   0.71482   0.00000  Uiso   1.00
O1203  O     0.87594   0.77949   0.72917   0.00000  Uiso   1.00
C1204  C     0.88069   0.72476   0.72212   0.00000  Uiso   1.00
H1205  H     0.91149   0.71423   0.74671   0.00000  Uiso   1.00
H1206  H     0.88194   0.70724   0.67211   0.00000  Uiso   1.00
C1207  C     0.84096   0.69922   0.74379   0.00000  Uiso   1.00
H1208  H     0.81018   0.70669   0.71730   0.00000  Uiso   1.00
H1209  H     0.84411   0.98952   0.73587   0.00000  Uiso   1.00
H1210  H     0.83922   0.71533   0.79398   0.00000  Uiso   1.00
O1211  O     0.62419   0.88760   0.93797   0.00000  Uiso   1.00
C1212  C     0.61977   0.94242   0.94541   0.00000  Uiso   1.00
H1213  H     0.61879   0.95979   0.99550   0.00000  Uiso   1.00
H1214  H     0.58898   0.95333   0.92119   0.00000  Uiso   1.00
C1215  C     0.65952   0.96775   0.92353   0.00000  Uiso   1.00
H1216  H     0.66101   0.95177   0.87327   0.00000  Uiso   1.00
H1217  H     0.65661   0.67750   0.93171   0.00000  Uiso   1.00
H1218  H     0.69031   0.95996   0.94972   0.00000  Uiso   1.00
N1219  N     0.71780   0.98149   0.75445   0.00000  Uiso   1.00
H1220  H     0.73493   0.98599   0.71693   0.00000  Uiso   1.00
H1221  H     0.68677   0.99708   0.74982   0.00000  Uiso   1.00
N1222  N     0.78236   0.68517   0.91216   0.00000  Uiso   1.00
H1223  H     0.76527   0.68069   0.94973   0.00000  Uiso   1.00
H1224  H     0.81339   0.66956   0.91674   0.00000  Uiso   1.00
loop_
_geom_bond_atom_site_label_1
_geom_bond_atom_site_label_2
_geom_bond_distance
_geom_bond_site_symmetry_2
_ccdc_geom_bond_type
C1     O33     1.283   .     A
C1     C5      1.428   .     S
C1     O35     1.282   .     A
C2     O34     1.283   .     A
C2     C6      1.428   .     S
C2     O36     1.282   .     A
C3     H27     1.081   .     S
C3     C20     1.406   .     A
C3     C89     1.386   1_455 S
C4     H28     1.083   .     S
C4     C19     1.405   .     A
C4     C90     1.385   .     S
C5     C278    1.346   1_545 S
C5     N335    1.441   1_545 S
C6     C141    1.346   .     S
C6     N202    1.441   .     S
C7     O37     1.298   .     A
C7     C12     1.468   .     S
C7     O39     1.289   .     A
C8     O38     1.300   .     A
C8     C11     1.469   .     S
C8     O40     1.287   .     A
C9     N41     1.439   .     S
C9     C11     1.422   .     A
C9     C19     1.399   .     A
C10    C12     1.416   .     A
C10    N44     1.439   .     S
C10    C20     1.405   .     A
C11    C13     1.412   .     A
C12    C14     1.410   .     A
C13    C15     1.406   .     A
C13    O47     1.390   .     S
C14    O55     1.390   .     S
C14    C16     1.405   .     A
C15    C21     1.402   .     A
C15    C17     1.411   .     A
C16    C22     1.402   .     A
C16    C18     1.413   .     A
C17    C19     1.410   .     A
C17    C86     1.409   .     S
C18    C20     1.412   .     A
C18    C85     1.409   1_455 S
C21    H25     1.083   .     S
C21    C71     1.386   .     S
C22    H26     1.083   .     S
C22    C72     1.385   1_455 S
Cu23   O40     1.973   .     S
Cu23   O33     1.967   .     S
Cu23   Cu24    2.674   .     S
Cu23   N32     2.009   .     S
Cu23   O36     1.960   .     S
Cu23   O37     1.981   .     S
Cu24   N31     2.009   .     S
Cu24   O35     1.960   .     S
Cu24   O38     1.981   .     S
Cu24   O39     1.973   .     S
Cu24   O34     1.967   .     S
H29    N439    1.029   .     S
H30    N848    1.029   1_554 S
N31    H845    1.029   1_554 S
N31    N848    1.305   1_554 S
N32    N439    1.305   .     S
N32    H438    1.029   .     S
N41    H42     1.046   .     S
N41    H43     1.045   .     S
N44    H46     1.046   .     S
N44    H45     1.046   .     S
O47    C48     1.421   .     S
C48    H50     1.111   .     S
C48    H49     1.116   .     S
C48    C51     1.519   .     S
C51    H54     1.110   .     S
C51    H52     1.108   .     S
C51    H325    1.111   1_545 S
H53    C187    1.111   .     S
O55    C56     1.421   .     S
C56    H58     1.116   .     S
C56    C59     1.519   .     S
C56    H57     1.111   .     S
C59    H60     1.110   .     S
C59    H62     1.107   .     S
C59    H197    1.111   .     S
H61    C331    1.111   1_545 S
N63    H65     1.046   .     S
N63    H64     1.045   .     S
N63    C141    1.441   .     S
N66    H68     1.046   .     S
N66    H67     1.045   .     S
N66    C278    1.441   1_545 S
C69    O101    1.283   .     A
C69    C73     1.428   .     S
C69    O103    1.282   .     A
C70    O102    1.283   .     A
C70    C74     1.428   .     S
C70    O104    1.282   .     A
C71    H95     1.081   .     S
C71    C88     1.406   .     A
C72    H96     1.083   .     S
C72    C87     1.405   .     A
C72    C22     1.385   1_655 S
C73    C346    1.346   1_545 S
C73    N403    1.441   1_545 S
C74    C209    1.346   .     S
C74    N270    1.441   .     S
C75    O105    1.298   .     A
C75    C80     1.468   .     S
C75    O107    1.289   .     A
C76    O106    1.300   .     A
C76    C79     1.469   .     S
C76    O108    1.287   .     A
C77    N109    1.439   .     S
C77    C79     1.422   .     A
C77    C87     1.399   .     A
C78    C80     1.416   .     A
C78    N112    1.439   .     S
C78    C88     1.405   .     A
C79    C81     1.412   .     A
C80    C82     1.410   .     A
C81    C83     1.406   .     A
C81    O115    1.390   .     S
C82    O123    1.390   .     S
C82    C84     1.405   .     A
C83    C89     1.402   .     A
C83    C85     1.411   .     A
C84    C90     1.402   .     A
C84    C86     1.413   .     A
C85    C87     1.410   .     A
C85    C18     1.409   1_655 S
C86    C88     1.412   .     A
C89    H93     1.083   .     S
C89    C3      1.386   1_655 S
C90    H94     1.083   .     S
Cu91   O108    1.973   .     S
Cu91   O101    1.967   .     S
Cu91   Cu92    2.674   .     S
Cu91   N100    2.009   .     S
Cu91   O104    1.960   .     S
Cu91   O105    1.981   .     S
Cu92   N99     2.009   .     S
Cu92   O103    1.960   .     S
Cu92   O106    1.981   .     S
Cu92   O107    1.973   .     S
Cu92   O102    1.967   .     S
H97    N507    1.029   .     S
H98    N916    1.029   1_554 S
N99    H913    1.029   1_554 S
N99    N916    1.305   1_554 S
N100   N507    1.305   .     S
N100   H506    1.029   .     S
N109   H110    1.046   .     S
N109   H111    1.045   .     S
N112   H114    1.046   .     S
N112   H113    1.046   .     S
O115   C116    1.421   .     S
C116   H118    1.111   .     S
C116   H117    1.116   .     S
C116   C119    1.519   .     S
C119   H122    1.110   .     S
C119   H120    1.108   .     S
C119   H393    1.111   1_545 S
H121   C255    1.111   .     S
O123   C124    1.421   .     S
C124   H126    1.116   .     S
C124   C127    1.519   .     S
C124   H125    1.111   .     S
C127   H128    1.110   .     S
C127   H130    1.107   .     S
C127   H265    1.111   .     S
H129   C399    1.111   1_545 S
N131   H133    1.046   .     S
N131   H132    1.045   .     S
N131   C209    1.441   .     S
N134   H136    1.046   .     S
N134   H135    1.045   .     S
N134   C346    1.441   1_545 S
C137   O169    1.283   .     A
C137   C141    1.428   .     S
C137   O171    1.282   .     A
C138   O170    1.283   .     A
C138   C142    1.428   .     S
C138   O172    1.282   .     A
C139   H163    1.081   .     S
C139   C156    1.406   .     A
C139   C225    1.386   1_455 S
C140   H164    1.083   .     S
C140   C155    1.405   .     A
C140   C226    1.385   .     S
C142   C277    1.346   .     S
C142   N338    1.441   .     S
C143   O173    1.298   .     A
C143   C148    1.468   .     S
C143   O175    1.289   .     A
C144   O174    1.300   .     A
C144   C147    1.469   .     S
C144   O176    1.287   .     A
C145   N177    1.439   .     S
C145   C147    1.422   .     A
C145   C155    1.399   .     A
C146   C148    1.416   .     A
C146   N180    1.439   .     S
C146   C156    1.405   .     A
C147   C149    1.412   .     A
C148   C150    1.410   .     A
C149   C151    1.406   .     A
C149   O183    1.390   .     S
C150   O191    1.390   .     S
C150   C152    1.405   .     A
C151   C157    1.402   .     A
C151   C153    1.411   .     A
C152   C158    1.402   .     A
C152   C154    1.413   .     A
C153   C155    1.410   .     A
C153   C222    1.409   .     S
C154   C156    1.412   .     A
C154   C221    1.409   1_455 S
C157   H161    1.083   .     S
C157   C207    1.386   .     S
C158   H162    1.083   .     S
C158   C208    1.385   1_455 S
Cu159  O176    1.973   .     S
Cu159  O169    1.967   .     S
Cu159  Cu160   2.674   .     S
Cu159  N168    2.009   .     S
Cu159  O172    1.960   .     S
Cu159  O173    1.981   .     S
Cu160  N167    2.009   .     S
Cu160  O171    1.960   .     S
Cu160  O174    1.981   .     S
Cu160  O175    1.973   .     S
Cu160  O170    1.967   .     S
H165   N575    1.029   .     S
H166   N984    1.029   1_554 S
N167   H981    1.029   1_554 S
N167   N984    1.305   1_554 S
N168   N575    1.305   .     S
N168   H574    1.029   .     S
N177   H178    1.046   .     S
N177   H179    1.045   .     S
N180   H182    1.046   .     S
N180   H181    1.046   .     S
O183   C184    1.421   .     S
C184   H186    1.111   .     S
C184   H185    1.116   .     S
C184   C187    1.519   .     S
C187   H190    1.110   .     S
C187   H188    1.108   .     S
H189   C323    1.111   .     S
O191   C192    1.421   .     S
C192   H194    1.116   .     S
C192   C195    1.519   .     S
C192   H193    1.111   .     S
C195   H196    1.110   .     S
C195   H198    1.107   .     S
C195   H333    1.111   .     S
N199   H201    1.046   .     S
N199   H200    1.045   .     S
N199   C277    1.441   .     S
N202   H204    1.046   .     S
N202   H203    1.045   .     S
C205   O237    1.283   .     A
C205   C209    1.428   .     S
C205   O239    1.282   .     A
C206   O238    1.283   .     A
C206   C210    1.428   .     S
C206   O240    1.282   .     A
C207   H231    1.081   .     S
C207   C224    1.406   .     A
C208   H232    1.083   .     S
C208   C223    1.405   .     A
C208   C158    1.385   1_655 S
C210   C345    1.346   .     S
C210   N406    1.441   .     S
C211   O241    1.298   .     A
C211   C216    1.468   .     S
C211   O243    1.289   .     A
C212   O242    1.300   .     A
C212   C215    1.469   .     S
C212   O244    1.287   .     A
C213   N245    1.439   .     S
C213   C215    1.422   .     A
C213   C223    1.399   .     A
C214   C216    1.416   .     A
C214   N248    1.439   .     S
C214   C224    1.405   .     A
C215   C217    1.412   .     A
C216   C218    1.410   .     A
C217   C219    1.406   .     A
C217   O251    1.390   .     S
C218   O259    1.390   .     S
C218   C220    1.405   .     A
C219   C225    1.402   .     A
C219   C221    1.411   .     A
C220   C226    1.402   .     A
C220   C222    1.413   .     A
C221   C223    1.410   .     A
C221   C154    1.409   1_655 S
C222   C224    1.412   .     A
C225   H229    1.083   .     S
C225   C139    1.386   1_655 S
C226   H230    1.083   .     S
Cu227  O244    1.973   .     S
Cu227  O237    1.967   .     S
Cu227  Cu228   2.674   .     S
Cu227  N236    2.009   .     S
Cu227  O240    1.960   .     S
Cu227  O241    1.981   .     S
Cu228  N235    2.009   .     S
Cu228  O239    1.960   .     S
Cu228  O242    1.981   .     S
Cu228  O243    1.973   .     S
Cu228  O238    1.967   .     S
H233   N643    1.029   .     S
H234   N1052   1.029   1_554 S
N235   H1049   1.029   1_554 S
N235   N1052   1.305   1_554 S
N236   N643    1.305   .     S
N236   H642    1.029   .     S
N245   H246    1.046   .     S
N245   H247    1.045   .     S
N248   H250    1.046   .     S
N248   H249    1.046   .     S
O251   C252    1.421   .     S
C252   H254    1.111   .     S
C252   H253    1.116   .     S
C252   C255    1.519   .     S
C255   H258    1.110   .     S
C255   H256    1.108   .     S
H257   C391    1.111   .     S
O259   C260    1.421   .     S
C260   H262    1.116   .     S
C260   C263    1.519   .     S
C260   H261    1.111   .     S
C263   H264    1.110   .     S
C263   H266    1.107   .     S
C263   H401    1.111   .     S
N267   H269    1.046   .     S
N267   H268    1.045   .     S
N267   C345    1.441   .     S
N270   H272    1.046   .     S
N270   H271    1.045   .     S
C273   O305    1.283   .     A
C273   C277    1.428   .     S
C273   O307    1.282   .     A
C274   O306    1.283   .     A
C274   C278    1.428   .     S
C274   O308    1.282   .     A
C275   H299    1.081   .     S
C275   C292    1.406   .     A
C275   C361    1.386   1_455 S
C276   H300    1.083   .     S
C276   C291    1.405   .     A
C276   C362    1.385   .     S
C278   C5      1.346   1_565 S
C278   N66     1.441   1_565 S
C279   O309    1.298   .     A
C279   C284    1.468   .     S
C279   O311    1.289   .     A
C280   O310    1.300   .     A
C280   C283    1.469   .     S
C280   O312    1.287   .     A
C281   N313    1.439   .     S
C281   C283    1.422   .     A
C281   C291    1.399   .     A
C282   C284    1.416   .     A
C282   N316    1.439   .     S
C282   C292    1.405   .     A
C283   C285    1.412   .     A
C284   C286    1.410   .     A
C285   C287    1.406   .     A
C285   O319    1.390   .     S
C286   O327    1.390   .     S
C286   C288    1.405   .     A
C287   C293    1.402   .     A
C287   C289    1.411   .     A
C288   C294    1.402   .     A
C288   C290    1.413   .     A
C289   C291    1.410   .     A
C289   C358    1.409   .     S
C290   C292    1.412   .     A
C290   C357    1.409   1_455 S
C293   H297    1.083   .     S
C293   C343    1.386   .     S
C294   H298    1.083   .     S
C294   C344    1.385   1_455 S
Cu295  O312    1.973   .     S
Cu295  O305    1.967   .     S
Cu295  Cu296   2.674   .     S
Cu295  N304    2.009   .     S
Cu295  O308    1.960   .     S
Cu295  O309    1.981   .     S
Cu296  N303    2.009   .     S
Cu296  O307    1.960   .     S
Cu296  O310    1.981   .     S
Cu296  O311    1.973   .     S
Cu296  O306    1.967   .     S
H301   N711    1.029   .     S
H302   N1120   1.029   1_554 S
N303   H1117   1.029   1_554 S
N303   N1120   1.305   1_554 S
N304   N711    1.305   .     S
N304   H710    1.029   .     S
N313   H314    1.046   .     S
N313   H315    1.045   .     S
N316   H318    1.046   .     S
N316   H317    1.046   .     S
O319   C320    1.421   .     S
C320   H322    1.111   .     S
C320   H321    1.116   .     S
C320   C323    1.519   .     S
C323   H326    1.110   .     S
C323   H324    1.108   .     S
H325   C51     1.111   1_565 S
O327   C328    1.421   .     S
C328   H330    1.116   .     S
C328   C331    1.519   .     S
C328   H329    1.111   .     S
C331   H332    1.110   .     S
C331   H334    1.107   .     S
C331   H61     1.111   1_565 S
N335   H337    1.046   .     S
N335   H336    1.045   .     S
N335   C5      1.441   1_565 S
N338   H340    1.046   .     S
N338   H339    1.045   .     S
C341   O373    1.283   .     A
C341   C345    1.428   .     S
C341   O375    1.282   .     A
C342   O374    1.283   .     A
C342   C346    1.428   .     S
C342   O376    1.282   .     A
C343   H367    1.081   .     S
C343   C360    1.406   .     A
C344   H368    1.083   .     S
C344   C359    1.405   .     A
C344   C294    1.385   1_655 S
C346   C73     1.346   1_565 S
C346   N134    1.441   1_565 S
C347   O377    1.298   .     A
C347   C352    1.468   .     S
C347   O379    1.289   .     A
C348   O378    1.300   .     A
C348   C351    1.469   .     S
C348   O380    1.287   .     A
C349   N381    1.439   .     S
C349   C351    1.422   .     A
C349   C359    1.399   .     A
C350   C352    1.416   .     A
C350   N384    1.439   .     S
C350   C360    1.405   .     A
C351   C353    1.412   .     A
C352   C354    1.410   .     A
C353   C355    1.406   .     A
C353   O387    1.390   .     S
C354   O395    1.390   .     S
C354   C356    1.405   .     A
C355   C361    1.402   .     A
C355   C357    1.411   .     A
C356   C362    1.402   .     A
C356   C358    1.413   .     A
C357   C359    1.410   .     A
C357   C290    1.409   1_655 S
C358   C360    1.412   .     A
C361   H365    1.083   .     S
C361   C275    1.386   1_655 S
C362   H366    1.083   .     S
Cu363  O380    1.973   .     S
Cu363  O373    1.967   .     S
Cu363  Cu364   2.674   .     S
Cu363  N372    2.009   .     S
Cu363  O376    1.960   .     S
Cu363  O377    1.981   .     S
Cu364  N371    2.009   .     S
Cu364  O375    1.960   .     S
Cu364  O378    1.981   .     S
Cu364  O379    1.973   .     S
Cu364  O374    1.967   .     S
H369   N779    1.029   .     S
H370   N1188   1.029   1_554 S
N371   H1185   1.029   1_554 S
N371   N1188   1.305   1_554 S
N372   N779    1.305   .     S
N372   H778    1.029   .     S
N381   H382    1.046   .     S
N381   H383    1.045   .     S
N384   H386    1.046   .     S
N384   H385    1.046   .     S
O387   C388    1.421   .     S
C388   H390    1.111   .     S
C388   H389    1.116   .     S
C388   C391    1.519   .     S
C391   H394    1.110   .     S
C391   H392    1.108   .     S
H393   C119    1.111   1_565 S
O395   C396    1.421   .     S
C396   H398    1.116   .     S
C396   C399    1.519   .     S
C396   H397    1.111   .     S
C399   H400    1.110   .     S
C399   H402    1.107   .     S
C399   H129    1.111   1_565 S
N403   H405    1.046   .     S
N403   H404    1.045   .     S
N403   C73     1.441   1_565 S
N406   H408    1.046   .     S
N406   H407    1.045   .     S
C409   O441    1.283   .     A
C409   C413    1.428   .     S
C409   O443    1.282   .     A
C410   O442    1.283   .     A
C410   C414    1.428   .     S
C410   O444    1.282   .     A
C411   H435    1.081   .     S
C411   C428    1.406   .     A
C411   C497    1.386   1_455 S
C412   H436    1.083   .     S
C412   C427    1.405   .     A
C412   C498    1.385   .     S
C413   C686    1.346   1_545 S
C413   N743    1.441   1_545 S
C414   C549    1.346   .     S
C414   N610    1.441   .     S
C415   O445    1.298   .     A
C415   C420    1.468   .     S
C415   O447    1.289   .     A
C416   O446    1.300   .     A
C416   C419    1.469   .     S
C416   O448    1.287   .     A
C417   N449    1.439   .     S
C417   C419    1.422   .     A
C417   C427    1.399   .     A
C418   C420    1.416   .     A
C418   N452    1.439   .     S
C418   C428    1.405   .     A
C419   C421    1.412   .     A
C420   C422    1.410   .     A
C421   C423    1.406   .     A
C421   O455    1.390   .     S
C422   O463    1.390   .     S
C422   C424    1.405   .     A
C423   C429    1.402   .     A
C423   C425    1.411   .     A
C424   C430    1.402   .     A
C424   C426    1.413   .     A
C425   C427    1.410   .     A
C425   C494    1.409   .     S
C426   C428    1.412   .     A
C426   C493    1.409   1_455 S
C429   H433    1.083   .     S
C429   C479    1.386   .     S
C430   H434    1.083   .     S
C430   C480    1.385   1_455 S
Cu431  O448    1.973   .     S
Cu431  O441    1.967   .     S
Cu431  Cu432   2.674   .     S
Cu431  N440    2.009   .     S
Cu431  O444    1.960   .     S
Cu431  O445    1.981   .     S
Cu432  N439    2.009   .     S
Cu432  O443    1.960   .     S
Cu432  O446    1.981   .     S
Cu432  O447    1.973   .     S
Cu432  O442    1.967   .     S
H437   N847    1.029   .     S
N440   N847    1.305   .     S
N440   H846    1.029   .     S
N449   H450    1.046   .     S
N449   H451    1.045   .     S
N452   H454    1.046   .     S
N452   H453    1.046   .     S
O455   C456    1.421   .     S
C456   H458    1.111   .     S
C456   H457    1.116   .     S
C456   C459    1.519   .     S
C459   H462    1.110   .     S
C459   H460    1.108   .     S
C459   H733    1.111   1_545 S
H461   C595    1.111   .     S
O463   C464    1.421   .     S
C464   H466    1.116   .     S
C464   C467    1.519   .     S
C464   H465    1.111   .     S
C467   H468    1.110   .     S
C467   H470    1.107   .     S
C467   H605    1.111   .     S
H469   C739    1.111   1_545 S
N471   H473    1.046   .     S
N471   H472    1.045   .     S
N471   C549    1.441   .     S
N474   H476    1.046   .     S
N474   H475    1.045   .     S
N474   C686    1.441   1_545 S
C477   O509    1.283   .     A
C477   C481    1.428   .     S
C477   O511    1.282   .     A
C478   O510    1.283   .     A
C478   C482    1.428   .     S
C478   O512    1.282   .     A
C479   H503    1.081   .     S
C479   C496    1.406   .     A
C480   H504    1.083   .     S
C480   C495    1.405   .     A
C480   C430    1.385   1_655 S
C481   C754    1.346   1_545 S
C481   N811    1.441   1_545 S
C482   C617    1.346   .     S
C482   N678    1.441   .     S
C483   O513    1.298   .     A
C483   C488    1.468   .     S
C483   O515    1.289   .     A
C484   O514    1.300   .     A
C484   C487    1.469   .     S
C484   O516    1.287   .     A
C485   N517    1.439   .     S
C485   C487    1.422   .     A
C485   C495    1.399   .     A
C486   C488    1.416   .     A
C486   N520    1.439   .     S
C486   C496    1.405   .     A
C487   C489    1.412   .     A
C488   C490    1.410   .     A
C489   C491    1.406   .     A
C489   O523    1.390   .     S
C490   O531    1.390   .     S
C490   C492    1.405   .     A
C491   C497    1.402   .     A
C491   C493    1.411   .     A
C492   C498    1.402   .     A
C492   C494    1.413   .     A
C493   C495    1.410   .     A
C493   C426    1.409   1_655 S
C494   C496    1.412   .     A
C497   H501    1.083   .     S
C497   C411    1.386   1_655 S
C498   H502    1.083   .     S
Cu499  O516    1.973   .     S
Cu499  O509    1.967   .     S
Cu499  Cu500   2.674   .     S
Cu499  N508    2.009   .     S
Cu499  O512    1.960   .     S
Cu499  O513    1.981   .     S
Cu500  N507    2.009   .     S
Cu500  O511    1.960   .     S
Cu500  O514    1.981   .     S
Cu500  O515    1.973   .     S
Cu500  O510    1.967   .     S
H505   N915    1.029   .     S
N508   N915    1.305   .     S
N508   H914    1.029   .     S
N517   H518    1.046   .     S
N517   H519    1.045   .     S
N520   H522    1.046   .     S
N520   H521    1.046   .     S
O523   C524    1.421   .     S
C524   H526    1.111   .     S
C524   H525    1.116   .     S
C524   C527    1.519   .     S
C527   H530    1.110   .     S
C527   H528    1.108   .     S
C527   H801    1.111   1_545 S
H529   C663    1.111   .     S
O531   C532    1.421   .     S
C532   H534    1.116   .     S
C532   C535    1.519   .     S
C532   H533    1.111   .     S
C535   H536    1.110   .     S
C535   H538    1.107   .     S
C535   H673    1.111   .     S
H537   C807    1.111   1_545 S
N539   H541    1.046   .     S
N539   H540    1.045   .     S
N539   C617    1.441   .     S
N542   H544    1.046   .     S
N542   H543    1.045   .     S
N542   C754    1.441   1_545 S
C545   O577    1.283   .     A
C545   C549    1.428   .     S
C545   O579    1.282   .     A
C546   O578    1.283   .     A
C546   C550    1.428   .     S
C546   O580    1.282   .     A
C547   H571    1.081   .     S
C547   C564    1.406   .     A
C547   C633    1.386   1_455 S
C548   H572    1.083   .     S
C548   C563    1.405   .     A
C548   C634    1.385   .     S
C550   C685    1.346   .     S
C550   N746    1.441   .     S
C551   O581    1.298   .     A
C551   C556    1.468   .     S
C551   O583    1.289   .     A
C552   O582    1.300   .     A
C552   C555    1.469   .     S
C552   O584    1.287   .     A
C553   N585    1.439   .     S
C553   C555    1.422   .     A
C553   C563    1.399   .     A
C554   C556    1.416   .     A
C554   N588    1.439   .     S
C554   C564    1.405   .     A
C555   C557    1.412   .     A
C556   C558    1.410   .     A
C557   C559    1.406   .     A
C557   O591    1.390   .     S
C558   O599    1.390   .     S
C558   C560    1.405   .     A
C559   C565    1.402   .     A
C559   C561    1.411   .     A
C560   C566    1.402   .     A
C560   C562    1.413   .     A
C561   C563    1.410   .     A
C561   C630    1.409   .     S
C562   C564    1.412   .     A
C562   C629    1.409   1_455 S
C565   H569    1.083   .     S
C565   C615    1.386   .     S
C566   H570    1.083   .     S
C566   C616    1.385   1_455 S
Cu567  O584    1.973   .     S
Cu567  O577    1.967   .     S
Cu567  Cu568   2.674   .     S
Cu567  N576    2.009   .     S
Cu567  O580    1.960   .     S
Cu567  O581    1.981   .     S
Cu568  N575    2.009   .     S
Cu568  O579    1.960   .     S
Cu568  O582    1.981   .     S
Cu568  O583    1.973   .     S
Cu568  O578    1.967   .     S
H573   N983    1.029   .     S
N576   N983    1.305   .     S
N576   H982    1.029   .     S
N585   H586    1.046   .     S
N585   H587    1.045   .     S
N588   H590    1.046   .     S
N588   H589    1.046   .     S
O591   C592    1.421   .     S
C592   H594    1.111   .     S
C592   H593    1.116   .     S
C592   C595    1.519   .     S
C595   H598    1.110   .     S
C595   H596    1.108   .     S
H597   C731    1.111   .     S
O599   C600    1.421   .     S
C600   H602    1.116   .     S
C600   C603    1.519   .     S
C600   H601    1.111   .     S
C603   H604    1.110   .     S
C603   H606    1.107   .     S
C603   H741    1.111   .     S
N607   H609    1.046   .     S
N607   H608    1.045   .     S
N607   C685    1.441   .     S
N610   H612    1.046   .     S
N610   H611    1.045   .     S
C613   O645    1.283   .     A
C613   C617    1.428   .     S
C613   O647    1.282   .     A
C614   O646    1.283   .     A
C614   C618    1.428   .     S
C614   O648    1.282   .     A
C615   H639    1.081   .     S
C615   C632    1.406   .     A
C616   H640    1.083   .     S
C616   C631    1.405   .     A
C616   C566    1.385   1_655 S
C618   C753    1.346   .     S
C618   N814    1.441   .     S
C619   O649    1.298   .     A
C619   C624    1.468   .     S
C619   O651    1.289   .     A
C620   O650    1.300   .     A
C620   C623    1.469   .     S
C620   O652    1.287   .     A
C621   N653    1.439   .     S
C621   C623    1.422   .     A
C621   C631    1.399   .     A
C622   C624    1.416   .     A
C622   N656    1.439   .     S
C622   C632    1.405   .     A
C623   C625    1.412   .     A
C624   C626    1.410   .     A
C625   C627    1.406   .     A
C625   O659    1.390   .     S
C626   O667    1.390   .     S
C626   C628    1.405   .     A
C627   C633    1.402   .     A
C627   C629    1.411   .     A
C628   C634    1.402   .     A
C628   C630    1.413   .     A
C629   C631    1.410   .     A
C629   C562    1.409   1_655 S
C630   C632    1.412   .     A
C633   H637    1.083   .     S
C633   C547    1.386   1_655 S
C634   H638    1.083   .     S
Cu635  O652    1.973   .     S
Cu635  O645    1.967   .     S
Cu635  Cu636   2.674   .     S
Cu635  N644    2.009   .     S
Cu635  O648    1.960   .     S
Cu635  O649    1.981   .     S
Cu636  N643    2.009   .     S
Cu636  O647    1.960   .     S
Cu636  O650    1.981   .     S
Cu636  O651    1.973   .     S
Cu636  O646    1.967   .     S
H641   N1051   1.029   .     S
N644   N1051   1.305   .     S
N644   H1050   1.029   .     S
N653   H654    1.046   .     S
N653   H655    1.045   .     S
N656   H658    1.046   .     S
N656   H657    1.046   .     S
O659   C660    1.421   .     S
C660   H662    1.111   .     S
C660   H661    1.116   .     S
C660   C663    1.519   .     S
C663   H666    1.110   .     S
C663   H664    1.108   .     S
H665   C799    1.111   .     S
O667   C668    1.421   .     S
C668   H670    1.116   .     S
C668   C671    1.519   .     S
C668   H669    1.111   .     S
C671   H672    1.110   .     S
C671   H674    1.107   .     S
C671   H809    1.111   .     S
N675   H677    1.046   .     S
N675   H676    1.045   .     S
N675   C753    1.441   .     S
N678   H680    1.046   .     S
N678   H679    1.045   .     S
C681   O713    1.283   .     A
C681   C685    1.428   .     S
C681   O715    1.282   .     A
C682   O714    1.283   .     A
C682   C686    1.428   .     S
C682   O716    1.282   .     A
C683   H707    1.081   .     S
C683   C700    1.406   .     A
C683   C769    1.386   1_455 S
C684   H708    1.083   .     S
C684   C699    1.405   .     A
C684   C770    1.385   .     S
C686   C413    1.346   1_565 S
C686   N474    1.441   1_565 S
C687   O717    1.298   .     A
C687   C692    1.468   .     S
C687   O719    1.289   .     A
C688   O718    1.300   .     A
C688   C691    1.469   .     S
C688   O720    1.287   .     A
C689   N721    1.439   .     S
C689   C691    1.422   .     A
C689   C699    1.399   .     A
C690   C692    1.416   .     A
C690   N724    1.439   .     S
C690   C700    1.405   .     A
C691   C693    1.412   .     A
C692   C694    1.410   .     A
C693   C695    1.406   .     A
C693   O727    1.390   .     S
C694   O735    1.390   .     S
C694   C696    1.405   .     A
C695   C701    1.402   .     A
C695   C697    1.411   .     A
C696   C702    1.402   .     A
C696   C698    1.413   .     A
C697   C699    1.410   .     A
C697   C766    1.409   .     S
C698   C700    1.412   .     A
C698   C765    1.409   1_455 S
C701   H705    1.083   .     S
C701   C751    1.386   .     S
C702   H706    1.083   .     S
C702   C752    1.385   1_455 S
Cu703  O720    1.973   .     S
Cu703  O713    1.967   .     S
Cu703  Cu704   2.674   .     S
Cu703  N712    2.009   .     S
Cu703  O716    1.960   .     S
Cu703  O717    1.981   .     S
Cu704  N711    2.009   .     S
Cu704  O715    1.960   .     S
Cu704  O718    1.981   .     S
Cu704  O719    1.973   .     S
Cu704  O714    1.967   .     S
H709   N1119   1.029   .     S
N712   N1119   1.305   .     S
N712   H1118   1.029   .     S
N721   H722    1.046   .     S
N721   H723    1.045   .     S
N724   H726    1.046   .     S
N724   H725    1.046   .     S
O727   C728    1.421   .     S
C728   H730    1.111   .     S
C728   H729    1.116   .     S
C728   C731    1.519   .     S
C731   H734    1.110   .     S
C731   H732    1.108   .     S
H733   C459    1.111   1_565 S
O735   C736    1.421   .     S
C736   H738    1.116   .     S
C736   C739    1.519   .     S
C736   H737    1.111   .     S
C739   H740    1.110   .     S
C739   H742    1.107   .     S
C739   H469    1.111   1_565 S
N743   H745    1.046   .     S
N743   H744    1.045   .     S
N743   C413    1.441   1_565 S
N746   H748    1.046   .     S
N746   H747    1.045   .     S
C749   O781    1.283   .     A
C749   C753    1.428   .     S
C749   O783    1.282   .     A
C750   O782    1.283   .     A
C750   C754    1.428   .     S
C750   O784    1.282   .     A
C751   H775    1.081   .     S
C751   C768    1.406   .     A
C752   H776    1.083   .     S
C752   C767    1.405   .     A
C752   C702    1.385   1_655 S
C754   C481    1.346   1_565 S
C754   N542    1.441   1_565 S
C755   O785    1.298   .     A
C755   C760    1.468   .     S
C755   O787    1.289   .     A
C756   O786    1.300   .     A
C756   C759    1.469   .     S
C756   O788    1.287   .     A
C757   N789    1.439   .     S
C757   C759    1.422   .     A
C757   C767    1.399   .     A
C758   C760    1.416   .     A
C758   N792    1.439   .     S
C758   C768    1.405   .     A
C759   C761    1.412   .     A
C760   C762    1.410   .     A
C761   C763    1.406   .     A
C761   O795    1.390   .     S
C762   O803    1.390   .     S
C762   C764    1.405   .     A
C763   C769    1.402   .     A
C763   C765    1.411   .     A
C764   C770    1.402   .     A
C764   C766    1.413   .     A
C765   C767    1.410   .     A
C765   C698    1.409   1_655 S
C766   C768    1.412   .     A
C769   H773    1.083   .     S
C769   C683    1.386   1_655 S
C770   H774    1.083   .     S
Cu771  O788    1.973   .     S
Cu771  O781    1.967   .     S
Cu771  Cu772   2.674   .     S
Cu771  N780    2.009   .     S
Cu771  O784    1.960   .     S
Cu771  O785    1.981   .     S
Cu772  N779    2.009   .     S
Cu772  O783    1.960   .     S
Cu772  O786    1.981   .     S
Cu772  O787    1.973   .     S
Cu772  O782    1.967   .     S
H777   N1187   1.029   .     S
N780   N1187   1.305   .     S
N780   H1186   1.029   .     S
N789   H790    1.046   .     S
N789   H791    1.045   .     S
N792   H794    1.046   .     S
N792   H793    1.046   .     S
O795   C796    1.421   .     S
C796   H798    1.111   .     S
C796   H797    1.116   .     S
C796   C799    1.519   .     S
C799   H802    1.110   .     S
C799   H800    1.108   .     S
H801   C527    1.111   1_565 S
O803   C804    1.421   .     S
C804   H806    1.116   .     S
C804   C807    1.519   .     S
C804   H805    1.111   .     S
C807   H808    1.110   .     S
C807   H810    1.107   .     S
C807   H537    1.111   1_565 S
N811   H813    1.046   .     S
N811   H812    1.045   .     S
N811   C481    1.441   1_565 S
N814   H816    1.046   .     S
N814   H815    1.045   .     S
C817   O849    1.283   .     A
C817   C821    1.428   .     S
C817   O851    1.282   .     A
C818   O850    1.283   .     A
C818   C822    1.428   .     S
C818   O852    1.282   .     A
C819   H843    1.081   .     S
C819   C836    1.406   .     A
C819   C905    1.386   1_455 S
C820   H844    1.083   .     S
C820   C835    1.405   .     A
C820   C906    1.385   .     S
C821   C1094   1.346   1_545 S
C821   N1151   1.441   1_545 S
C822   C957    1.346   .     S
C822   N1018   1.441   .     S
C823   O853    1.298   .     A
C823   C828    1.468   .     S
C823   O855    1.289   .     A
C824   O854    1.300   .     A
C824   C827    1.469   .     S
C824   O856    1.287   .     A
C825   N857    1.439   .     S
C825   C827    1.422   .     A
C825   C835    1.399   .     A
C826   C828    1.416   .     A
C826   N860    1.439   .     S
C826   C836    1.405   .     A
C827   C829    1.412   .     A
C828   C830    1.410   .     A
C829   C831    1.406   .     A
C829   O863    1.390   .     S
C830   O871    1.390   .     S
C830   C832    1.405   .     A
C831   C837    1.402   .     A
C831   C833    1.411   .     A
C832   C838    1.402   .     A
C832   C834    1.413   .     A
C833   C835    1.410   .     A
C833   C902    1.409   .     S
C834   C836    1.412   .     A
C834   C901    1.409   1_455 S
C837   H841    1.083   .     S
C837   C887    1.386   .     S
C838   H842    1.083   .     S
C838   C888    1.385   1_455 S
Cu839  O856    1.973   .     S
Cu839  O849    1.967   .     S
Cu839  Cu840   2.674   .     S
Cu839  N848    2.009   .     S
Cu839  O852    1.960   .     S
Cu839  O853    1.981   .     S
Cu840  N847    2.009   .     S
Cu840  O851    1.960   .     S
Cu840  O854    1.981   .     S
Cu840  O855    1.973   .     S
Cu840  O850    1.967   .     S
H845   N31     1.029   1_556 S
N848   N31     1.305   1_556 S
N848   H30     1.029   1_556 S
N857   H858    1.046   .     S
N857   H859    1.045   .     S
N860   H862    1.046   .     S
N860   H861    1.046   .     S
O863   C864    1.421   .     S
C864   H866    1.111   .     S
C864   H865    1.116   .     S
C864   C867    1.519   .     S
C867   H870    1.110   .     S
C867   H868    1.108   .     S
C867   H1141   1.111   1_545 S
H869   C1003   1.111   .     S
O871   C872    1.421   .     S
C872   H874    1.116   .     S
C872   C875    1.519   .     S
C872   H873    1.111   .     S
C875   H876    1.110   .     S
C875   H878    1.107   .     S
C875   H1013   1.111   .     S
H877   C1147   1.111   1_545 S
N879   H881    1.046   .     S
N879   H880    1.045   .     S
N879   C957    1.441   .     S
N882   H884    1.046   .     S
N882   H883    1.045   .     S
N882   C1094   1.441   1_545 S
C885   O917    1.283   .     A
C885   C889    1.428   .     S
C885   O919    1.282   .     A
C886   O918    1.283   .     A
C886   C890    1.428   .     S
C886   O920    1.282   .     A
C887   H911    1.081   .     S
C887   C904    1.406   .     A
C888   H912    1.083   .     S
C888   C903    1.405   .     A
C888   C838    1.385   1_655 S
C889   C1162   1.346   1_545 S
C889   N1219   1.441   1_545 S
C890   C1025   1.346   .     S
C890   N1086   1.441   .     S
C891   O921    1.298   .     A
C891   C896    1.468   .     S
C891   O923    1.289   .     A
C892   O922    1.300   .     A
C892   C895    1.469   .     S
C892   O924    1.287   .     A
C893   N925    1.439   .     S
C893   C895    1.422   .     A
C893   C903    1.399   .     A
C894   C896    1.416   .     A
C894   N928    1.439   .     S
C894   C904    1.405   .     A
C895   C897    1.412   .     A
C896   C898    1.410   .     A
C897   C899    1.406   .     A
C897   O931    1.390   .     S
C898   O939    1.390   .     S
C898   C900    1.405   .     A
C899   C905    1.402   .     A
C899   C901    1.411   .     A
C900   C906    1.402   .     A
C900   C902    1.413   .     A
C901   C903    1.410   .     A
C901   C834    1.409   1_655 S
C902   C904    1.412   .     A
C905   H909    1.083   .     S
C905   C819    1.386   1_655 S
C906   H910    1.083   .     S
Cu907  O924    1.973   .     S
Cu907  O917    1.967   .     S
Cu907  Cu908   2.674   .     S
Cu907  N916    2.009   .     S
Cu907  O920    1.960   .     S
Cu907  O921    1.981   .     S
Cu908  N915    2.009   .     S
Cu908  O919    1.960   .     S
Cu908  O922    1.981   .     S
Cu908  O923    1.973   .     S
Cu908  O918    1.967   .     S
H913   N99     1.029   1_556 S
N916   N99     1.305   1_556 S
N916   H98     1.029   1_556 S
N925   H926    1.046   .     S
N925   H927    1.045   .     S
N928   H930    1.046   .     S
N928   H929    1.046   .     S
O931   C932    1.421   .     S
C932   H934    1.111   .     S
C932   H933    1.116   .     S
C932   C935    1.519   .     S
C935   H938    1.110   .     S
C935   H936    1.108   .     S
C935   H1209   1.111   1_545 S
H937   C1071   1.111   .     S
O939   C940    1.421   .     S
C940   H942    1.116   .     S
C940   C943    1.519   .     S
C940   H941    1.111   .     S
C943   H944    1.110   .     S
C943   H946    1.107   .     S
C943   H1081   1.111   .     S
H945   C1215   1.111   1_545 S
N947   H949    1.046   .     S
N947   H948    1.045   .     S
N947   C1025   1.441   .     S
N950   H952    1.046   .     S
N950   H951    1.045   .     S
N950   C1162   1.441   1_545 S
C953   O985    1.283   .     A
C953   C957    1.428   .     S
C953   O987    1.282   .     A
C954   O986    1.283   .     A
C954   C958    1.428   .     S
C954   O988    1.282   .     A
C955   H979    1.081   .     S
C955   C972    1.406   .     A
C955   C1041   1.386   1_455 S
C956   H980    1.083   .     S
C956   C971    1.405   .     A
C956   C1042   1.385   .     S
C958   C1093   1.346   .     S
C958   N1154   1.441   .     S
C959   O989    1.298   .     A
C959   C964    1.468   .     S
C959   O991    1.289   .     A
C960   O990    1.300   .     A
C960   C963    1.469   .     S
C960   O992    1.287   .     A
C961   N993    1.439   .     S
C961   C963    1.422   .     A
C961   C971    1.399   .     A
C962   C964    1.416   .     A
C962   N996    1.439   .     S
C962   C972    1.405   .     A
C963   C965    1.412   .     A
C964   C966    1.410   .     A
C965   C967    1.406   .     A
C965   O999    1.390   .     S
C966   O1007   1.390   .     S
C966   C968    1.405   .     A
C967   C973    1.402   .     A
C967   C969    1.411   .     A
C968   C974    1.402   .     A
C968   C970    1.413   .     A
C969   C971    1.410   .     A
C969   C1038   1.409   .     S
C970   C972    1.412   .     A
C970   C1037   1.409   1_455 S
C973   H977    1.083   .     S
C973   C1023   1.386   .     S
C974   H978    1.083   .     S
C974   C1024   1.385   1_455 S
Cu975  O992    1.973   .     S
Cu975  O985    1.967   .     S
Cu975  Cu976   2.674   .     S
Cu975  N984    2.009   .     S
Cu975  O988    1.960   .     S
Cu975  O989    1.981   .     S
Cu976  N983    2.009   .     S
Cu976  O987    1.960   .     S
Cu976  O990    1.981   .     S
Cu976  O991    1.973   .     S
Cu976  O986    1.967   .     S
H981   N167    1.029   1_556 S
N984   N167    1.305   1_556 S
N984   H166    1.029   1_556 S
N993   H994    1.046   .     S
N993   H995    1.045   .     S
N996   H998    1.046   .     S
N996   H997    1.046   .     S
O999   C1000   1.421   .     S
C1000  H1002   1.111   .     S
C1000  H1001   1.116   .     S
C1000  C1003   1.519   .     S
C1003  H1006   1.110   .     S
C1003  H1004   1.108   .     S
H1005  C1139   1.111   .     S
O1007  C1008   1.421   .     S
C1008  H1010   1.116   .     S
C1008  C1011   1.519   .     S
C1008  H1009   1.111   .     S
C1011  H1012   1.110   .     S
C1011  H1014   1.107   .     S
C1011  H1149   1.111   .     S
N1015  H1017   1.046   .     S
N1015  H1016   1.045   .     S
N1015  C1093   1.441   .     S
N1018  H1020   1.046   .     S
N1018  H1019   1.045   .     S
C1021  O1053   1.283   .     A
C1021  C1025   1.428   .     S
C1021  O1055   1.282   .     A
C1022  O1054   1.283   .     A
C1022  C1026   1.428   .     S
C1022  O1056   1.282   .     A
C1023  H1047   1.081   .     S
C1023  C1040   1.406   .     A
C1024  H1048   1.083   .     S
C1024  C1039   1.405   .     A
C1024  C974    1.385   1_655 S
C1026  C1161   1.346   .     S
C1026  N1222   1.441   .     S
C1027  O1057   1.298   .     A
C1027  C1032   1.468   .     S
C1027  O1059   1.289   .     A
C1028  O1058   1.300   .     A
C1028  C1031   1.469   .     S
C1028  O1060   1.287   .     A
C1029  N1061   1.439   .     S
C1029  C1031   1.422   .     A
C1029  C1039   1.399   .     A
C1030  C1032   1.416   .     A
C1030  N1064   1.439   .     S
C1030  C1040   1.405   .     A
C1031  C1033   1.412   .     A
C1032  C1034   1.410   .     A
C1033  C1035   1.406   .     A
C1033  O1067   1.390   .     S
C1034  O1075   1.390   .     S
C1034  C1036   1.405   .     A
C1035  C1041   1.402   .     A
C1035  C1037   1.411   .     A
C1036  C1042   1.402   .     A
C1036  C1038   1.413   .     A
C1037  C1039   1.410   .     A
C1037  C970    1.409   1_655 S
C1038  C1040   1.412   .     A
C1041  H1045   1.083   .     S
C1041  C955    1.386   1_655 S
C1042  H1046   1.083   .     S
Cu1043 O1060   1.973   .     S
Cu1043 O1053   1.967   .     S
Cu1043 Cu1044  2.674   .     S
Cu1043 N1052   2.009   .     S
Cu1043 O1056   1.960   .     S
Cu1043 O1057   1.981   .     S
Cu1044 N1051   2.009   .     S
Cu1044 O1055   1.960   .     S
Cu1044 O1058   1.981   .     S
Cu1044 O1059   1.973   .     S
Cu1044 O1054   1.967   .     S
H1049  N235    1.029   1_556 S
N1052  N235    1.305   1_556 S
N1052  H234    1.029   1_556 S
N1061  H1062   1.046   .     S
N1061  H1063   1.045   .     S
N1064  H1066   1.046   .     S
N1064  H1065   1.046   .     S
O1067  C1068   1.421   .     S
C1068  H1070   1.111   .     S
C1068  H1069   1.116   .     S
C1068  C1071   1.519   .     S
C1071  H1074   1.110   .     S
C1071  H1072   1.108   .     S
H1073  C1207   1.111   .     S
O1075  C1076   1.421   .     S
C1076  H1078   1.116   .     S
C1076  C1079   1.519   .     S
C1076  H1077   1.111   .     S
C1079  H1080   1.110   .     S
C1079  H1082   1.107   .     S
C1079  H1217   1.111   .     S
N1083  H1085   1.046   .     S
N1083  H1084   1.045   .     S
N1083  C1161   1.441   .     S
N1086  H1088   1.046   .     S
N1086  H1087   1.045   .     S
C1089  O1121   1.283   .     A
C1089  C1093   1.428   .     S
C1089  O1123   1.282   .     A
C1090  O1122   1.283   .     A
C1090  C1094   1.428   .     S
C1090  O1124   1.282   .     A
C1091  H1115   1.081   .     S
C1091  C1108   1.406   .     A
C1091  C1177   1.386   1_455 S
C1092  H1116   1.083   .     S
C1092  C1107   1.405   .     A
C1092  C1178   1.385   .     S
C1094  C821    1.346   1_565 S
C1094  N882    1.441   1_565 S
C1095  O1125   1.298   .     A
C1095  C1100   1.468   .     S
C1095  O1127   1.289   .     A
C1096  O1126   1.300   .     A
C1096  C1099   1.469   .     S
C1096  O1128   1.287   .     A
C1097  N1129   1.439   .     S
C1097  C1099   1.422   .     A
C1097  C1107   1.399   .     A
C1098  C1100   1.416   .     A
C1098  N1132   1.439   .     S
C1098  C1108   1.405   .     A
C1099  C1101   1.412   .     A
C1100  C1102   1.410   .     A
C1101  C1103   1.406   .     A
C1101  O1135   1.390   .     S
C1102  O1143   1.390   .     S
C1102  C1104   1.405   .     A
C1103  C1109   1.402   .     A
C1103  C1105   1.411   .     A
C1104  C1110   1.402   .     A
C1104  C1106   1.413   .     A
C1105  C1107   1.410   .     A
C1105  C1174   1.409   .     S
C1106  C1108   1.412   .     A
C1106  C1173   1.409   1_455 S
C1109  H1113   1.083   .     S
C1109  C1159   1.386   .     S
C1110  H1114   1.083   .     S
C1110  C1160   1.385   1_455 S
Cu1111 O1128   1.973   .     S
Cu1111 O1121   1.967   .     S
Cu1111 Cu1112  2.674   .     S
Cu1111 N1120   2.009   .     S
Cu1111 O1124   1.960   .     S
Cu1111 O1125   1.981   .     S
Cu1112 N1119   2.009   .     S
Cu1112 O1123   1.960   .     S
Cu1112 O1126   1.981   .     S
Cu1112 O1127   1.973   .     S
Cu1112 O1122   1.967   .     S
H1117  N303    1.029   1_556 S
N1120  N303    1.305   1_556 S
N1120  H302    1.029   1_556 S
N1129  H1130   1.046   .     S
N1129  H1131   1.045   .     S
N1132  H1134   1.046   .     S
N1132  H1133   1.046   .     S
O1135  C1136   1.421   .     S
C1136  H1138   1.111   .     S
C1136  H1137   1.116   .     S
C1136  C1139   1.519   .     S
C1139  H1142   1.110   .     S
C1139  H1140   1.108   .     S
H1141  C867    1.111   1_565 S
O1143  C1144   1.421   .     S
C1144  H1146   1.116   .     S
C1144  C1147   1.519   .     S
C1144  H1145   1.111   .     S
C1147  H1148   1.110   .     S
C1147  H1150   1.107   .     S
C1147  H877    1.111   1_565 S
N1151  H1153   1.046   .     S
N1151  H1152   1.045   .     S
N1151  C821    1.441   1_565 S
N1154  H1156   1.046   .     S
N1154  H1155   1.045   .     S
C1157  O1189   1.283   .     A
C1157  C1161   1.428   .     S
C1157  O1191   1.282   .     A
C1158  O1190   1.283   .     A
C1158  C1162   1.428   .     S
C1158  O1192   1.282   .     A
C1159  H1183   1.081   .     S
C1159  C1176   1.406   .     A
C1160  H1184   1.083   .     S
C1160  C1175   1.405   .     A
C1160  C1110   1.385   1_655 S
C1162  C889    1.346   1_565 S
C1162  N950    1.441   1_565 S
C1163  O1193   1.298   .     A
C1163  C1168   1.468   .     S
C1163  O1195   1.289   .     A
C1164  O1194   1.300   .     A
C1164  C1167   1.469   .     S
C1164  O1196   1.287   .     A
C1165  N1197   1.439   .     S
C1165  C1167   1.422   .     A
C1165  C1175   1.399   .     A
C1166  C1168   1.416   .     A
C1166  N1200   1.439   .     S
C1166  C1176   1.405   .     A
C1167  C1169   1.412   .     A
C1168  C1170   1.410   .     A
C1169  C1171   1.406   .     A
C1169  O1203   1.390   .     S
C1170  O1211   1.390   .     S
C1170  C1172   1.405   .     A
C1171  C1177   1.402   .     A
C1171  C1173   1.411   .     A
C1172  C1178   1.402   .     A
C1172  C1174   1.413   .     A
C1173  C1175   1.410   .     A
C1173  C1106   1.409   1_655 S
C1174  C1176   1.412   .     A
C1177  H1181   1.083   .     S
C1177  C1091   1.386   1_655 S
C1178  H1182   1.083   .     S
Cu1179 O1196   1.973   .     S
Cu1179 O1189   1.967   .     S
Cu1179 Cu1180  2.674   .     S
Cu1179 N1188   2.009   .     S
Cu1179 O1192   1.960   .     S
Cu1179 O1193   1.981   .     S
Cu1180 N1187   2.009   .     S
Cu1180 O1191   1.960   .     S
Cu1180 O1194   1.981   .     S
Cu1180 O1195   1.973   .     S
Cu1180 O1190   1.967   .     S
H1185  N371    1.029   1_556 S
N1188  N371    1.305   1_556 S
N1188  H370    1.029   1_556 S
N1197  H1198   1.046   .     S
N1197  H1199   1.045   .     S
N1200  H1202   1.046   .     S
N1200  H1201   1.046   .     S
O1203  C1204   1.421   .     S
C1204  H1206   1.111   .     S
C1204  H1205   1.116   .     S
C1204  C1207   1.519   .     S
C1207  H1210   1.110   .     S
C1207  H1208   1.108   .     S
H1209  C935    1.111   1_565 S
O1211  C1212   1.421   .     S
C1212  H1214   1.116   .     S
C1212  C1215   1.519   .     S
C1212  H1213   1.111   .     S
C1215  H1216   1.110   .     S
C1215  H1218   1.107   .     S
C1215  H945    1.111   1_565 S
N1219  H1221   1.046   .     S
N1219  H1220   1.045   .     S
N1219  C889    1.441   1_565 S
N1222  H1224   1.046   .     S
N1222  H1223   1.045   .     S
