data_str_m3_o1_o16_pcu_sym.16
_audit_creation_date              2020-01-03
_audit_creation_method            'Materials Studio'
_symmetry_space_group_name_H-M    'P1'
_symmetry_Int_Tables_number       1
_symmetry_cell_setting            triclinic
loop_
_symmetry_equiv_pos_as_xyz
  x,y,z
_cell_length_a                    30.0183
_cell_length_b                    31.9481
_cell_length_c                    26.3623
_cell_angle_alpha                 93.2938
_cell_angle_beta                  67.7410
_cell_angle_gamma                 87.5054
loop_
_atom_site_label
_atom_site_type_symbol
_atom_site_fract_x
_atom_site_fract_y
_atom_site_fract_z
_atom_site_U_iso_or_equiv
_atom_site_adp_type
_atom_site_occupancy
C1     C     0.16796   0.24599   0.24364   0.00000  Uiso   1.00
C2     C     0.12174   0.16570   0.41321   0.00000  Uiso   1.00
C3     C     0.21440   0.30844   0.21344   0.00000  Uiso   1.00
C4     C     0.13937   0.16538   0.35257   0.00000  Uiso   1.00
C5     C     0.21300   0.01873   0.22174   0.00000  Uiso   1.00
C6     C     0.16863   0.04171   0.24923   0.00000  Uiso   1.00
C7     C     0.12499   0.02197   0.26564   0.00000  Uiso   1.00
C8     C     0.12671   0.31410   0.24539   0.00000  Uiso   1.00
C9     C     0.17004   0.28963   0.23179   0.00000  Uiso   1.00
C10    C     0.32020   0.13443   0.22176   0.00000  Uiso   1.00
C11    C     0.03463   0.13390   0.22344   0.00000  Uiso   1.00
C12    C     0.15264   0.17424   0.48625   0.00000  Uiso   1.00
C13    C     0.01328   0.19896   0.27654   0.00000  Uiso   1.00
C14    C     0.29785   0.19763   0.27944   0.00000  Uiso   1.00
C15    C     0.16706   0.08662   0.25117   0.00000  Uiso   1.00
C16    C     0.19423   0.16626   0.14714   0.00000  Uiso   1.00
C17    C     0.26191   0.12297   0.49944   0.00000  Uiso   1.00
C18    C     0.21245   0.16224   0.08627   0.00000  Uiso   1.00
C19    C     0.07993   0.19070   0.44586   0.00000  Uiso   1.00
C20    C     0.07984   0.21489   0.49203   0.00000  Uiso   1.00
C21    C     0.11696   0.20762   0.01071   0.00000  Uiso   1.00
C22    C     0.32170   0.15955   0.07744   0.00000  Uiso   1.00
C23    C     0.15458   0.15259   0.43696   0.00000  Uiso   1.00
C24    C     0.10100   0.28516   0.17452   0.00000  Uiso   1.00
C25    C     0.00528   0.07433   0.14812   0.00000  Uiso   1.00
C26    C     0.10439   0.09546   0.14799   0.00000  Uiso   1.00
C27    C     0.01648   0.24181   0.35440   0.00000  Uiso   1.00
C28    C     0.25708   0.26879   0.31143   0.00000  Uiso   1.00
C29    C     0.30138   0.05273   0.48069   0.00000  Uiso   1.00
C30    C     0.30394   0.30216   0.16232   0.00000  Uiso   1.00
C31    C     0.18700   0.16243   0.00870   0.00000  Uiso   1.00
C32    C     0.22600   0.13270   0.47871   0.00000  Uiso   1.00
C33    C     0.22611   0.11071   0.43123   0.00000  Uiso   1.00
C34    C     0.18945   0.11857   0.41226   0.00000  Uiso   1.00
C35    C     0.18090   0.17644   0.06245   0.00000  Uiso   1.00
C36    C     0.25547   0.13867   0.05270   0.00000  Uiso   1.00
H37    H     0.24565   0.03506   0.20656   0.00000  Uiso   1.00
H38    H     0.05494   0.02239   0.32017   0.00000  Uiso   1.00
H39    H     0.05719   0.31930   0.24562   0.00000  Uiso   1.00
H40    H     0.11096   0.31213   0.14856   0.00000  Uiso   1.00
H41    H     0.06979   0.27100   0.16931   0.00000  Uiso   1.00
H42    H     0.13152   0.26077   0.16021   0.00000  Uiso   1.00
H43    H     0.27696   0.11152   0.18548   0.00000  Uiso   1.00
H44    H     0.31827   0.05712   0.12725   0.00000  Uiso   1.00
H45    H     0.02341   0.04926   0.16199   0.00000  Uiso   1.00
H46    H     0.03038   0.09326   0.11731   0.00000  Uiso   1.00
H47    H     0.05562   0.06969   0.21934   0.00000  Uiso   1.00
H48    H     0.25278   0.08516   0.41016   0.00000  Uiso   1.00
H49    H     0.10175   0.06713   0.12325   0.00000  Uiso   1.00
H50    H     0.14055   0.09167   0.14987   0.00000  Uiso   1.00
H51    H     0.10164   0.12377   0.12644   0.00000  Uiso   1.00
H52    H     0.01771   0.26226   0.28136   0.00000  Uiso   1.00
H53    H     0.32723   0.21695   0.37660   0.00000  Uiso   1.00
H54    H     0.32970   0.27269   0.37164   0.00000  Uiso   1.00
H55    H     0.05080   0.24223   0.36095   0.00000  Uiso   1.00
H56    H     0.25211   0.21779   0.35932   0.00000  Uiso   1.00
H57    H     0.26806   0.28727   0.34110   0.00000  Uiso   1.00
H58    H     0.21919   0.27946   0.31954   0.00000  Uiso   1.00
H59    H     0.14877   0.19507   0.08884   0.00000  Uiso   1.00
H60    H     0.28023   0.27537   0.26915   0.00000  Uiso   1.00
H61    H     0.31808   0.09993   0.42656   0.00000  Uiso   1.00
H62    H     0.27264   0.03827   0.47022   0.00000  Uiso   1.00
H63    H     0.00311   0.03511   0.45625   0.00000  Uiso   1.00
H64    H     0.29382   0.05001   0.02494   0.00000  Uiso   1.00
H65    H     0.02889   0.15997   0.43070   0.00000  Uiso   1.00
H66    H     0.00875   0.20761   0.46235   0.00000  Uiso   1.00
H67    H     0.06051   0.27652   0.01439   0.00000  Uiso   1.00
H68    H     0.02807   0.24387   0.06008   0.00000  Uiso   1.00
H69    H     0.21954   0.08755   0.33690   0.00000  Uiso   1.00
H70    H     0.11678   0.22849   0.04448   0.00000  Uiso   1.00
H71    H     0.18016   0.06048   0.38508   0.00000  Uiso   1.00
H72    H     0.25569   0.25751   0.16074   0.00000  Uiso   1.00
H73    H     0.00034   0.27715   0.14761   0.00000  Uiso   1.00
H74    H     0.30973   0.32256   0.19448   0.00000  Uiso   1.00
H75    H     0.30505   0.31996   0.12701   0.00000  Uiso   1.00
H76    H     0.27863   0.10832   0.10492   0.00000  Uiso   1.00
H77    H     0.02661   0.14831   0.05401   0.00000  Uiso   1.00
H78    H     0.31650   0.16708   0.12099   0.00000  Uiso   1.00
H79    H     0.31376   0.18881   0.06075   0.00000  Uiso   1.00
H80    H     0.08534   0.06017   0.33312   0.00000  Uiso   1.00
N81    N     0.04760   0.16668   0.25002   0.00000  Uiso   1.00
N82    N     0.30402   0.09630   0.46817   0.00000  Uiso   1.00
N83    N     0.03838   0.19095   0.43176   0.00000  Uiso   1.00
N84    N     0.04351   0.24833   0.01823   0.00000  Uiso   1.00
N85    N     0.18613   0.09013   0.36991   0.00000  Uiso   1.00
N86    N     0.25849   0.28306   0.18486   0.00000  Uiso   1.00
N87    N     0.28573   0.16665   0.25000   0.00000  Uiso   1.00
N88    N     0.29102   0.12700   0.07302   0.00000  Uiso   1.00
N89    N     0.07976   0.04401   0.30061   0.00000  Uiso   1.00
N90    N     0.08806   0.29939   0.23185   0.00000  Uiso   1.00
N91    N     0.30546   0.10111   0.19431   0.00000  Uiso   1.00
N92    N     0.06731   0.09762   0.20309   0.00000  Uiso   1.00
N93    N     0.02777   0.23602   0.29612   0.00000  Uiso   1.00
N94    N     0.25992   0.22439   0.31915   0.00000  Uiso   1.00
O95    O     0.12846   0.22775   0.25001   0.00000  Uiso   1.00
O96    O     0.20490   0.22774   0.25001   0.00000  Uiso   1.00
O97    O     0.10947   0.16666   0.32681   0.00000  Uiso   1.00
O98    O     0.18591   0.16665   0.32681   0.00000  Uiso   1.00
O99    O     0.12843   0.10559   0.25000   0.00000  Uiso   1.00
O100   O     0.20488   0.10558   0.25000   0.00000  Uiso   1.00
O101   O     0.14742   0.16668   0.17319   0.00000  Uiso   1.00
O102   O     0.22387   0.16667   0.17319   0.00000  Uiso   1.00
Zn103  Zn    0.11562   0.16667   0.25000   0.00000  Uiso   1.00
Zn104  Zn    0.21771   0.16666   0.25000   0.00000  Uiso   1.00
C105   C     0.50129   0.24599   0.24364   0.00000  Uiso   1.00
C106   C     0.45507   0.16570   0.41321   0.00000  Uiso   1.00
C107   C     0.54773   0.30844   0.21344   0.00000  Uiso   1.00
C108   C     0.47270   0.16538   0.35257   0.00000  Uiso   1.00
C109   C     0.54633   0.01873   0.22174   0.00000  Uiso   1.00
C110   C     0.50196   0.04171   0.24923   0.00000  Uiso   1.00
C111   C     0.45832   0.02197   0.26564   0.00000  Uiso   1.00
C112   C     0.46004   0.31410   0.24539   0.00000  Uiso   1.00
C113   C     0.50337   0.28963   0.23179   0.00000  Uiso   1.00
C114   C     0.65354   0.13443   0.22176   0.00000  Uiso   1.00
C115   C     0.36796   0.13390   0.22344   0.00000  Uiso   1.00
C116   C     0.48598   0.17424   0.48625   0.00000  Uiso   1.00
C117   C     0.34661   0.19896   0.27654   0.00000  Uiso   1.00
C118   C     0.63119   0.19763   0.27944   0.00000  Uiso   1.00
C119   C     0.50039   0.08662   0.25117   0.00000  Uiso   1.00
C120   C     0.52756   0.16626   0.14714   0.00000  Uiso   1.00
C121   C     0.59524   0.12297   0.49944   0.00000  Uiso   1.00
C122   C     0.54578   0.16224   0.08627   0.00000  Uiso   1.00
C123   C     0.41326   0.19070   0.44586   0.00000  Uiso   1.00
C124   C     0.41318   0.21489   0.49203   0.00000  Uiso   1.00
C125   C     0.45030   0.20762   0.01071   0.00000  Uiso   1.00
C126   C     0.65504   0.15955   0.07744   0.00000  Uiso   1.00
C127   C     0.48791   0.15259   0.43696   0.00000  Uiso   1.00
C128   C     0.43433   0.28516   0.17452   0.00000  Uiso   1.00
C129   C     0.33861   0.07433   0.14812   0.00000  Uiso   1.00
C130   C     0.43772   0.09546   0.14799   0.00000  Uiso   1.00
C131   C     0.34981   0.24181   0.35440   0.00000  Uiso   1.00
C132   C     0.59041   0.26879   0.31143   0.00000  Uiso   1.00
C133   C     0.63471   0.05273   0.48069   0.00000  Uiso   1.00
C134   C     0.63727   0.30216   0.16232   0.00000  Uiso   1.00
C135   C     0.52034   0.16243   0.00870   0.00000  Uiso   1.00
C136   C     0.55933   0.13270   0.47871   0.00000  Uiso   1.00
C137   C     0.55944   0.11071   0.43123   0.00000  Uiso   1.00
C138   C     0.52278   0.11857   0.41226   0.00000  Uiso   1.00
C139   C     0.51424   0.17644   0.06245   0.00000  Uiso   1.00
C140   C     0.58880   0.13867   0.05270   0.00000  Uiso   1.00
H141   H     0.57898   0.03506   0.20656   0.00000  Uiso   1.00
H142   H     0.38827   0.02239   0.32017   0.00000  Uiso   1.00
H143   H     0.39053   0.31930   0.24562   0.00000  Uiso   1.00
H144   H     0.44429   0.31213   0.14856   0.00000  Uiso   1.00
H145   H     0.40312   0.27100   0.16931   0.00000  Uiso   1.00
H146   H     0.46486   0.26077   0.16021   0.00000  Uiso   1.00
H147   H     0.61029   0.11152   0.18548   0.00000  Uiso   1.00
H148   H     0.65160   0.05712   0.12725   0.00000  Uiso   1.00
H149   H     0.35675   0.04926   0.16199   0.00000  Uiso   1.00
H150   H     0.36371   0.09326   0.11731   0.00000  Uiso   1.00
H151   H     0.38896   0.06969   0.21934   0.00000  Uiso   1.00
H152   H     0.58611   0.08516   0.41016   0.00000  Uiso   1.00
H153   H     0.43508   0.06713   0.12325   0.00000  Uiso   1.00
H154   H     0.47389   0.09167   0.14987   0.00000  Uiso   1.00
H155   H     0.43497   0.12377   0.12644   0.00000  Uiso   1.00
H156   H     0.35104   0.26226   0.28136   0.00000  Uiso   1.00
H157   H     0.66057   0.21695   0.37660   0.00000  Uiso   1.00
H158   H     0.66303   0.27269   0.37164   0.00000  Uiso   1.00
H159   H     0.38413   0.24223   0.36095   0.00000  Uiso   1.00
H160   H     0.58545   0.21779   0.35932   0.00000  Uiso   1.00
H161   H     0.60139   0.28727   0.34110   0.00000  Uiso   1.00
H162   H     0.55252   0.27946   0.31954   0.00000  Uiso   1.00
H163   H     0.48210   0.19507   0.08884   0.00000  Uiso   1.00
H164   H     0.61356   0.27537   0.26915   0.00000  Uiso   1.00
H165   H     0.65142   0.09993   0.42656   0.00000  Uiso   1.00
H166   H     0.60597   0.03827   0.47022   0.00000  Uiso   1.00
H167   H     0.33645   0.03511   0.45625   0.00000  Uiso   1.00
H168   H     0.62715   0.05001   0.02494   0.00000  Uiso   1.00
H169   H     0.36223   0.15997   0.43070   0.00000  Uiso   1.00
H170   H     0.34208   0.20761   0.46235   0.00000  Uiso   1.00
H171   H     0.39385   0.27652   0.01439   0.00000  Uiso   1.00
H172   H     0.36141   0.24387   0.06008   0.00000  Uiso   1.00
H173   H     0.55288   0.08755   0.33690   0.00000  Uiso   1.00
H174   H     0.45011   0.22849   0.04448   0.00000  Uiso   1.00
H175   H     0.51350   0.06048   0.38508   0.00000  Uiso   1.00
H176   H     0.58903   0.25751   0.16074   0.00000  Uiso   1.00
H177   H     0.33367   0.27715   0.14761   0.00000  Uiso   1.00
H178   H     0.64306   0.32256   0.19448   0.00000  Uiso   1.00
H179   H     0.63838   0.31996   0.12701   0.00000  Uiso   1.00
H180   H     0.61196   0.10832   0.10492   0.00000  Uiso   1.00
H181   H     0.35995   0.14831   0.05401   0.00000  Uiso   1.00
H182   H     0.64984   0.16708   0.12099   0.00000  Uiso   1.00
H183   H     0.64710   0.18881   0.06075   0.00000  Uiso   1.00
H184   H     0.41868   0.06017   0.33312   0.00000  Uiso   1.00
N185   N     0.38093   0.16668   0.25002   0.00000  Uiso   1.00
N186   N     0.63735   0.09630   0.46817   0.00000  Uiso   1.00
N187   N     0.37172   0.19095   0.43176   0.00000  Uiso   1.00
N188   N     0.37684   0.24833   0.01823   0.00000  Uiso   1.00
N189   N     0.51946   0.09013   0.36991   0.00000  Uiso   1.00
N190   N     0.59183   0.28306   0.18486   0.00000  Uiso   1.00
N191   N     0.61906   0.16665   0.25000   0.00000  Uiso   1.00
N192   N     0.62436   0.12700   0.07302   0.00000  Uiso   1.00
N193   N     0.41310   0.04401   0.30061   0.00000  Uiso   1.00
N194   N     0.42139   0.29939   0.23185   0.00000  Uiso   1.00
N195   N     0.63879   0.10111   0.19431   0.00000  Uiso   1.00
N196   N     0.40065   0.09762   0.20309   0.00000  Uiso   1.00
N197   N     0.36111   0.23602   0.29612   0.00000  Uiso   1.00
N198   N     0.59325   0.22439   0.31915   0.00000  Uiso   1.00
O199   O     0.46179   0.22775   0.25001   0.00000  Uiso   1.00
O200   O     0.53823   0.22774   0.25001   0.00000  Uiso   1.00
O201   O     0.44280   0.16666   0.32681   0.00000  Uiso   1.00
O202   O     0.51924   0.16665   0.32681   0.00000  Uiso   1.00
O203   O     0.46177   0.10559   0.25000   0.00000  Uiso   1.00
O204   O     0.53821   0.10558   0.25000   0.00000  Uiso   1.00
O205   O     0.48076   0.16668   0.17319   0.00000  Uiso   1.00
O206   O     0.55720   0.16667   0.17319   0.00000  Uiso   1.00
Zn207  Zn    0.44896   0.16667   0.25000   0.00000  Uiso   1.00
Zn208  Zn    0.55104   0.16666   0.25000   0.00000  Uiso   1.00
C209   C     0.83462   0.24599   0.24364   0.00000  Uiso   1.00
C210   C     0.78840   0.16570   0.41321   0.00000  Uiso   1.00
C211   C     0.88107   0.30844   0.21344   0.00000  Uiso   1.00
C212   C     0.80603   0.16538   0.35257   0.00000  Uiso   1.00
C213   C     0.87967   0.01873   0.22174   0.00000  Uiso   1.00
C214   C     0.83530   0.04171   0.24923   0.00000  Uiso   1.00
C215   C     0.79166   0.02197   0.26564   0.00000  Uiso   1.00
C216   C     0.79337   0.31410   0.24539   0.00000  Uiso   1.00
C217   C     0.83671   0.28963   0.23179   0.00000  Uiso   1.00
C218   C     0.98687   0.13443   0.22176   0.00000  Uiso   1.00
C219   C     0.70130   0.13390   0.22344   0.00000  Uiso   1.00
C220   C     0.81931   0.17424   0.48625   0.00000  Uiso   1.00
C221   C     0.67995   0.19896   0.27654   0.00000  Uiso   1.00
C222   C     0.96452   0.19763   0.27944   0.00000  Uiso   1.00
C223   C     0.83372   0.08662   0.25117   0.00000  Uiso   1.00
C224   C     0.86090   0.16626   0.14714   0.00000  Uiso   1.00
C225   C     0.92858   0.12297   0.49944   0.00000  Uiso   1.00
C226   C     0.87912   0.16224   0.08627   0.00000  Uiso   1.00
C227   C     0.74659   0.19070   0.44586   0.00000  Uiso   1.00
C228   C     0.74651   0.21489   0.49203   0.00000  Uiso   1.00
C229   C     0.78363   0.20762   0.01071   0.00000  Uiso   1.00
C230   C     0.98837   0.15955   0.07744   0.00000  Uiso   1.00
C231   C     0.82124   0.15259   0.43696   0.00000  Uiso   1.00
C232   C     0.76767   0.28516   0.17452   0.00000  Uiso   1.00
C233   C     0.67194   0.07433   0.14812   0.00000  Uiso   1.00
C234   C     0.77105   0.09546   0.14799   0.00000  Uiso   1.00
C235   C     0.68315   0.24181   0.35440   0.00000  Uiso   1.00
C236   C     0.92375   0.26879   0.31143   0.00000  Uiso   1.00
C237   C     0.96804   0.05273   0.48069   0.00000  Uiso   1.00
C238   C     0.97061   0.30216   0.16232   0.00000  Uiso   1.00
C239   C     0.85367   0.16243   0.00870   0.00000  Uiso   1.00
C240   C     0.89266   0.13270   0.47871   0.00000  Uiso   1.00
C241   C     0.89277   0.11071   0.43123   0.00000  Uiso   1.00
C242   C     0.85611   0.11857   0.41226   0.00000  Uiso   1.00
C243   C     0.84757   0.17644   0.06245   0.00000  Uiso   1.00
C244   C     0.92213   0.13867   0.05270   0.00000  Uiso   1.00
H245   H     0.91231   0.03506   0.20656   0.00000  Uiso   1.00
H246   H     0.72161   0.02239   0.32017   0.00000  Uiso   1.00
H247   H     0.72386   0.31930   0.24562   0.00000  Uiso   1.00
H248   H     0.77763   0.31213   0.14856   0.00000  Uiso   1.00
H249   H     0.73645   0.27100   0.16931   0.00000  Uiso   1.00
H250   H     0.79819   0.26077   0.16021   0.00000  Uiso   1.00
H251   H     0.94362   0.11152   0.18548   0.00000  Uiso   1.00
H252   H     0.98494   0.05712   0.12725   0.00000  Uiso   1.00
H253   H     0.69008   0.04926   0.16199   0.00000  Uiso   1.00
H254   H     0.69705   0.09326   0.11731   0.00000  Uiso   1.00
H255   H     0.72229   0.06969   0.21934   0.00000  Uiso   1.00
H256   H     0.91944   0.08516   0.41016   0.00000  Uiso   1.00
H257   H     0.76842   0.06713   0.12325   0.00000  Uiso   1.00
H258   H     0.80722   0.09167   0.14987   0.00000  Uiso   1.00
H259   H     0.76831   0.12377   0.12644   0.00000  Uiso   1.00
H260   H     0.68437   0.26226   0.28136   0.00000  Uiso   1.00
H261   H     0.99390   0.21695   0.37660   0.00000  Uiso   1.00
H262   H     0.99636   0.27269   0.37164   0.00000  Uiso   1.00
H263   H     0.71747   0.24223   0.36095   0.00000  Uiso   1.00
H264   H     0.91878   0.21779   0.35932   0.00000  Uiso   1.00
H265   H     0.93472   0.28727   0.34110   0.00000  Uiso   1.00
H266   H     0.88585   0.27946   0.31954   0.00000  Uiso   1.00
H267   H     0.81543   0.19507   0.08884   0.00000  Uiso   1.00
H268   H     0.94690   0.27537   0.26915   0.00000  Uiso   1.00
H269   H     0.98475   0.09993   0.42656   0.00000  Uiso   1.00
H270   H     0.93930   0.03827   0.47022   0.00000  Uiso   1.00
H271   H     0.66978   0.03511   0.45625   0.00000  Uiso   1.00
H272   H     0.96048   0.05001   0.02494   0.00000  Uiso   1.00
H273   H     0.69556   0.15997   0.43070   0.00000  Uiso   1.00
H274   H     0.67542   0.20761   0.46235   0.00000  Uiso   1.00
H275   H     0.72718   0.27652   0.01439   0.00000  Uiso   1.00
H276   H     0.69474   0.24387   0.06008   0.00000  Uiso   1.00
H277   H     0.88621   0.08755   0.33690   0.00000  Uiso   1.00
H278   H     0.78345   0.22849   0.04448   0.00000  Uiso   1.00
H279   H     0.84683   0.06048   0.38508   0.00000  Uiso   1.00
H280   H     0.92236   0.25751   0.16074   0.00000  Uiso   1.00
H281   H     0.66700   0.27715   0.14761   0.00000  Uiso   1.00
H282   H     0.97639   0.32256   0.19448   0.00000  Uiso   1.00
H283   H     0.97172   0.31996   0.12701   0.00000  Uiso   1.00
H284   H     0.94529   0.10832   0.10492   0.00000  Uiso   1.00
H285   H     0.69328   0.14831   0.05401   0.00000  Uiso   1.00
H286   H     0.98317   0.16708   0.12099   0.00000  Uiso   1.00
H287   H     0.98043   0.18881   0.06075   0.00000  Uiso   1.00
H288   H     0.75201   0.06017   0.33312   0.00000  Uiso   1.00
N289   N     0.71426   0.16668   0.25002   0.00000  Uiso   1.00
N290   N     0.97069   0.09630   0.46817   0.00000  Uiso   1.00
N291   N     0.70505   0.19095   0.43176   0.00000  Uiso   1.00
N292   N     0.71017   0.24833   0.01823   0.00000  Uiso   1.00
N293   N     0.85280   0.09013   0.36991   0.00000  Uiso   1.00
N294   N     0.92516   0.28306   0.18486   0.00000  Uiso   1.00
N295   N     0.95239   0.16665   0.25000   0.00000  Uiso   1.00
N296   N     0.95769   0.12700   0.07302   0.00000  Uiso   1.00
N297   N     0.74643   0.04401   0.30061   0.00000  Uiso   1.00
N298   N     0.75472   0.29939   0.23185   0.00000  Uiso   1.00
N299   N     0.97213   0.10111   0.19431   0.00000  Uiso   1.00
N300   N     0.73398   0.09762   0.20309   0.00000  Uiso   1.00
N301   N     0.69444   0.23602   0.29612   0.00000  Uiso   1.00
N302   N     0.92659   0.22439   0.31915   0.00000  Uiso   1.00
O303   O     0.79512   0.22775   0.25001   0.00000  Uiso   1.00
O304   O     0.87157   0.22774   0.25001   0.00000  Uiso   1.00
O305   O     0.77613   0.16666   0.32681   0.00000  Uiso   1.00
O306   O     0.85258   0.16665   0.32681   0.00000  Uiso   1.00
O307   O     0.79510   0.10559   0.25000   0.00000  Uiso   1.00
O308   O     0.87154   0.10558   0.25000   0.00000  Uiso   1.00
O309   O     0.81409   0.16668   0.17319   0.00000  Uiso   1.00
O310   O     0.89053   0.16667   0.17319   0.00000  Uiso   1.00
Zn311  Zn    0.78229   0.16667   0.25000   0.00000  Uiso   1.00
Zn312  Zn    0.88438   0.16666   0.25000   0.00000  Uiso   1.00
C313   C     0.16796   0.57932   0.24364   0.00000  Uiso   1.00
C314   C     0.12174   0.49903   0.41321   0.00000  Uiso   1.00
C315   C     0.21440   0.64178   0.21344   0.00000  Uiso   1.00
C316   C     0.13937   0.49871   0.35257   0.00000  Uiso   1.00
C317   C     0.21300   0.35207   0.22174   0.00000  Uiso   1.00
C318   C     0.16863   0.37505   0.24923   0.00000  Uiso   1.00
C319   C     0.12499   0.35530   0.26564   0.00000  Uiso   1.00
C320   C     0.12671   0.64744   0.24539   0.00000  Uiso   1.00
C321   C     0.17004   0.62297   0.23179   0.00000  Uiso   1.00
C322   C     0.32020   0.46777   0.22176   0.00000  Uiso   1.00
C323   C     0.03463   0.46723   0.22344   0.00000  Uiso   1.00
C324   C     0.15264   0.50757   0.48625   0.00000  Uiso   1.00
C325   C     0.01328   0.53229   0.27654   0.00000  Uiso   1.00
C326   C     0.29785   0.53096   0.27944   0.00000  Uiso   1.00
C327   C     0.16706   0.41996   0.25117   0.00000  Uiso   1.00
C328   C     0.19423   0.49960   0.14714   0.00000  Uiso   1.00
C329   C     0.26191   0.45630   0.49944   0.00000  Uiso   1.00
C330   C     0.21245   0.49557   0.08627   0.00000  Uiso   1.00
C331   C     0.07993   0.52403   0.44586   0.00000  Uiso   1.00
C332   C     0.07984   0.54822   0.49203   0.00000  Uiso   1.00
C333   C     0.11696   0.54096   0.01071   0.00000  Uiso   1.00
C334   C     0.32170   0.49289   0.07744   0.00000  Uiso   1.00
C335   C     0.15458   0.48592   0.43696   0.00000  Uiso   1.00
C336   C     0.10100   0.61849   0.17452   0.00000  Uiso   1.00
C337   C     0.00528   0.40766   0.14812   0.00000  Uiso   1.00
C338   C     0.10439   0.42879   0.14799   0.00000  Uiso   1.00
C339   C     0.01648   0.57515   0.35440   0.00000  Uiso   1.00
C340   C     0.25708   0.60212   0.31143   0.00000  Uiso   1.00
C341   C     0.30138   0.38606   0.48069   0.00000  Uiso   1.00
C342   C     0.30394   0.63549   0.16232   0.00000  Uiso   1.00
C343   C     0.18700   0.49576   0.00870   0.00000  Uiso   1.00
C344   C     0.22600   0.46603   0.47871   0.00000  Uiso   1.00
C345   C     0.22611   0.44404   0.43123   0.00000  Uiso   1.00
C346   C     0.18945   0.45190   0.41226   0.00000  Uiso   1.00
C347   C     0.18090   0.50978   0.06245   0.00000  Uiso   1.00
C348   C     0.25547   0.47200   0.05270   0.00000  Uiso   1.00
H349   H     0.24565   0.36839   0.20656   0.00000  Uiso   1.00
H350   H     0.05494   0.35572   0.32017   0.00000  Uiso   1.00
H351   H     0.05719   0.65263   0.24562   0.00000  Uiso   1.00
H352   H     0.11096   0.64547   0.14856   0.00000  Uiso   1.00
H353   H     0.06979   0.60433   0.16931   0.00000  Uiso   1.00
H354   H     0.13152   0.59411   0.16021   0.00000  Uiso   1.00
H355   H     0.27696   0.44485   0.18548   0.00000  Uiso   1.00
H356   H     0.31827   0.39045   0.12725   0.00000  Uiso   1.00
H357   H     0.02341   0.38260   0.16199   0.00000  Uiso   1.00
H358   H     0.03038   0.42660   0.11731   0.00000  Uiso   1.00
H359   H     0.05562   0.40303   0.21934   0.00000  Uiso   1.00
H360   H     0.25278   0.41850   0.41016   0.00000  Uiso   1.00
H361   H     0.10175   0.40046   0.12325   0.00000  Uiso   1.00
H362   H     0.14055   0.42500   0.14987   0.00000  Uiso   1.00
H363   H     0.10164   0.45710   0.12644   0.00000  Uiso   1.00
H364   H     0.01771   0.59559   0.28136   0.00000  Uiso   1.00
H365   H     0.32723   0.55028   0.37660   0.00000  Uiso   1.00
H366   H     0.32970   0.60603   0.37164   0.00000  Uiso   1.00
H367   H     0.05080   0.57556   0.36095   0.00000  Uiso   1.00
H368   H     0.25211   0.55113   0.35932   0.00000  Uiso   1.00
H369   H     0.26806   0.62061   0.34110   0.00000  Uiso   1.00
H370   H     0.21919   0.61279   0.31954   0.00000  Uiso   1.00
H371   H     0.14877   0.52840   0.08884   0.00000  Uiso   1.00
H372   H     0.28023   0.60870   0.26915   0.00000  Uiso   1.00
H373   H     0.31808   0.43326   0.42656   0.00000  Uiso   1.00
H374   H     0.27264   0.37161   0.47022   0.00000  Uiso   1.00
H375   H     0.00311   0.36844   0.45625   0.00000  Uiso   1.00
H376   H     0.29382   0.38334   0.02494   0.00000  Uiso   1.00
H377   H     0.02889   0.49330   0.43070   0.00000  Uiso   1.00
H378   H     0.00875   0.54094   0.46235   0.00000  Uiso   1.00
H379   H     0.06051   0.60985   0.01439   0.00000  Uiso   1.00
H380   H     0.02807   0.57720   0.06008   0.00000  Uiso   1.00
H381   H     0.21954   0.42088   0.33690   0.00000  Uiso   1.00
H382   H     0.11678   0.56182   0.04448   0.00000  Uiso   1.00
H383   H     0.18016   0.39381   0.38508   0.00000  Uiso   1.00
H384   H     0.25569   0.59084   0.16074   0.00000  Uiso   1.00
H385   H     0.00034   0.61048   0.14761   0.00000  Uiso   1.00
H386   H     0.30973   0.65589   0.19448   0.00000  Uiso   1.00
H387   H     0.30505   0.65329   0.12701   0.00000  Uiso   1.00
H388   H     0.27863   0.44165   0.10492   0.00000  Uiso   1.00
H389   H     0.02661   0.48164   0.05401   0.00000  Uiso   1.00
H390   H     0.31650   0.50041   0.12099   0.00000  Uiso   1.00
H391   H     0.31376   0.52214   0.06075   0.00000  Uiso   1.00
H392   H     0.08534   0.39351   0.33312   0.00000  Uiso   1.00
N393   N     0.04760   0.50001   0.25002   0.00000  Uiso   1.00
N394   N     0.30402   0.42963   0.46817   0.00000  Uiso   1.00
N395   N     0.03838   0.52428   0.43176   0.00000  Uiso   1.00
N396   N     0.04351   0.58166   0.01823   0.00000  Uiso   1.00
N397   N     0.18613   0.42346   0.36991   0.00000  Uiso   1.00
N398   N     0.25849   0.61640   0.18486   0.00000  Uiso   1.00
N399   N     0.28573   0.49998   0.25000   0.00000  Uiso   1.00
N400   N     0.29102   0.46033   0.07302   0.00000  Uiso   1.00
N401   N     0.07976   0.37735   0.30061   0.00000  Uiso   1.00
N402   N     0.08806   0.63273   0.23185   0.00000  Uiso   1.00
N403   N     0.30546   0.43444   0.19431   0.00000  Uiso   1.00
N404   N     0.06731   0.43096   0.20309   0.00000  Uiso   1.00
N405   N     0.02777   0.56935   0.29612   0.00000  Uiso   1.00
N406   N     0.25992   0.55773   0.31915   0.00000  Uiso   1.00
O407   O     0.12846   0.56108   0.25001   0.00000  Uiso   1.00
O408   O     0.20490   0.56107   0.25001   0.00000  Uiso   1.00
O409   O     0.10947   0.50000   0.32681   0.00000  Uiso   1.00
O410   O     0.18591   0.49999   0.32681   0.00000  Uiso   1.00
O411   O     0.12843   0.43893   0.25000   0.00000  Uiso   1.00
O412   O     0.20488   0.43892   0.25000   0.00000  Uiso   1.00
O413   O     0.14742   0.50001   0.17319   0.00000  Uiso   1.00
O414   O     0.22387   0.50000   0.17319   0.00000  Uiso   1.00
Zn415  Zn    0.11562   0.50001   0.25000   0.00000  Uiso   1.00
Zn416  Zn    0.21771   0.49999   0.25000   0.00000  Uiso   1.00
C417   C     0.50129   0.57932   0.24364   0.00000  Uiso   1.00
C418   C     0.45507   0.49903   0.41321   0.00000  Uiso   1.00
C419   C     0.54773   0.64178   0.21344   0.00000  Uiso   1.00
C420   C     0.47270   0.49871   0.35257   0.00000  Uiso   1.00
C421   C     0.54633   0.35207   0.22174   0.00000  Uiso   1.00
C422   C     0.50196   0.37505   0.24923   0.00000  Uiso   1.00
C423   C     0.45832   0.35530   0.26564   0.00000  Uiso   1.00
C424   C     0.46004   0.64744   0.24539   0.00000  Uiso   1.00
C425   C     0.50337   0.62297   0.23179   0.00000  Uiso   1.00
C426   C     0.65354   0.46777   0.22176   0.00000  Uiso   1.00
C427   C     0.36796   0.46723   0.22344   0.00000  Uiso   1.00
C428   C     0.48598   0.50757   0.48625   0.00000  Uiso   1.00
C429   C     0.34661   0.53229   0.27654   0.00000  Uiso   1.00
C430   C     0.63119   0.53096   0.27944   0.00000  Uiso   1.00
C431   C     0.50039   0.41996   0.25117   0.00000  Uiso   1.00
C432   C     0.52756   0.49960   0.14714   0.00000  Uiso   1.00
C433   C     0.59524   0.45630   0.49944   0.00000  Uiso   1.00
C434   C     0.54578   0.49557   0.08627   0.00000  Uiso   1.00
C435   C     0.41326   0.52403   0.44586   0.00000  Uiso   1.00
C436   C     0.41318   0.54822   0.49203   0.00000  Uiso   1.00
C437   C     0.45030   0.54096   0.01071   0.00000  Uiso   1.00
C438   C     0.65504   0.49289   0.07744   0.00000  Uiso   1.00
C439   C     0.48791   0.48592   0.43696   0.00000  Uiso   1.00
C440   C     0.43433   0.61849   0.17452   0.00000  Uiso   1.00
C441   C     0.33861   0.40766   0.14812   0.00000  Uiso   1.00
C442   C     0.43772   0.42879   0.14799   0.00000  Uiso   1.00
C443   C     0.34981   0.57515   0.35440   0.00000  Uiso   1.00
C444   C     0.59041   0.60212   0.31143   0.00000  Uiso   1.00
C445   C     0.63471   0.38606   0.48069   0.00000  Uiso   1.00
C446   C     0.63727   0.63549   0.16232   0.00000  Uiso   1.00
C447   C     0.52034   0.49576   0.00870   0.00000  Uiso   1.00
C448   C     0.55933   0.46603   0.47871   0.00000  Uiso   1.00
C449   C     0.55944   0.44404   0.43123   0.00000  Uiso   1.00
C450   C     0.52278   0.45190   0.41226   0.00000  Uiso   1.00
C451   C     0.51424   0.50978   0.06245   0.00000  Uiso   1.00
C452   C     0.58880   0.47200   0.05270   0.00000  Uiso   1.00
H453   H     0.57898   0.36839   0.20656   0.00000  Uiso   1.00
H454   H     0.38827   0.35572   0.32017   0.00000  Uiso   1.00
H455   H     0.39053   0.65263   0.24562   0.00000  Uiso   1.00
H456   H     0.44429   0.64547   0.14856   0.00000  Uiso   1.00
H457   H     0.40312   0.60433   0.16931   0.00000  Uiso   1.00
H458   H     0.46486   0.59411   0.16021   0.00000  Uiso   1.00
H459   H     0.61029   0.44485   0.18548   0.00000  Uiso   1.00
H460   H     0.65160   0.39045   0.12725   0.00000  Uiso   1.00
H461   H     0.35675   0.38260   0.16199   0.00000  Uiso   1.00
H462   H     0.36371   0.42660   0.11731   0.00000  Uiso   1.00
H463   H     0.38896   0.40303   0.21934   0.00000  Uiso   1.00
H464   H     0.58611   0.41850   0.41016   0.00000  Uiso   1.00
H465   H     0.43508   0.40046   0.12325   0.00000  Uiso   1.00
H466   H     0.47389   0.42500   0.14987   0.00000  Uiso   1.00
H467   H     0.43497   0.45710   0.12644   0.00000  Uiso   1.00
H468   H     0.35104   0.59559   0.28136   0.00000  Uiso   1.00
H469   H     0.66057   0.55028   0.37660   0.00000  Uiso   1.00
H470   H     0.66303   0.60603   0.37164   0.00000  Uiso   1.00
H471   H     0.38413   0.57556   0.36095   0.00000  Uiso   1.00
H472   H     0.58545   0.55113   0.35932   0.00000  Uiso   1.00
H473   H     0.60139   0.62061   0.34110   0.00000  Uiso   1.00
H474   H     0.55252   0.61279   0.31954   0.00000  Uiso   1.00
H475   H     0.48210   0.52840   0.08884   0.00000  Uiso   1.00
H476   H     0.61356   0.60870   0.26915   0.00000  Uiso   1.00
H477   H     0.65142   0.43326   0.42656   0.00000  Uiso   1.00
H478   H     0.60597   0.37161   0.47022   0.00000  Uiso   1.00
H479   H     0.33645   0.36844   0.45625   0.00000  Uiso   1.00
H480   H     0.62715   0.38334   0.02494   0.00000  Uiso   1.00
H481   H     0.36223   0.49330   0.43070   0.00000  Uiso   1.00
H482   H     0.34208   0.54094   0.46235   0.00000  Uiso   1.00
H483   H     0.39385   0.60985   0.01439   0.00000  Uiso   1.00
H484   H     0.36141   0.57720   0.06008   0.00000  Uiso   1.00
H485   H     0.55288   0.42088   0.33690   0.00000  Uiso   1.00
H486   H     0.45011   0.56182   0.04448   0.00000  Uiso   1.00
H487   H     0.51350   0.39381   0.38508   0.00000  Uiso   1.00
H488   H     0.58903   0.59084   0.16074   0.00000  Uiso   1.00
H489   H     0.33367   0.61048   0.14761   0.00000  Uiso   1.00
H490   H     0.64306   0.65589   0.19448   0.00000  Uiso   1.00
H491   H     0.63838   0.65329   0.12701   0.00000  Uiso   1.00
H492   H     0.61196   0.44165   0.10492   0.00000  Uiso   1.00
H493   H     0.35995   0.48164   0.05401   0.00000  Uiso   1.00
H494   H     0.64984   0.50041   0.12099   0.00000  Uiso   1.00
H495   H     0.64710   0.52214   0.06075   0.00000  Uiso   1.00
H496   H     0.41868   0.39351   0.33312   0.00000  Uiso   1.00
N497   N     0.38093   0.50001   0.25002   0.00000  Uiso   1.00
N498   N     0.63735   0.42963   0.46817   0.00000  Uiso   1.00
N499   N     0.37172   0.52428   0.43176   0.00000  Uiso   1.00
N500   N     0.37684   0.58166   0.01823   0.00000  Uiso   1.00
N501   N     0.51946   0.42346   0.36991   0.00000  Uiso   1.00
N502   N     0.59183   0.61640   0.18486   0.00000  Uiso   1.00
N503   N     0.61906   0.49998   0.25000   0.00000  Uiso   1.00
N504   N     0.62436   0.46033   0.07302   0.00000  Uiso   1.00
N505   N     0.41310   0.37735   0.30061   0.00000  Uiso   1.00
N506   N     0.42139   0.63273   0.23185   0.00000  Uiso   1.00
N507   N     0.63879   0.43444   0.19431   0.00000  Uiso   1.00
N508   N     0.40065   0.43096   0.20309   0.00000  Uiso   1.00
N509   N     0.36111   0.56935   0.29612   0.00000  Uiso   1.00
N510   N     0.59325   0.55773   0.31915   0.00000  Uiso   1.00
O511   O     0.46179   0.56108   0.25001   0.00000  Uiso   1.00
O512   O     0.53823   0.56107   0.25001   0.00000  Uiso   1.00
O513   O     0.44280   0.50000   0.32681   0.00000  Uiso   1.00
O514   O     0.51924   0.49999   0.32681   0.00000  Uiso   1.00
O515   O     0.46177   0.43893   0.25000   0.00000  Uiso   1.00
O516   O     0.53821   0.43892   0.25000   0.00000  Uiso   1.00
O517   O     0.48076   0.50001   0.17319   0.00000  Uiso   1.00
O518   O     0.55720   0.50000   0.17319   0.00000  Uiso   1.00
Zn519  Zn    0.44896   0.50001   0.25000   0.00000  Uiso   1.00
Zn520  Zn    0.55104   0.49999   0.25000   0.00000  Uiso   1.00
C521   C     0.83462   0.57932   0.24364   0.00000  Uiso   1.00
C522   C     0.78840   0.49903   0.41321   0.00000  Uiso   1.00
C523   C     0.88107   0.64178   0.21344   0.00000  Uiso   1.00
C524   C     0.80603   0.49871   0.35257   0.00000  Uiso   1.00
C525   C     0.87967   0.35207   0.22174   0.00000  Uiso   1.00
C526   C     0.83530   0.37505   0.24923   0.00000  Uiso   1.00
C527   C     0.79166   0.35530   0.26564   0.00000  Uiso   1.00
C528   C     0.79337   0.64744   0.24539   0.00000  Uiso   1.00
C529   C     0.83671   0.62297   0.23179   0.00000  Uiso   1.00
C530   C     0.98687   0.46777   0.22176   0.00000  Uiso   1.00
C531   C     0.70130   0.46723   0.22344   0.00000  Uiso   1.00
C532   C     0.81931   0.50757   0.48625   0.00000  Uiso   1.00
C533   C     0.67995   0.53229   0.27654   0.00000  Uiso   1.00
C534   C     0.96452   0.53096   0.27944   0.00000  Uiso   1.00
C535   C     0.83372   0.41996   0.25117   0.00000  Uiso   1.00
C536   C     0.86090   0.49960   0.14714   0.00000  Uiso   1.00
C537   C     0.92858   0.45630   0.49944   0.00000  Uiso   1.00
C538   C     0.87912   0.49557   0.08627   0.00000  Uiso   1.00
C539   C     0.74659   0.52403   0.44586   0.00000  Uiso   1.00
C540   C     0.74651   0.54822   0.49203   0.00000  Uiso   1.00
C541   C     0.78363   0.54096   0.01071   0.00000  Uiso   1.00
C542   C     0.98837   0.49289   0.07744   0.00000  Uiso   1.00
C543   C     0.82124   0.48592   0.43696   0.00000  Uiso   1.00
C544   C     0.76767   0.61849   0.17452   0.00000  Uiso   1.00
C545   C     0.67194   0.40766   0.14812   0.00000  Uiso   1.00
C546   C     0.77105   0.42879   0.14799   0.00000  Uiso   1.00
C547   C     0.68315   0.57515   0.35440   0.00000  Uiso   1.00
C548   C     0.92375   0.60212   0.31143   0.00000  Uiso   1.00
C549   C     0.96804   0.38606   0.48069   0.00000  Uiso   1.00
C550   C     0.97061   0.63549   0.16232   0.00000  Uiso   1.00
C551   C     0.85367   0.49576   0.00870   0.00000  Uiso   1.00
C552   C     0.89266   0.46603   0.47871   0.00000  Uiso   1.00
C553   C     0.89277   0.44404   0.43123   0.00000  Uiso   1.00
C554   C     0.85611   0.45190   0.41226   0.00000  Uiso   1.00
C555   C     0.84757   0.50978   0.06245   0.00000  Uiso   1.00
C556   C     0.92213   0.47200   0.05270   0.00000  Uiso   1.00
H557   H     0.91231   0.36839   0.20656   0.00000  Uiso   1.00
H558   H     0.72161   0.35572   0.32017   0.00000  Uiso   1.00
H559   H     0.72386   0.65263   0.24562   0.00000  Uiso   1.00
H560   H     0.77763   0.64547   0.14856   0.00000  Uiso   1.00
H561   H     0.73645   0.60433   0.16931   0.00000  Uiso   1.00
H562   H     0.79819   0.59411   0.16021   0.00000  Uiso   1.00
H563   H     0.94362   0.44485   0.18548   0.00000  Uiso   1.00
H564   H     0.98494   0.39045   0.12725   0.00000  Uiso   1.00
H565   H     0.69008   0.38260   0.16199   0.00000  Uiso   1.00
H566   H     0.69705   0.42660   0.11731   0.00000  Uiso   1.00
H567   H     0.72229   0.40303   0.21934   0.00000  Uiso   1.00
H568   H     0.91944   0.41850   0.41016   0.00000  Uiso   1.00
H569   H     0.76842   0.40046   0.12325   0.00000  Uiso   1.00
H570   H     0.80722   0.42500   0.14987   0.00000  Uiso   1.00
H571   H     0.76831   0.45710   0.12644   0.00000  Uiso   1.00
H572   H     0.68437   0.59559   0.28136   0.00000  Uiso   1.00
H573   H     0.99390   0.55028   0.37660   0.00000  Uiso   1.00
H574   H     0.99636   0.60603   0.37164   0.00000  Uiso   1.00
H575   H     0.71747   0.57556   0.36095   0.00000  Uiso   1.00
H576   H     0.91878   0.55113   0.35932   0.00000  Uiso   1.00
H577   H     0.93472   0.62061   0.34110   0.00000  Uiso   1.00
H578   H     0.88585   0.61279   0.31954   0.00000  Uiso   1.00
H579   H     0.81543   0.52840   0.08884   0.00000  Uiso   1.00
H580   H     0.94690   0.60870   0.26915   0.00000  Uiso   1.00
H581   H     0.98475   0.43326   0.42656   0.00000  Uiso   1.00
H582   H     0.93930   0.37161   0.47022   0.00000  Uiso   1.00
H583   H     0.66978   0.36844   0.45625   0.00000  Uiso   1.00
H584   H     0.96048   0.38334   0.02494   0.00000  Uiso   1.00
H585   H     0.69556   0.49330   0.43070   0.00000  Uiso   1.00
H586   H     0.67542   0.54094   0.46235   0.00000  Uiso   1.00
H587   H     0.72718   0.60985   0.01439   0.00000  Uiso   1.00
H588   H     0.69474   0.57720   0.06008   0.00000  Uiso   1.00
H589   H     0.88621   0.42088   0.33690   0.00000  Uiso   1.00
H590   H     0.78345   0.56182   0.04448   0.00000  Uiso   1.00
H591   H     0.84683   0.39381   0.38508   0.00000  Uiso   1.00
H592   H     0.92236   0.59084   0.16074   0.00000  Uiso   1.00
H593   H     0.66700   0.61048   0.14761   0.00000  Uiso   1.00
H594   H     0.97639   0.65589   0.19448   0.00000  Uiso   1.00
H595   H     0.97172   0.65329   0.12701   0.00000  Uiso   1.00
H596   H     0.94529   0.44165   0.10492   0.00000  Uiso   1.00
H597   H     0.69328   0.48164   0.05401   0.00000  Uiso   1.00
H598   H     0.98317   0.50041   0.12099   0.00000  Uiso   1.00
H599   H     0.98043   0.52214   0.06075   0.00000  Uiso   1.00
H600   H     0.75201   0.39351   0.33312   0.00000  Uiso   1.00
N601   N     0.71426   0.50001   0.25002   0.00000  Uiso   1.00
N602   N     0.97069   0.42963   0.46817   0.00000  Uiso   1.00
N603   N     0.70505   0.52428   0.43176   0.00000  Uiso   1.00
N604   N     0.71017   0.58166   0.01823   0.00000  Uiso   1.00
N605   N     0.85280   0.42346   0.36991   0.00000  Uiso   1.00
N606   N     0.92516   0.61640   0.18486   0.00000  Uiso   1.00
N607   N     0.95239   0.49998   0.25000   0.00000  Uiso   1.00
N608   N     0.95769   0.46033   0.07302   0.00000  Uiso   1.00
N609   N     0.74643   0.37735   0.30061   0.00000  Uiso   1.00
N610   N     0.75472   0.63273   0.23185   0.00000  Uiso   1.00
N611   N     0.97213   0.43444   0.19431   0.00000  Uiso   1.00
N612   N     0.73398   0.43096   0.20309   0.00000  Uiso   1.00
N613   N     0.69444   0.56935   0.29612   0.00000  Uiso   1.00
N614   N     0.92659   0.55773   0.31915   0.00000  Uiso   1.00
O615   O     0.79512   0.56108   0.25001   0.00000  Uiso   1.00
O616   O     0.87157   0.56107   0.25001   0.00000  Uiso   1.00
O617   O     0.77613   0.50000   0.32681   0.00000  Uiso   1.00
O618   O     0.85258   0.49999   0.32681   0.00000  Uiso   1.00
O619   O     0.79510   0.43893   0.25000   0.00000  Uiso   1.00
O620   O     0.87154   0.43892   0.25000   0.00000  Uiso   1.00
O621   O     0.81409   0.50001   0.17319   0.00000  Uiso   1.00
O622   O     0.89053   0.50000   0.17319   0.00000  Uiso   1.00
Zn623  Zn    0.78229   0.50001   0.25000   0.00000  Uiso   1.00
Zn624  Zn    0.88438   0.49999   0.25000   0.00000  Uiso   1.00
C625   C     0.16796   0.91266   0.24364   0.00000  Uiso   1.00
C626   C     0.12174   0.83236   0.41321   0.00000  Uiso   1.00
C627   C     0.21440   0.97511   0.21344   0.00000  Uiso   1.00
C628   C     0.13937   0.83205   0.35257   0.00000  Uiso   1.00
C629   C     0.21300   0.68540   0.22174   0.00000  Uiso   1.00
C630   C     0.16863   0.70838   0.24923   0.00000  Uiso   1.00
C631   C     0.12499   0.68863   0.26564   0.00000  Uiso   1.00
C632   C     0.12671   0.98077   0.24539   0.00000  Uiso   1.00
C633   C     0.17004   0.95630   0.23179   0.00000  Uiso   1.00
C634   C     0.32020   0.80110   0.22176   0.00000  Uiso   1.00
C635   C     0.03463   0.80057   0.22344   0.00000  Uiso   1.00
C636   C     0.15264   0.84090   0.48625   0.00000  Uiso   1.00
C637   C     0.01328   0.86563   0.27654   0.00000  Uiso   1.00
C638   C     0.29785   0.86430   0.27944   0.00000  Uiso   1.00
C639   C     0.16706   0.75329   0.25117   0.00000  Uiso   1.00
C640   C     0.19423   0.83293   0.14714   0.00000  Uiso   1.00
C641   C     0.26191   0.78963   0.49944   0.00000  Uiso   1.00
C642   C     0.21245   0.82890   0.08627   0.00000  Uiso   1.00
C643   C     0.07993   0.85737   0.44586   0.00000  Uiso   1.00
C644   C     0.07984   0.88156   0.49203   0.00000  Uiso   1.00
C645   C     0.11696   0.87429   0.01071   0.00000  Uiso   1.00
C646   C     0.32170   0.82622   0.07744   0.00000  Uiso   1.00
C647   C     0.15458   0.81926   0.43696   0.00000  Uiso   1.00
C648   C     0.10100   0.95183   0.17452   0.00000  Uiso   1.00
C649   C     0.00528   0.74099   0.14812   0.00000  Uiso   1.00
C650   C     0.10439   0.76213   0.14799   0.00000  Uiso   1.00
C651   C     0.01648   0.90848   0.35440   0.00000  Uiso   1.00
C652   C     0.25708   0.93545   0.31143   0.00000  Uiso   1.00
C653   C     0.30138   0.71939   0.48069   0.00000  Uiso   1.00
C654   C     0.30394   0.96883   0.16232   0.00000  Uiso   1.00
C655   C     0.18700   0.82910   0.00870   0.00000  Uiso   1.00
C656   C     0.22600   0.79937   0.47871   0.00000  Uiso   1.00
C657   C     0.22611   0.77737   0.43123   0.00000  Uiso   1.00
C658   C     0.18945   0.78524   0.41226   0.00000  Uiso   1.00
C659   C     0.18090   0.84311   0.06245   0.00000  Uiso   1.00
C660   C     0.25547   0.80534   0.05270   0.00000  Uiso   1.00
H661   H     0.24565   0.70172   0.20656   0.00000  Uiso   1.00
H662   H     0.05494   0.68906   0.32017   0.00000  Uiso   1.00
H663   H     0.05719   0.98597   0.24562   0.00000  Uiso   1.00
H664   H     0.11096   0.97880   0.14856   0.00000  Uiso   1.00
H665   H     0.06979   0.93767   0.16931   0.00000  Uiso   1.00
H666   H     0.13152   0.92744   0.16021   0.00000  Uiso   1.00
H667   H     0.27696   0.77818   0.18548   0.00000  Uiso   1.00
H668   H     0.31827   0.72378   0.12725   0.00000  Uiso   1.00
H669   H     0.02341   0.71593   0.16199   0.00000  Uiso   1.00
H670   H     0.03038   0.75993   0.11731   0.00000  Uiso   1.00
H671   H     0.05562   0.73636   0.21934   0.00000  Uiso   1.00
H672   H     0.25278   0.75183   0.41016   0.00000  Uiso   1.00
H673   H     0.10175   0.73380   0.12325   0.00000  Uiso   1.00
H674   H     0.14055   0.75834   0.14987   0.00000  Uiso   1.00
H675   H     0.10164   0.79044   0.12644   0.00000  Uiso   1.00
H676   H     0.01771   0.92893   0.28136   0.00000  Uiso   1.00
H677   H     0.32723   0.88362   0.37660   0.00000  Uiso   1.00
H678   H     0.32970   0.93936   0.37164   0.00000  Uiso   1.00
H679   H     0.05080   0.90889   0.36095   0.00000  Uiso   1.00
H680   H     0.25211   0.88446   0.35932   0.00000  Uiso   1.00
H681   H     0.26806   0.95394   0.34110   0.00000  Uiso   1.00
H682   H     0.21919   0.94613   0.31954   0.00000  Uiso   1.00
H683   H     0.14877   0.86173   0.08884   0.00000  Uiso   1.00
H684   H     0.28023   0.94204   0.26915   0.00000  Uiso   1.00
H685   H     0.31808   0.76660   0.42656   0.00000  Uiso   1.00
H686   H     0.27264   0.70494   0.47022   0.00000  Uiso   1.00
H687   H     0.00311   0.70177   0.45625   0.00000  Uiso   1.00
H688   H     0.29382   0.71667   0.02494   0.00000  Uiso   1.00
H689   H     0.02889   0.82664   0.43070   0.00000  Uiso   1.00
H690   H     0.00875   0.87428   0.46235   0.00000  Uiso   1.00
H691   H     0.06051   0.94318   0.01439   0.00000  Uiso   1.00
H692   H     0.02807   0.91054   0.06008   0.00000  Uiso   1.00
H693   H     0.21954   0.75422   0.33690   0.00000  Uiso   1.00
H694   H     0.11678   0.89515   0.04448   0.00000  Uiso   1.00
H695   H     0.18016   0.72715   0.38508   0.00000  Uiso   1.00
H696   H     0.25569   0.92417   0.16074   0.00000  Uiso   1.00
H697   H     0.00034   0.94381   0.14761   0.00000  Uiso   1.00
H698   H     0.30973   0.98922   0.19448   0.00000  Uiso   1.00
H699   H     0.30505   0.98662   0.12701   0.00000  Uiso   1.00
H700   H     0.27863   0.77498   0.10492   0.00000  Uiso   1.00
H701   H     0.02661   0.81497   0.05401   0.00000  Uiso   1.00
H702   H     0.31650   0.83374   0.12099   0.00000  Uiso   1.00
H703   H     0.31376   0.85547   0.06075   0.00000  Uiso   1.00
H704   H     0.08534   0.72684   0.33312   0.00000  Uiso   1.00
N705   N     0.04760   0.83334   0.25002   0.00000  Uiso   1.00
N706   N     0.30402   0.76297   0.46817   0.00000  Uiso   1.00
N707   N     0.03838   0.85762   0.43176   0.00000  Uiso   1.00
N708   N     0.04351   0.91499   0.01823   0.00000  Uiso   1.00
N709   N     0.18613   0.75680   0.36991   0.00000  Uiso   1.00
N710   N     0.25849   0.94973   0.18486   0.00000  Uiso   1.00
N711   N     0.28573   0.83331   0.25000   0.00000  Uiso   1.00
N712   N     0.29102   0.79367   0.07302   0.00000  Uiso   1.00
N713   N     0.07976   0.71068   0.30061   0.00000  Uiso   1.00
N714   N     0.08806   0.96606   0.23185   0.00000  Uiso   1.00
N715   N     0.30546   0.76777   0.19431   0.00000  Uiso   1.00
N716   N     0.06731   0.76429   0.20309   0.00000  Uiso   1.00
N717   N     0.02777   0.90269   0.29612   0.00000  Uiso   1.00
N718   N     0.25992   0.89106   0.31915   0.00000  Uiso   1.00
O719   O     0.12846   0.89442   0.25001   0.00000  Uiso   1.00
O720   O     0.20490   0.89441   0.25001   0.00000  Uiso   1.00
O721   O     0.10947   0.83333   0.32681   0.00000  Uiso   1.00
O722   O     0.18591   0.83332   0.32681   0.00000  Uiso   1.00
O723   O     0.12843   0.77226   0.25000   0.00000  Uiso   1.00
O724   O     0.20488   0.77225   0.25000   0.00000  Uiso   1.00
O725   O     0.14742   0.83335   0.17319   0.00000  Uiso   1.00
O726   O     0.22387   0.83334   0.17319   0.00000  Uiso   1.00
Zn727  Zn    0.11562   0.83334   0.25000   0.00000  Uiso   1.00
Zn728  Zn    0.21771   0.83333   0.25000   0.00000  Uiso   1.00
C729   C     0.50129   0.91266   0.24364   0.00000  Uiso   1.00
C730   C     0.45507   0.83236   0.41321   0.00000  Uiso   1.00
C731   C     0.54773   0.97511   0.21344   0.00000  Uiso   1.00
C732   C     0.47270   0.83205   0.35257   0.00000  Uiso   1.00
C733   C     0.54633   0.68540   0.22174   0.00000  Uiso   1.00
C734   C     0.50196   0.70838   0.24923   0.00000  Uiso   1.00
C735   C     0.45832   0.68863   0.26564   0.00000  Uiso   1.00
C736   C     0.46004   0.98077   0.24539   0.00000  Uiso   1.00
C737   C     0.50337   0.95630   0.23179   0.00000  Uiso   1.00
C738   C     0.65354   0.80110   0.22176   0.00000  Uiso   1.00
C739   C     0.36796   0.80057   0.22344   0.00000  Uiso   1.00
C740   C     0.48598   0.84090   0.48625   0.00000  Uiso   1.00
C741   C     0.34661   0.86563   0.27654   0.00000  Uiso   1.00
C742   C     0.63119   0.86430   0.27944   0.00000  Uiso   1.00
C743   C     0.50039   0.75329   0.25117   0.00000  Uiso   1.00
C744   C     0.52756   0.83293   0.14714   0.00000  Uiso   1.00
C745   C     0.59524   0.78963   0.49944   0.00000  Uiso   1.00
C746   C     0.54578   0.82890   0.08627   0.00000  Uiso   1.00
C747   C     0.41326   0.85737   0.44586   0.00000  Uiso   1.00
C748   C     0.41318   0.88156   0.49203   0.00000  Uiso   1.00
C749   C     0.45030   0.87429   0.01071   0.00000  Uiso   1.00
C750   C     0.65504   0.82622   0.07744   0.00000  Uiso   1.00
C751   C     0.48791   0.81926   0.43696   0.00000  Uiso   1.00
C752   C     0.43433   0.95183   0.17452   0.00000  Uiso   1.00
C753   C     0.33861   0.74099   0.14812   0.00000  Uiso   1.00
C754   C     0.43772   0.76213   0.14799   0.00000  Uiso   1.00
C755   C     0.34981   0.90848   0.35440   0.00000  Uiso   1.00
C756   C     0.59041   0.93545   0.31143   0.00000  Uiso   1.00
C757   C     0.63471   0.71939   0.48069   0.00000  Uiso   1.00
C758   C     0.63727   0.96883   0.16232   0.00000  Uiso   1.00
C759   C     0.52034   0.82910   0.00870   0.00000  Uiso   1.00
C760   C     0.55933   0.79937   0.47871   0.00000  Uiso   1.00
C761   C     0.55944   0.77737   0.43123   0.00000  Uiso   1.00
C762   C     0.52278   0.78524   0.41226   0.00000  Uiso   1.00
C763   C     0.51424   0.84311   0.06245   0.00000  Uiso   1.00
C764   C     0.58880   0.80534   0.05270   0.00000  Uiso   1.00
H765   H     0.57898   0.70172   0.20656   0.00000  Uiso   1.00
H766   H     0.38827   0.68906   0.32017   0.00000  Uiso   1.00
H767   H     0.39053   0.98597   0.24562   0.00000  Uiso   1.00
H768   H     0.44429   0.97880   0.14856   0.00000  Uiso   1.00
H769   H     0.40312   0.93767   0.16931   0.00000  Uiso   1.00
H770   H     0.46486   0.92744   0.16021   0.00000  Uiso   1.00
H771   H     0.61029   0.77818   0.18548   0.00000  Uiso   1.00
H772   H     0.65160   0.72378   0.12725   0.00000  Uiso   1.00
H773   H     0.35675   0.71593   0.16199   0.00000  Uiso   1.00
H774   H     0.36371   0.75993   0.11731   0.00000  Uiso   1.00
H775   H     0.38896   0.73636   0.21934   0.00000  Uiso   1.00
H776   H     0.58611   0.75183   0.41016   0.00000  Uiso   1.00
H777   H     0.43508   0.73380   0.12325   0.00000  Uiso   1.00
H778   H     0.47389   0.75834   0.14987   0.00000  Uiso   1.00
H779   H     0.43497   0.79044   0.12644   0.00000  Uiso   1.00
H780   H     0.35104   0.92893   0.28136   0.00000  Uiso   1.00
H781   H     0.66057   0.88362   0.37660   0.00000  Uiso   1.00
H782   H     0.66303   0.93936   0.37164   0.00000  Uiso   1.00
H783   H     0.38413   0.90889   0.36095   0.00000  Uiso   1.00
H784   H     0.58545   0.88446   0.35932   0.00000  Uiso   1.00
H785   H     0.60139   0.95394   0.34110   0.00000  Uiso   1.00
H786   H     0.55252   0.94613   0.31954   0.00000  Uiso   1.00
H787   H     0.48210   0.86173   0.08884   0.00000  Uiso   1.00
H788   H     0.61356   0.94204   0.26915   0.00000  Uiso   1.00
H789   H     0.65142   0.76660   0.42656   0.00000  Uiso   1.00
H790   H     0.60597   0.70494   0.47022   0.00000  Uiso   1.00
H791   H     0.33645   0.70177   0.45625   0.00000  Uiso   1.00
H792   H     0.62715   0.71667   0.02494   0.00000  Uiso   1.00
H793   H     0.36223   0.82664   0.43070   0.00000  Uiso   1.00
H794   H     0.34208   0.87428   0.46235   0.00000  Uiso   1.00
H795   H     0.39385   0.94318   0.01439   0.00000  Uiso   1.00
H796   H     0.36141   0.91054   0.06008   0.00000  Uiso   1.00
H797   H     0.55288   0.75422   0.33690   0.00000  Uiso   1.00
H798   H     0.45011   0.89515   0.04448   0.00000  Uiso   1.00
H799   H     0.51350   0.72715   0.38508   0.00000  Uiso   1.00
H800   H     0.58903   0.92417   0.16074   0.00000  Uiso   1.00
H801   H     0.33367   0.94381   0.14761   0.00000  Uiso   1.00
H802   H     0.64306   0.98922   0.19448   0.00000  Uiso   1.00
H803   H     0.63838   0.98662   0.12701   0.00000  Uiso   1.00
H804   H     0.61196   0.77498   0.10492   0.00000  Uiso   1.00
H805   H     0.35995   0.81497   0.05401   0.00000  Uiso   1.00
H806   H     0.64984   0.83374   0.12099   0.00000  Uiso   1.00
H807   H     0.64710   0.85547   0.06075   0.00000  Uiso   1.00
H808   H     0.41868   0.72684   0.33312   0.00000  Uiso   1.00
N809   N     0.38093   0.83334   0.25002   0.00000  Uiso   1.00
N810   N     0.63735   0.76297   0.46817   0.00000  Uiso   1.00
N811   N     0.37172   0.85762   0.43176   0.00000  Uiso   1.00
N812   N     0.37684   0.91499   0.01823   0.00000  Uiso   1.00
N813   N     0.51946   0.75680   0.36991   0.00000  Uiso   1.00
N814   N     0.59183   0.94973   0.18486   0.00000  Uiso   1.00
N815   N     0.61906   0.83331   0.25000   0.00000  Uiso   1.00
N816   N     0.62436   0.79367   0.07302   0.00000  Uiso   1.00
N817   N     0.41310   0.71068   0.30061   0.00000  Uiso   1.00
N818   N     0.42139   0.96606   0.23185   0.00000  Uiso   1.00
N819   N     0.63879   0.76777   0.19431   0.00000  Uiso   1.00
N820   N     0.40065   0.76429   0.20309   0.00000  Uiso   1.00
N821   N     0.36111   0.90269   0.29612   0.00000  Uiso   1.00
N822   N     0.59325   0.89106   0.31915   0.00000  Uiso   1.00
O823   O     0.46179   0.89442   0.25001   0.00000  Uiso   1.00
O824   O     0.53823   0.89441   0.25001   0.00000  Uiso   1.00
O825   O     0.44280   0.83333   0.32681   0.00000  Uiso   1.00
O826   O     0.51924   0.83332   0.32681   0.00000  Uiso   1.00
O827   O     0.46177   0.77226   0.25000   0.00000  Uiso   1.00
O828   O     0.53821   0.77225   0.25000   0.00000  Uiso   1.00
O829   O     0.48076   0.83335   0.17319   0.00000  Uiso   1.00
O830   O     0.55720   0.83334   0.17319   0.00000  Uiso   1.00
Zn831  Zn    0.44896   0.83334   0.25000   0.00000  Uiso   1.00
Zn832  Zn    0.55104   0.83333   0.25000   0.00000  Uiso   1.00
C833   C     0.83462   0.91266   0.24364   0.00000  Uiso   1.00
C834   C     0.78840   0.83236   0.41321   0.00000  Uiso   1.00
C835   C     0.88107   0.97511   0.21344   0.00000  Uiso   1.00
C836   C     0.80603   0.83205   0.35257   0.00000  Uiso   1.00
C837   C     0.87967   0.68540   0.22174   0.00000  Uiso   1.00
C838   C     0.83530   0.70838   0.24923   0.00000  Uiso   1.00
C839   C     0.79166   0.68863   0.26564   0.00000  Uiso   1.00
C840   C     0.79337   0.98077   0.24539   0.00000  Uiso   1.00
C841   C     0.83671   0.95630   0.23179   0.00000  Uiso   1.00
C842   C     0.98687   0.80110   0.22176   0.00000  Uiso   1.00
C843   C     0.70130   0.80057   0.22344   0.00000  Uiso   1.00
C844   C     0.81931   0.84090   0.48625   0.00000  Uiso   1.00
C845   C     0.67995   0.86563   0.27654   0.00000  Uiso   1.00
C846   C     0.96452   0.86430   0.27944   0.00000  Uiso   1.00
C847   C     0.83372   0.75329   0.25117   0.00000  Uiso   1.00
C848   C     0.86090   0.83293   0.14714   0.00000  Uiso   1.00
C849   C     0.92858   0.78963   0.49944   0.00000  Uiso   1.00
C850   C     0.87912   0.82890   0.08627   0.00000  Uiso   1.00
C851   C     0.74659   0.85737   0.44586   0.00000  Uiso   1.00
C852   C     0.74651   0.88156   0.49203   0.00000  Uiso   1.00
C853   C     0.78363   0.87429   0.01071   0.00000  Uiso   1.00
C854   C     0.98837   0.82622   0.07744   0.00000  Uiso   1.00
C855   C     0.82124   0.81926   0.43696   0.00000  Uiso   1.00
C856   C     0.76767   0.95183   0.17452   0.00000  Uiso   1.00
C857   C     0.67194   0.74099   0.14812   0.00000  Uiso   1.00
C858   C     0.77105   0.76213   0.14799   0.00000  Uiso   1.00
C859   C     0.68315   0.90848   0.35440   0.00000  Uiso   1.00
C860   C     0.92375   0.93545   0.31143   0.00000  Uiso   1.00
C861   C     0.96804   0.71939   0.48069   0.00000  Uiso   1.00
C862   C     0.97061   0.96883   0.16232   0.00000  Uiso   1.00
C863   C     0.85367   0.82910   0.00870   0.00000  Uiso   1.00
C864   C     0.89266   0.79937   0.47871   0.00000  Uiso   1.00
C865   C     0.89277   0.77737   0.43123   0.00000  Uiso   1.00
C866   C     0.85611   0.78524   0.41226   0.00000  Uiso   1.00
C867   C     0.84757   0.84311   0.06245   0.00000  Uiso   1.00
C868   C     0.92213   0.80534   0.05270   0.00000  Uiso   1.00
H869   H     0.91231   0.70172   0.20656   0.00000  Uiso   1.00
H870   H     0.72161   0.68906   0.32017   0.00000  Uiso   1.00
H871   H     0.72386   0.98597   0.24562   0.00000  Uiso   1.00
H872   H     0.77763   0.97880   0.14856   0.00000  Uiso   1.00
H873   H     0.73645   0.93767   0.16931   0.00000  Uiso   1.00
H874   H     0.79819   0.92744   0.16021   0.00000  Uiso   1.00
H875   H     0.94362   0.77818   0.18548   0.00000  Uiso   1.00
H876   H     0.98494   0.72378   0.12725   0.00000  Uiso   1.00
H877   H     0.69008   0.71593   0.16199   0.00000  Uiso   1.00
H878   H     0.69705   0.75993   0.11731   0.00000  Uiso   1.00
H879   H     0.72229   0.73636   0.21934   0.00000  Uiso   1.00
H880   H     0.91944   0.75183   0.41016   0.00000  Uiso   1.00
H881   H     0.76842   0.73380   0.12325   0.00000  Uiso   1.00
H882   H     0.80722   0.75834   0.14987   0.00000  Uiso   1.00
H883   H     0.76831   0.79044   0.12644   0.00000  Uiso   1.00
H884   H     0.68437   0.92893   0.28136   0.00000  Uiso   1.00
H885   H     0.99390   0.88362   0.37660   0.00000  Uiso   1.00
H886   H     0.99636   0.93936   0.37164   0.00000  Uiso   1.00
H887   H     0.71747   0.90889   0.36095   0.00000  Uiso   1.00
H888   H     0.91878   0.88446   0.35932   0.00000  Uiso   1.00
H889   H     0.93472   0.95394   0.34110   0.00000  Uiso   1.00
H890   H     0.88585   0.94613   0.31954   0.00000  Uiso   1.00
H891   H     0.81543   0.86173   0.08884   0.00000  Uiso   1.00
H892   H     0.94690   0.94204   0.26915   0.00000  Uiso   1.00
H893   H     0.98475   0.76660   0.42656   0.00000  Uiso   1.00
H894   H     0.93930   0.70494   0.47022   0.00000  Uiso   1.00
H895   H     0.66978   0.70177   0.45625   0.00000  Uiso   1.00
H896   H     0.96048   0.71667   0.02494   0.00000  Uiso   1.00
H897   H     0.69556   0.82664   0.43070   0.00000  Uiso   1.00
H898   H     0.67542   0.87428   0.46235   0.00000  Uiso   1.00
H899   H     0.72718   0.94318   0.01439   0.00000  Uiso   1.00
H900   H     0.69474   0.91054   0.06008   0.00000  Uiso   1.00
H901   H     0.88621   0.75422   0.33690   0.00000  Uiso   1.00
H902   H     0.78345   0.89515   0.04448   0.00000  Uiso   1.00
H903   H     0.84683   0.72715   0.38508   0.00000  Uiso   1.00
H904   H     0.92236   0.92417   0.16074   0.00000  Uiso   1.00
H905   H     0.66700   0.94381   0.14761   0.00000  Uiso   1.00
H906   H     0.97639   0.98922   0.19448   0.00000  Uiso   1.00
H907   H     0.97172   0.98662   0.12701   0.00000  Uiso   1.00
H908   H     0.94529   0.77498   0.10492   0.00000  Uiso   1.00
H909   H     0.69328   0.81497   0.05401   0.00000  Uiso   1.00
H910   H     0.98317   0.83374   0.12099   0.00000  Uiso   1.00
H911   H     0.98043   0.85547   0.06075   0.00000  Uiso   1.00
H912   H     0.75201   0.72684   0.33312   0.00000  Uiso   1.00
N913   N     0.71426   0.83334   0.25002   0.00000  Uiso   1.00
N914   N     0.97069   0.76297   0.46817   0.00000  Uiso   1.00
N915   N     0.70505   0.85762   0.43176   0.00000  Uiso   1.00
N916   N     0.71017   0.91499   0.01823   0.00000  Uiso   1.00
N917   N     0.85280   0.75680   0.36991   0.00000  Uiso   1.00
N918   N     0.92516   0.94973   0.18486   0.00000  Uiso   1.00
N919   N     0.95239   0.83331   0.25000   0.00000  Uiso   1.00
N920   N     0.95769   0.79367   0.07302   0.00000  Uiso   1.00
N921   N     0.74643   0.71068   0.30061   0.00000  Uiso   1.00
N922   N     0.75472   0.96606   0.23185   0.00000  Uiso   1.00
N923   N     0.97213   0.76777   0.19431   0.00000  Uiso   1.00
N924   N     0.73398   0.76429   0.20309   0.00000  Uiso   1.00
N925   N     0.69444   0.90269   0.29612   0.00000  Uiso   1.00
N926   N     0.92659   0.89106   0.31915   0.00000  Uiso   1.00
O927   O     0.79512   0.89442   0.25001   0.00000  Uiso   1.00
O928   O     0.87157   0.89441   0.25001   0.00000  Uiso   1.00
O929   O     0.77613   0.83333   0.32681   0.00000  Uiso   1.00
O930   O     0.85258   0.83332   0.32681   0.00000  Uiso   1.00
O931   O     0.79510   0.77226   0.25000   0.00000  Uiso   1.00
O932   O     0.87154   0.77225   0.25000   0.00000  Uiso   1.00
O933   O     0.81409   0.83335   0.17319   0.00000  Uiso   1.00
O934   O     0.89053   0.83334   0.17319   0.00000  Uiso   1.00
Zn935  Zn    0.78229   0.83334   0.25000   0.00000  Uiso   1.00
Zn936  Zn    0.88438   0.83333   0.25000   0.00000  Uiso   1.00
C937   C     0.16796   0.24599   0.74364   0.00000  Uiso   1.00
C938   C     0.12174   0.16570   0.91321   0.00000  Uiso   1.00
C939   C     0.21440   0.30844   0.71344   0.00000  Uiso   1.00
C940   C     0.13937   0.16538   0.85257   0.00000  Uiso   1.00
C941   C     0.21300   0.01873   0.72174   0.00000  Uiso   1.00
C942   C     0.16863   0.04171   0.74923   0.00000  Uiso   1.00
C943   C     0.12499   0.02197   0.76564   0.00000  Uiso   1.00
C944   C     0.12671   0.31410   0.74539   0.00000  Uiso   1.00
C945   C     0.17004   0.28963   0.73179   0.00000  Uiso   1.00
C946   C     0.32020   0.13443   0.72176   0.00000  Uiso   1.00
C947   C     0.03463   0.13390   0.72344   0.00000  Uiso   1.00
C948   C     0.15264   0.17424   0.98625   0.00000  Uiso   1.00
C949   C     0.01328   0.19896   0.77654   0.00000  Uiso   1.00
C950   C     0.29785   0.19763   0.77944   0.00000  Uiso   1.00
C951   C     0.16706   0.08662   0.75117   0.00000  Uiso   1.00
C952   C     0.19423   0.16626   0.64714   0.00000  Uiso   1.00
C953   C     0.26191   0.12297   0.99944   0.00000  Uiso   1.00
C954   C     0.21245   0.16224   0.58627   0.00000  Uiso   1.00
C955   C     0.07993   0.19070   0.94586   0.00000  Uiso   1.00
C956   C     0.07984   0.21489   0.99203   0.00000  Uiso   1.00
C957   C     0.11696   0.20762   0.51071   0.00000  Uiso   1.00
C958   C     0.32170   0.15955   0.57744   0.00000  Uiso   1.00
C959   C     0.15458   0.15259   0.93696   0.00000  Uiso   1.00
C960   C     0.10100   0.28516   0.67452   0.00000  Uiso   1.00
C961   C     0.00528   0.07433   0.64812   0.00000  Uiso   1.00
C962   C     0.10439   0.09546   0.64799   0.00000  Uiso   1.00
C963   C     0.01648   0.24181   0.85440   0.00000  Uiso   1.00
C964   C     0.25708   0.26879   0.81143   0.00000  Uiso   1.00
C965   C     0.30138   0.05273   0.98069   0.00000  Uiso   1.00
C966   C     0.30394   0.30216   0.66232   0.00000  Uiso   1.00
C967   C     0.18700   0.16243   0.50870   0.00000  Uiso   1.00
C968   C     0.22600   0.13270   0.97871   0.00000  Uiso   1.00
C969   C     0.22611   0.11071   0.93123   0.00000  Uiso   1.00
C970   C     0.18945   0.11857   0.91226   0.00000  Uiso   1.00
C971   C     0.18090   0.17644   0.56245   0.00000  Uiso   1.00
C972   C     0.25547   0.13867   0.55270   0.00000  Uiso   1.00
H973   H     0.24565   0.03506   0.70656   0.00000  Uiso   1.00
H974   H     0.05494   0.02239   0.82017   0.00000  Uiso   1.00
H975   H     0.05719   0.31930   0.74562   0.00000  Uiso   1.00
H976   H     0.11096   0.31213   0.64856   0.00000  Uiso   1.00
H977   H     0.06979   0.27100   0.66931   0.00000  Uiso   1.00
H978   H     0.13152   0.26077   0.66021   0.00000  Uiso   1.00
H979   H     0.27696   0.11152   0.68548   0.00000  Uiso   1.00
H980   H     0.31827   0.05712   0.62725   0.00000  Uiso   1.00
H981   H     0.02341   0.04926   0.66199   0.00000  Uiso   1.00
H982   H     0.03038   0.09326   0.61731   0.00000  Uiso   1.00
H983   H     0.05562   0.06969   0.71934   0.00000  Uiso   1.00
H984   H     0.25278   0.08516   0.91016   0.00000  Uiso   1.00
H985   H     0.10175   0.06713   0.62325   0.00000  Uiso   1.00
H986   H     0.14055   0.09167   0.64987   0.00000  Uiso   1.00
H987   H     0.10164   0.12377   0.62644   0.00000  Uiso   1.00
H988   H     0.01771   0.26226   0.78136   0.00000  Uiso   1.00
H989   H     0.32723   0.21695   0.87660   0.00000  Uiso   1.00
H990   H     0.32970   0.27269   0.87164   0.00000  Uiso   1.00
H991   H     0.05080   0.24223   0.86095   0.00000  Uiso   1.00
H992   H     0.25211   0.21779   0.85932   0.00000  Uiso   1.00
H993   H     0.26806   0.28727   0.84110   0.00000  Uiso   1.00
H994   H     0.21919   0.27946   0.81954   0.00000  Uiso   1.00
H995   H     0.14877   0.19507   0.58884   0.00000  Uiso   1.00
H996   H     0.28023   0.27537   0.76915   0.00000  Uiso   1.00
H997   H     0.31808   0.09993   0.92656   0.00000  Uiso   1.00
H998   H     0.27264   0.03827   0.97022   0.00000  Uiso   1.00
H999   H     0.00311   0.03511   0.95625   0.00000  Uiso   1.00
H1000  H     0.29382   0.05001   0.52494   0.00000  Uiso   1.00
H1001  H     0.02889   0.15997   0.93070   0.00000  Uiso   1.00
H1002  H     0.00875   0.20761   0.96235   0.00000  Uiso   1.00
H1003  H     0.06051   0.27652   0.51439   0.00000  Uiso   1.00
H1004  H     0.02807   0.24387   0.56008   0.00000  Uiso   1.00
H1005  H     0.21954   0.08755   0.83690   0.00000  Uiso   1.00
H1006  H     0.11678   0.22849   0.54448   0.00000  Uiso   1.00
H1007  H     0.18016   0.06048   0.88508   0.00000  Uiso   1.00
H1008  H     0.25569   0.25751   0.66074   0.00000  Uiso   1.00
H1009  H     0.00034   0.27715   0.64761   0.00000  Uiso   1.00
H1010  H     0.30973   0.32256   0.69448   0.00000  Uiso   1.00
H1011  H     0.30505   0.31996   0.62701   0.00000  Uiso   1.00
H1012  H     0.27863   0.10832   0.60492   0.00000  Uiso   1.00
H1013  H     0.02661   0.14831   0.55401   0.00000  Uiso   1.00
H1014  H     0.31650   0.16708   0.62099   0.00000  Uiso   1.00
H1015  H     0.31376   0.18881   0.56075   0.00000  Uiso   1.00
H1016  H     0.08534   0.06017   0.83312   0.00000  Uiso   1.00
N1017  N     0.04760   0.16668   0.75002   0.00000  Uiso   1.00
N1018  N     0.30402   0.09630   0.96817   0.00000  Uiso   1.00
N1019  N     0.03838   0.19095   0.93176   0.00000  Uiso   1.00
N1020  N     0.04351   0.24833   0.51823   0.00000  Uiso   1.00
N1021  N     0.18613   0.09013   0.86991   0.00000  Uiso   1.00
N1022  N     0.25849   0.28306   0.68486   0.00000  Uiso   1.00
N1023  N     0.28573   0.16665   0.75000   0.00000  Uiso   1.00
N1024  N     0.29102   0.12700   0.57302   0.00000  Uiso   1.00
N1025  N     0.07976   0.04401   0.80061   0.00000  Uiso   1.00
N1026  N     0.08806   0.29939   0.73185   0.00000  Uiso   1.00
N1027  N     0.30546   0.10111   0.69431   0.00000  Uiso   1.00
N1028  N     0.06731   0.09762   0.70309   0.00000  Uiso   1.00
N1029  N     0.02777   0.23602   0.79612   0.00000  Uiso   1.00
N1030  N     0.25992   0.22439   0.81915   0.00000  Uiso   1.00
O1031  O     0.12846   0.22775   0.75001   0.00000  Uiso   1.00
O1032  O     0.20490   0.22774   0.75001   0.00000  Uiso   1.00
O1033  O     0.10947   0.16666   0.82681   0.00000  Uiso   1.00
O1034  O     0.18591   0.16665   0.82681   0.00000  Uiso   1.00
O1035  O     0.12843   0.10559   0.75000   0.00000  Uiso   1.00
O1036  O     0.20488   0.10558   0.75000   0.00000  Uiso   1.00
O1037  O     0.14742   0.16668   0.67319   0.00000  Uiso   1.00
O1038  O     0.22387   0.16667   0.67319   0.00000  Uiso   1.00
Zn1039 Zn    0.11562   0.16667   0.75000   0.00000  Uiso   1.00
Zn1040 Zn    0.21771   0.16666   0.75000   0.00000  Uiso   1.00
C1041  C     0.50129   0.24599   0.74364   0.00000  Uiso   1.00
C1042  C     0.45507   0.16570   0.91321   0.00000  Uiso   1.00
C1043  C     0.54773   0.30844   0.71344   0.00000  Uiso   1.00
C1044  C     0.47270   0.16538   0.85257   0.00000  Uiso   1.00
C1045  C     0.54633   0.01873   0.72174   0.00000  Uiso   1.00
C1046  C     0.50196   0.04171   0.74923   0.00000  Uiso   1.00
C1047  C     0.45832   0.02197   0.76564   0.00000  Uiso   1.00
C1048  C     0.46004   0.31410   0.74539   0.00000  Uiso   1.00
C1049  C     0.50337   0.28963   0.73179   0.00000  Uiso   1.00
C1050  C     0.65354   0.13443   0.72176   0.00000  Uiso   1.00
C1051  C     0.36796   0.13390   0.72344   0.00000  Uiso   1.00
C1052  C     0.48598   0.17424   0.98625   0.00000  Uiso   1.00
C1053  C     0.34661   0.19896   0.77654   0.00000  Uiso   1.00
C1054  C     0.63119   0.19763   0.77944   0.00000  Uiso   1.00
C1055  C     0.50039   0.08662   0.75117   0.00000  Uiso   1.00
C1056  C     0.52756   0.16626   0.64714   0.00000  Uiso   1.00
C1057  C     0.59524   0.12297   0.99944   0.00000  Uiso   1.00
C1058  C     0.54578   0.16224   0.58627   0.00000  Uiso   1.00
C1059  C     0.41326   0.19070   0.94586   0.00000  Uiso   1.00
C1060  C     0.41318   0.21489   0.99203   0.00000  Uiso   1.00
C1061  C     0.45030   0.20762   0.51071   0.00000  Uiso   1.00
C1062  C     0.65504   0.15955   0.57744   0.00000  Uiso   1.00
C1063  C     0.48791   0.15259   0.93696   0.00000  Uiso   1.00
C1064  C     0.43433   0.28516   0.67452   0.00000  Uiso   1.00
C1065  C     0.33861   0.07433   0.64812   0.00000  Uiso   1.00
C1066  C     0.43772   0.09546   0.64799   0.00000  Uiso   1.00
C1067  C     0.34981   0.24181   0.85440   0.00000  Uiso   1.00
C1068  C     0.59041   0.26879   0.81143   0.00000  Uiso   1.00
C1069  C     0.63471   0.05273   0.98069   0.00000  Uiso   1.00
C1070  C     0.63727   0.30216   0.66232   0.00000  Uiso   1.00
C1071  C     0.52034   0.16243   0.50870   0.00000  Uiso   1.00
C1072  C     0.55933   0.13270   0.97871   0.00000  Uiso   1.00
C1073  C     0.55944   0.11071   0.93123   0.00000  Uiso   1.00
C1074  C     0.52278   0.11857   0.91226   0.00000  Uiso   1.00
C1075  C     0.51424   0.17644   0.56245   0.00000  Uiso   1.00
C1076  C     0.58880   0.13867   0.55270   0.00000  Uiso   1.00
H1077  H     0.57898   0.03506   0.70656   0.00000  Uiso   1.00
H1078  H     0.38827   0.02239   0.82017   0.00000  Uiso   1.00
H1079  H     0.39053   0.31930   0.74562   0.00000  Uiso   1.00
H1080  H     0.44429   0.31213   0.64856   0.00000  Uiso   1.00
H1081  H     0.40312   0.27100   0.66931   0.00000  Uiso   1.00
H1082  H     0.46486   0.26077   0.66021   0.00000  Uiso   1.00
H1083  H     0.61029   0.11152   0.68548   0.00000  Uiso   1.00
H1084  H     0.65160   0.05712   0.62725   0.00000  Uiso   1.00
H1085  H     0.35675   0.04926   0.66199   0.00000  Uiso   1.00
H1086  H     0.36371   0.09326   0.61731   0.00000  Uiso   1.00
H1087  H     0.38896   0.06969   0.71934   0.00000  Uiso   1.00
H1088  H     0.58611   0.08516   0.91016   0.00000  Uiso   1.00
H1089  H     0.43508   0.06713   0.62325   0.00000  Uiso   1.00
H1090  H     0.47389   0.09167   0.64987   0.00000  Uiso   1.00
H1091  H     0.43497   0.12377   0.62644   0.00000  Uiso   1.00
H1092  H     0.35104   0.26226   0.78136   0.00000  Uiso   1.00
H1093  H     0.66057   0.21695   0.87660   0.00000  Uiso   1.00
H1094  H     0.66303   0.27269   0.87164   0.00000  Uiso   1.00
H1095  H     0.38413   0.24223   0.86095   0.00000  Uiso   1.00
H1096  H     0.58545   0.21779   0.85932   0.00000  Uiso   1.00
H1097  H     0.60139   0.28727   0.84110   0.00000  Uiso   1.00
H1098  H     0.55252   0.27946   0.81954   0.00000  Uiso   1.00
H1099  H     0.48210   0.19507   0.58884   0.00000  Uiso   1.00
H1100  H     0.61356   0.27537   0.76915   0.00000  Uiso   1.00
H1101  H     0.65142   0.09993   0.92656   0.00000  Uiso   1.00
H1102  H     0.60597   0.03827   0.97022   0.00000  Uiso   1.00
H1103  H     0.33645   0.03511   0.95625   0.00000  Uiso   1.00
H1104  H     0.62715   0.05001   0.52494   0.00000  Uiso   1.00
H1105  H     0.36223   0.15997   0.93070   0.00000  Uiso   1.00
H1106  H     0.34208   0.20761   0.96235   0.00000  Uiso   1.00
H1107  H     0.39385   0.27652   0.51439   0.00000  Uiso   1.00
H1108  H     0.36141   0.24387   0.56008   0.00000  Uiso   1.00
H1109  H     0.55288   0.08755   0.83690   0.00000  Uiso   1.00
H1110  H     0.45011   0.22849   0.54448   0.00000  Uiso   1.00
H1111  H     0.51350   0.06048   0.88508   0.00000  Uiso   1.00
H1112  H     0.58903   0.25751   0.66074   0.00000  Uiso   1.00
H1113  H     0.33367   0.27715   0.64761   0.00000  Uiso   1.00
H1114  H     0.64306   0.32256   0.69448   0.00000  Uiso   1.00
H1115  H     0.63838   0.31996   0.62701   0.00000  Uiso   1.00
H1116  H     0.61196   0.10832   0.60492   0.00000  Uiso   1.00
H1117  H     0.35995   0.14831   0.55401   0.00000  Uiso   1.00
H1118  H     0.64984   0.16708   0.62099   0.00000  Uiso   1.00
H1119  H     0.64710   0.18881   0.56075   0.00000  Uiso   1.00
H1120  H     0.41868   0.06017   0.83312   0.00000  Uiso   1.00
N1121  N     0.38093   0.16668   0.75002   0.00000  Uiso   1.00
N1122  N     0.63735   0.09630   0.96817   0.00000  Uiso   1.00
N1123  N     0.37172   0.19095   0.93176   0.00000  Uiso   1.00
N1124  N     0.37684   0.24833   0.51823   0.00000  Uiso   1.00
N1125  N     0.51946   0.09013   0.86991   0.00000  Uiso   1.00
N1126  N     0.59183   0.28306   0.68486   0.00000  Uiso   1.00
N1127  N     0.61906   0.16665   0.75000   0.00000  Uiso   1.00
N1128  N     0.62436   0.12700   0.57302   0.00000  Uiso   1.00
N1129  N     0.41310   0.04401   0.80061   0.00000  Uiso   1.00
N1130  N     0.42139   0.29939   0.73185   0.00000  Uiso   1.00
N1131  N     0.63879   0.10111   0.69431   0.00000  Uiso   1.00
N1132  N     0.40065   0.09762   0.70309   0.00000  Uiso   1.00
N1133  N     0.36111   0.23602   0.79612   0.00000  Uiso   1.00
N1134  N     0.59325   0.22439   0.81915   0.00000  Uiso   1.00
O1135  O     0.46179   0.22775   0.75001   0.00000  Uiso   1.00
O1136  O     0.53823   0.22774   0.75001   0.00000  Uiso   1.00
O1137  O     0.44280   0.16666   0.82681   0.00000  Uiso   1.00
O1138  O     0.51924   0.16665   0.82681   0.00000  Uiso   1.00
O1139  O     0.46177   0.10559   0.75000   0.00000  Uiso   1.00
O1140  O     0.53821   0.10558   0.75000   0.00000  Uiso   1.00
O1141  O     0.48076   0.16668   0.67319   0.00000  Uiso   1.00
O1142  O     0.55720   0.16667   0.67319   0.00000  Uiso   1.00
Zn1143 Zn    0.44896   0.16667   0.75000   0.00000  Uiso   1.00
Zn1144 Zn    0.55104   0.16666   0.75000   0.00000  Uiso   1.00
C1145  C     0.83462   0.24599   0.74364   0.00000  Uiso   1.00
C1146  C     0.78840   0.16570   0.91321   0.00000  Uiso   1.00
C1147  C     0.88107   0.30844   0.71344   0.00000  Uiso   1.00
C1148  C     0.80603   0.16538   0.85257   0.00000  Uiso   1.00
C1149  C     0.87967   0.01873   0.72174   0.00000  Uiso   1.00
C1150  C     0.83530   0.04171   0.74923   0.00000  Uiso   1.00
C1151  C     0.79166   0.02197   0.76564   0.00000  Uiso   1.00
C1152  C     0.79337   0.31410   0.74539   0.00000  Uiso   1.00
C1153  C     0.83671   0.28963   0.73179   0.00000  Uiso   1.00
C1154  C     0.98687   0.13443   0.72176   0.00000  Uiso   1.00
C1155  C     0.70130   0.13390   0.72344   0.00000  Uiso   1.00
C1156  C     0.81931   0.17424   0.98625   0.00000  Uiso   1.00
C1157  C     0.67995   0.19896   0.77654   0.00000  Uiso   1.00
C1158  C     0.96452   0.19763   0.77944   0.00000  Uiso   1.00
C1159  C     0.83372   0.08662   0.75117   0.00000  Uiso   1.00
C1160  C     0.86090   0.16626   0.64714   0.00000  Uiso   1.00
C1161  C     0.92858   0.12297   0.99944   0.00000  Uiso   1.00
C1162  C     0.87912   0.16224   0.58627   0.00000  Uiso   1.00
C1163  C     0.74659   0.19070   0.94586   0.00000  Uiso   1.00
C1164  C     0.74651   0.21489   0.99203   0.00000  Uiso   1.00
C1165  C     0.78363   0.20762   0.51071   0.00000  Uiso   1.00
C1166  C     0.98837   0.15955   0.57744   0.00000  Uiso   1.00
C1167  C     0.82124   0.15259   0.93696   0.00000  Uiso   1.00
C1168  C     0.76767   0.28516   0.67452   0.00000  Uiso   1.00
C1169  C     0.67194   0.07433   0.64812   0.00000  Uiso   1.00
C1170  C     0.77105   0.09546   0.64799   0.00000  Uiso   1.00
C1171  C     0.68315   0.24181   0.85440   0.00000  Uiso   1.00
C1172  C     0.92375   0.26879   0.81143   0.00000  Uiso   1.00
C1173  C     0.96804   0.05273   0.98069   0.00000  Uiso   1.00
C1174  C     0.97061   0.30216   0.66232   0.00000  Uiso   1.00
C1175  C     0.85367   0.16243   0.50870   0.00000  Uiso   1.00
C1176  C     0.89266   0.13270   0.97871   0.00000  Uiso   1.00
C1177  C     0.89277   0.11071   0.93123   0.00000  Uiso   1.00
C1178  C     0.85611   0.11857   0.91226   0.00000  Uiso   1.00
C1179  C     0.84757   0.17644   0.56245   0.00000  Uiso   1.00
C1180  C     0.92213   0.13867   0.55270   0.00000  Uiso   1.00
H1181  H     0.91231   0.03506   0.70656   0.00000  Uiso   1.00
H1182  H     0.72161   0.02239   0.82017   0.00000  Uiso   1.00
H1183  H     0.72386   0.31930   0.74562   0.00000  Uiso   1.00
H1184  H     0.77763   0.31213   0.64856   0.00000  Uiso   1.00
H1185  H     0.73645   0.27100   0.66931   0.00000  Uiso   1.00
H1186  H     0.79819   0.26077   0.66021   0.00000  Uiso   1.00
H1187  H     0.94362   0.11152   0.68548   0.00000  Uiso   1.00
H1188  H     0.98494   0.05712   0.62725   0.00000  Uiso   1.00
H1189  H     0.69008   0.04926   0.66199   0.00000  Uiso   1.00
H1190  H     0.69705   0.09326   0.61731   0.00000  Uiso   1.00
H1191  H     0.72229   0.06969   0.71934   0.00000  Uiso   1.00
H1192  H     0.91944   0.08516   0.91016   0.00000  Uiso   1.00
H1193  H     0.76842   0.06713   0.62325   0.00000  Uiso   1.00
H1194  H     0.80722   0.09167   0.64987   0.00000  Uiso   1.00
H1195  H     0.76831   0.12377   0.62644   0.00000  Uiso   1.00
H1196  H     0.68437   0.26226   0.78136   0.00000  Uiso   1.00
H1197  H     0.99390   0.21695   0.87660   0.00000  Uiso   1.00
H1198  H     0.99636   0.27269   0.87164   0.00000  Uiso   1.00
H1199  H     0.71747   0.24223   0.86095   0.00000  Uiso   1.00
H1200  H     0.91878   0.21779   0.85932   0.00000  Uiso   1.00
H1201  H     0.93472   0.28727   0.84110   0.00000  Uiso   1.00
H1202  H     0.88585   0.27946   0.81954   0.00000  Uiso   1.00
H1203  H     0.81543   0.19507   0.58884   0.00000  Uiso   1.00
H1204  H     0.94690   0.27537   0.76915   0.00000  Uiso   1.00
H1205  H     0.98475   0.09993   0.92656   0.00000  Uiso   1.00
H1206  H     0.93930   0.03827   0.97022   0.00000  Uiso   1.00
H1207  H     0.66978   0.03511   0.95625   0.00000  Uiso   1.00
H1208  H     0.96048   0.05001   0.52494   0.00000  Uiso   1.00
H1209  H     0.69556   0.15997   0.93070   0.00000  Uiso   1.00
H1210  H     0.67542   0.20761   0.96235   0.00000  Uiso   1.00
H1211  H     0.72718   0.27652   0.51439   0.00000  Uiso   1.00
H1212  H     0.69474   0.24387   0.56008   0.00000  Uiso   1.00
H1213  H     0.88621   0.08755   0.83690   0.00000  Uiso   1.00
H1214  H     0.78345   0.22849   0.54448   0.00000  Uiso   1.00
H1215  H     0.84683   0.06048   0.88508   0.00000  Uiso   1.00
H1216  H     0.92236   0.25751   0.66074   0.00000  Uiso   1.00
H1217  H     0.66700   0.27715   0.64761   0.00000  Uiso   1.00
H1218  H     0.97639   0.32256   0.69448   0.00000  Uiso   1.00
H1219  H     0.97172   0.31996   0.62701   0.00000  Uiso   1.00
H1220  H     0.94529   0.10832   0.60492   0.00000  Uiso   1.00
H1221  H     0.69328   0.14831   0.55401   0.00000  Uiso   1.00
H1222  H     0.98317   0.16708   0.62099   0.00000  Uiso   1.00
H1223  H     0.98043   0.18881   0.56075   0.00000  Uiso   1.00
H1224  H     0.75201   0.06017   0.83312   0.00000  Uiso   1.00
N1225  N     0.71426   0.16668   0.75002   0.00000  Uiso   1.00
N1226  N     0.97069   0.09630   0.96817   0.00000  Uiso   1.00
N1227  N     0.70505   0.19095   0.93176   0.00000  Uiso   1.00
N1228  N     0.71017   0.24833   0.51823   0.00000  Uiso   1.00
N1229  N     0.85280   0.09013   0.86991   0.00000  Uiso   1.00
N1230  N     0.92516   0.28306   0.68486   0.00000  Uiso   1.00
N1231  N     0.95239   0.16665   0.75000   0.00000  Uiso   1.00
N1232  N     0.95769   0.12700   0.57302   0.00000  Uiso   1.00
N1233  N     0.74643   0.04401   0.80061   0.00000  Uiso   1.00
N1234  N     0.75472   0.29939   0.73185   0.00000  Uiso   1.00
N1235  N     0.97213   0.10111   0.69431   0.00000  Uiso   1.00
N1236  N     0.73398   0.09762   0.70309   0.00000  Uiso   1.00
N1237  N     0.69444   0.23602   0.79612   0.00000  Uiso   1.00
N1238  N     0.92659   0.22439   0.81915   0.00000  Uiso   1.00
O1239  O     0.79512   0.22775   0.75001   0.00000  Uiso   1.00
O1240  O     0.87157   0.22774   0.75001   0.00000  Uiso   1.00
O1241  O     0.77613   0.16666   0.82681   0.00000  Uiso   1.00
O1242  O     0.85258   0.16665   0.82681   0.00000  Uiso   1.00
O1243  O     0.79510   0.10559   0.75000   0.00000  Uiso   1.00
O1244  O     0.87154   0.10558   0.75000   0.00000  Uiso   1.00
O1245  O     0.81409   0.16668   0.67319   0.00000  Uiso   1.00
O1246  O     0.89053   0.16667   0.67319   0.00000  Uiso   1.00
Zn1247 Zn    0.78229   0.16667   0.75000   0.00000  Uiso   1.00
Zn1248 Zn    0.88438   0.16666   0.75000   0.00000  Uiso   1.00
C1249  C     0.16796   0.57932   0.74364   0.00000  Uiso   1.00
C1250  C     0.12174   0.49903   0.91321   0.00000  Uiso   1.00
C1251  C     0.21440   0.64178   0.71344   0.00000  Uiso   1.00
C1252  C     0.13937   0.49871   0.85257   0.00000  Uiso   1.00
C1253  C     0.21300   0.35207   0.72174   0.00000  Uiso   1.00
C1254  C     0.16863   0.37505   0.74923   0.00000  Uiso   1.00
C1255  C     0.12499   0.35530   0.76564   0.00000  Uiso   1.00
C1256  C     0.12671   0.64744   0.74539   0.00000  Uiso   1.00
C1257  C     0.17004   0.62297   0.73179   0.00000  Uiso   1.00
C1258  C     0.32020   0.46777   0.72176   0.00000  Uiso   1.00
C1259  C     0.03463   0.46723   0.72344   0.00000  Uiso   1.00
C1260  C     0.15264   0.50757   0.98625   0.00000  Uiso   1.00
C1261  C     0.01328   0.53229   0.77654   0.00000  Uiso   1.00
C1262  C     0.29785   0.53096   0.77944   0.00000  Uiso   1.00
C1263  C     0.16706   0.41996   0.75117   0.00000  Uiso   1.00
C1264  C     0.19423   0.49960   0.64714   0.00000  Uiso   1.00
C1265  C     0.26191   0.45630   0.99944   0.00000  Uiso   1.00
C1266  C     0.21245   0.49557   0.58627   0.00000  Uiso   1.00
C1267  C     0.07993   0.52403   0.94586   0.00000  Uiso   1.00
C1268  C     0.07984   0.54822   0.99203   0.00000  Uiso   1.00
C1269  C     0.11696   0.54096   0.51071   0.00000  Uiso   1.00
C1270  C     0.32170   0.49289   0.57744   0.00000  Uiso   1.00
C1271  C     0.15458   0.48592   0.93696   0.00000  Uiso   1.00
C1272  C     0.10100   0.61849   0.67452   0.00000  Uiso   1.00
C1273  C     0.00528   0.40766   0.64812   0.00000  Uiso   1.00
C1274  C     0.10439   0.42879   0.64799   0.00000  Uiso   1.00
C1275  C     0.01648   0.57515   0.85440   0.00000  Uiso   1.00
C1276  C     0.25708   0.60212   0.81143   0.00000  Uiso   1.00
C1277  C     0.30138   0.38606   0.98069   0.00000  Uiso   1.00
C1278  C     0.30394   0.63549   0.66232   0.00000  Uiso   1.00
C1279  C     0.18700   0.49576   0.50870   0.00000  Uiso   1.00
C1280  C     0.22600   0.46603   0.97871   0.00000  Uiso   1.00
C1281  C     0.22611   0.44404   0.93123   0.00000  Uiso   1.00
C1282  C     0.18945   0.45190   0.91226   0.00000  Uiso   1.00
C1283  C     0.18090   0.50978   0.56245   0.00000  Uiso   1.00
C1284  C     0.25547   0.47200   0.55270   0.00000  Uiso   1.00
H1285  H     0.24565   0.36839   0.70656   0.00000  Uiso   1.00
H1286  H     0.05494   0.35572   0.82017   0.00000  Uiso   1.00
H1287  H     0.05719   0.65263   0.74562   0.00000  Uiso   1.00
H1288  H     0.11096   0.64547   0.64856   0.00000  Uiso   1.00
H1289  H     0.06979   0.60433   0.66931   0.00000  Uiso   1.00
H1290  H     0.13152   0.59411   0.66021   0.00000  Uiso   1.00
H1291  H     0.27696   0.44485   0.68548   0.00000  Uiso   1.00
H1292  H     0.31827   0.39045   0.62725   0.00000  Uiso   1.00
H1293  H     0.02341   0.38260   0.66199   0.00000  Uiso   1.00
H1294  H     0.03038   0.42660   0.61731   0.00000  Uiso   1.00
H1295  H     0.05562   0.40303   0.71934   0.00000  Uiso   1.00
H1296  H     0.25278   0.41850   0.91016   0.00000  Uiso   1.00
H1297  H     0.10175   0.40046   0.62325   0.00000  Uiso   1.00
H1298  H     0.14055   0.42500   0.64987   0.00000  Uiso   1.00
H1299  H     0.10164   0.45710   0.62644   0.00000  Uiso   1.00
H1300  H     0.01771   0.59559   0.78136   0.00000  Uiso   1.00
H1301  H     0.32723   0.55028   0.87660   0.00000  Uiso   1.00
H1302  H     0.32970   0.60603   0.87164   0.00000  Uiso   1.00
H1303  H     0.05080   0.57556   0.86095   0.00000  Uiso   1.00
H1304  H     0.25211   0.55113   0.85932   0.00000  Uiso   1.00
H1305  H     0.26806   0.62061   0.84110   0.00000  Uiso   1.00
H1306  H     0.21919   0.61279   0.81954   0.00000  Uiso   1.00
H1307  H     0.14877   0.52840   0.58884   0.00000  Uiso   1.00
H1308  H     0.28023   0.60870   0.76915   0.00000  Uiso   1.00
H1309  H     0.31808   0.43326   0.92656   0.00000  Uiso   1.00
H1310  H     0.27264   0.37161   0.97022   0.00000  Uiso   1.00
H1311  H     0.00311   0.36844   0.95625   0.00000  Uiso   1.00
H1312  H     0.29382   0.38334   0.52494   0.00000  Uiso   1.00
H1313  H     0.02889   0.49330   0.93070   0.00000  Uiso   1.00
H1314  H     0.00875   0.54094   0.96235   0.00000  Uiso   1.00
H1315  H     0.06051   0.60985   0.51439   0.00000  Uiso   1.00
H1316  H     0.02807   0.57720   0.56008   0.00000  Uiso   1.00
H1317  H     0.21954   0.42088   0.83690   0.00000  Uiso   1.00
H1318  H     0.11678   0.56182   0.54448   0.00000  Uiso   1.00
H1319  H     0.18016   0.39381   0.88508   0.00000  Uiso   1.00
H1320  H     0.25569   0.59084   0.66074   0.00000  Uiso   1.00
H1321  H     0.00034   0.61048   0.64761   0.00000  Uiso   1.00
H1322  H     0.30973   0.65589   0.69448   0.00000  Uiso   1.00
H1323  H     0.30505   0.65329   0.62701   0.00000  Uiso   1.00
H1324  H     0.27863   0.44165   0.60492   0.00000  Uiso   1.00
H1325  H     0.02661   0.48164   0.55401   0.00000  Uiso   1.00
H1326  H     0.31650   0.50041   0.62099   0.00000  Uiso   1.00
H1327  H     0.31376   0.52214   0.56075   0.00000  Uiso   1.00
H1328  H     0.08534   0.39351   0.83312   0.00000  Uiso   1.00
N1329  N     0.04760   0.50001   0.75002   0.00000  Uiso   1.00
N1330  N     0.30402   0.42963   0.96817   0.00000  Uiso   1.00
N1331  N     0.03838   0.52428   0.93176   0.00000  Uiso   1.00
N1332  N     0.04351   0.58166   0.51823   0.00000  Uiso   1.00
N1333  N     0.18613   0.42346   0.86991   0.00000  Uiso   1.00
N1334  N     0.25849   0.61640   0.68486   0.00000  Uiso   1.00
N1335  N     0.28573   0.49998   0.75000   0.00000  Uiso   1.00
N1336  N     0.29102   0.46033   0.57302   0.00000  Uiso   1.00
N1337  N     0.07976   0.37735   0.80061   0.00000  Uiso   1.00
N1338  N     0.08806   0.63273   0.73185   0.00000  Uiso   1.00
N1339  N     0.30546   0.43444   0.69431   0.00000  Uiso   1.00
N1340  N     0.06731   0.43096   0.70309   0.00000  Uiso   1.00
N1341  N     0.02777   0.56935   0.79612   0.00000  Uiso   1.00
N1342  N     0.25992   0.55773   0.81915   0.00000  Uiso   1.00
O1343  O     0.12846   0.56108   0.75001   0.00000  Uiso   1.00
O1344  O     0.20490   0.56107   0.75001   0.00000  Uiso   1.00
O1345  O     0.10947   0.50000   0.82681   0.00000  Uiso   1.00
O1346  O     0.18591   0.49999   0.82681   0.00000  Uiso   1.00
O1347  O     0.12843   0.43893   0.75000   0.00000  Uiso   1.00
O1348  O     0.20488   0.43892   0.75000   0.00000  Uiso   1.00
O1349  O     0.14742   0.50001   0.67319   0.00000  Uiso   1.00
O1350  O     0.22387   0.50000   0.67319   0.00000  Uiso   1.00
Zn1351 Zn    0.11562   0.50001   0.75000   0.00000  Uiso   1.00
Zn1352 Zn    0.21771   0.49999   0.75000   0.00000  Uiso   1.00
C1353  C     0.50129   0.57932   0.74364   0.00000  Uiso   1.00
C1354  C     0.45507   0.49903   0.91321   0.00000  Uiso   1.00
C1355  C     0.54773   0.64178   0.71344   0.00000  Uiso   1.00
C1356  C     0.47270   0.49871   0.85257   0.00000  Uiso   1.00
C1357  C     0.54633   0.35207   0.72174   0.00000  Uiso   1.00
C1358  C     0.50196   0.37505   0.74923   0.00000  Uiso   1.00
C1359  C     0.45832   0.35530   0.76564   0.00000  Uiso   1.00
C1360  C     0.46004   0.64744   0.74539   0.00000  Uiso   1.00
C1361  C     0.50337   0.62297   0.73179   0.00000  Uiso   1.00
C1362  C     0.65354   0.46777   0.72176   0.00000  Uiso   1.00
C1363  C     0.36796   0.46723   0.72344   0.00000  Uiso   1.00
C1364  C     0.48598   0.50757   0.98625   0.00000  Uiso   1.00
C1365  C     0.34661   0.53229   0.77654   0.00000  Uiso   1.00
C1366  C     0.63119   0.53096   0.77944   0.00000  Uiso   1.00
C1367  C     0.50039   0.41996   0.75117   0.00000  Uiso   1.00
C1368  C     0.52756   0.49960   0.64714   0.00000  Uiso   1.00
C1369  C     0.59524   0.45630   0.99944   0.00000  Uiso   1.00
C1370  C     0.54578   0.49557   0.58627   0.00000  Uiso   1.00
C1371  C     0.41326   0.52403   0.94586   0.00000  Uiso   1.00
C1372  C     0.41318   0.54822   0.99203   0.00000  Uiso   1.00
C1373  C     0.45030   0.54096   0.51071   0.00000  Uiso   1.00
C1374  C     0.65504   0.49289   0.57744   0.00000  Uiso   1.00
C1375  C     0.48791   0.48592   0.93696   0.00000  Uiso   1.00
C1376  C     0.43433   0.61849   0.67452   0.00000  Uiso   1.00
C1377  C     0.33861   0.40766   0.64812   0.00000  Uiso   1.00
C1378  C     0.43772   0.42879   0.64799   0.00000  Uiso   1.00
C1379  C     0.34981   0.57515   0.85440   0.00000  Uiso   1.00
C1380  C     0.59041   0.60212   0.81143   0.00000  Uiso   1.00
C1381  C     0.63471   0.38606   0.98069   0.00000  Uiso   1.00
C1382  C     0.63727   0.63549   0.66232   0.00000  Uiso   1.00
C1383  C     0.52034   0.49576   0.50870   0.00000  Uiso   1.00
C1384  C     0.55933   0.46603   0.97871   0.00000  Uiso   1.00
C1385  C     0.55944   0.44404   0.93123   0.00000  Uiso   1.00
C1386  C     0.52278   0.45190   0.91226   0.00000  Uiso   1.00
C1387  C     0.51424   0.50978   0.56245   0.00000  Uiso   1.00
C1388  C     0.58880   0.47200   0.55270   0.00000  Uiso   1.00
H1389  H     0.57898   0.36839   0.70656   0.00000  Uiso   1.00
H1390  H     0.38827   0.35572   0.82017   0.00000  Uiso   1.00
H1391  H     0.39053   0.65263   0.74562   0.00000  Uiso   1.00
H1392  H     0.44429   0.64547   0.64856   0.00000  Uiso   1.00
H1393  H     0.40312   0.60433   0.66931   0.00000  Uiso   1.00
H1394  H     0.46486   0.59411   0.66021   0.00000  Uiso   1.00
H1395  H     0.61029   0.44485   0.68548   0.00000  Uiso   1.00
H1396  H     0.65160   0.39045   0.62725   0.00000  Uiso   1.00
H1397  H     0.35675   0.38260   0.66199   0.00000  Uiso   1.00
H1398  H     0.36371   0.42660   0.61731   0.00000  Uiso   1.00
H1399  H     0.38896   0.40303   0.71934   0.00000  Uiso   1.00
H1400  H     0.58611   0.41850   0.91016   0.00000  Uiso   1.00
H1401  H     0.43508   0.40046   0.62325   0.00000  Uiso   1.00
H1402  H     0.47389   0.42500   0.64987   0.00000  Uiso   1.00
H1403  H     0.43497   0.45710   0.62644   0.00000  Uiso   1.00
H1404  H     0.35104   0.59559   0.78136   0.00000  Uiso   1.00
H1405  H     0.66057   0.55028   0.87660   0.00000  Uiso   1.00
H1406  H     0.66303   0.60603   0.87164   0.00000  Uiso   1.00
H1407  H     0.38413   0.57556   0.86095   0.00000  Uiso   1.00
H1408  H     0.58545   0.55113   0.85932   0.00000  Uiso   1.00
H1409  H     0.60139   0.62061   0.84110   0.00000  Uiso   1.00
H1410  H     0.55252   0.61279   0.81954   0.00000  Uiso   1.00
H1411  H     0.48210   0.52840   0.58884   0.00000  Uiso   1.00
H1412  H     0.61356   0.60870   0.76915   0.00000  Uiso   1.00
H1413  H     0.65142   0.43326   0.92656   0.00000  Uiso   1.00
H1414  H     0.60597   0.37161   0.97022   0.00000  Uiso   1.00
H1415  H     0.33645   0.36844   0.95625   0.00000  Uiso   1.00
H1416  H     0.62715   0.38334   0.52494   0.00000  Uiso   1.00
H1417  H     0.36223   0.49330   0.93070   0.00000  Uiso   1.00
H1418  H     0.34208   0.54094   0.96235   0.00000  Uiso   1.00
H1419  H     0.39385   0.60985   0.51439   0.00000  Uiso   1.00
H1420  H     0.36141   0.57720   0.56008   0.00000  Uiso   1.00
H1421  H     0.55288   0.42088   0.83690   0.00000  Uiso   1.00
H1422  H     0.45011   0.56182   0.54448   0.00000  Uiso   1.00
H1423  H     0.51350   0.39381   0.88508   0.00000  Uiso   1.00
H1424  H     0.58903   0.59084   0.66074   0.00000  Uiso   1.00
H1425  H     0.33367   0.61048   0.64761   0.00000  Uiso   1.00
H1426  H     0.64306   0.65589   0.69448   0.00000  Uiso   1.00
H1427  H     0.63838   0.65329   0.62701   0.00000  Uiso   1.00
H1428  H     0.61196   0.44165   0.60492   0.00000  Uiso   1.00
H1429  H     0.35995   0.48164   0.55401   0.00000  Uiso   1.00
H1430  H     0.64984   0.50041   0.62099   0.00000  Uiso   1.00
H1431  H     0.64710   0.52214   0.56075   0.00000  Uiso   1.00
H1432  H     0.41868   0.39351   0.83312   0.00000  Uiso   1.00
N1433  N     0.38093   0.50001   0.75002   0.00000  Uiso   1.00
N1434  N     0.63735   0.42963   0.96817   0.00000  Uiso   1.00
N1435  N     0.37172   0.52428   0.93176   0.00000  Uiso   1.00
N1436  N     0.37684   0.58166   0.51823   0.00000  Uiso   1.00
N1437  N     0.51946   0.42346   0.86991   0.00000  Uiso   1.00
N1438  N     0.59183   0.61640   0.68486   0.00000  Uiso   1.00
N1439  N     0.61906   0.49998   0.75000   0.00000  Uiso   1.00
N1440  N     0.62436   0.46033   0.57302   0.00000  Uiso   1.00
N1441  N     0.41310   0.37735   0.80061   0.00000  Uiso   1.00
N1442  N     0.42139   0.63273   0.73185   0.00000  Uiso   1.00
N1443  N     0.63879   0.43444   0.69431   0.00000  Uiso   1.00
N1444  N     0.40065   0.43096   0.70309   0.00000  Uiso   1.00
N1445  N     0.36111   0.56935   0.79612   0.00000  Uiso   1.00
N1446  N     0.59325   0.55773   0.81915   0.00000  Uiso   1.00
O1447  O     0.46179   0.56108   0.75001   0.00000  Uiso   1.00
O1448  O     0.53823   0.56107   0.75001   0.00000  Uiso   1.00
O1449  O     0.44280   0.50000   0.82681   0.00000  Uiso   1.00
O1450  O     0.51924   0.49999   0.82681   0.00000  Uiso   1.00
O1451  O     0.46177   0.43893   0.75000   0.00000  Uiso   1.00
O1452  O     0.53821   0.43892   0.75000   0.00000  Uiso   1.00
O1453  O     0.48076   0.50001   0.67319   0.00000  Uiso   1.00
O1454  O     0.55720   0.50000   0.67319   0.00000  Uiso   1.00
Zn1455 Zn    0.44896   0.50001   0.75000   0.00000  Uiso   1.00
Zn1456 Zn    0.55104   0.49999   0.75000   0.00000  Uiso   1.00
C1457  C     0.83462   0.57932   0.74364   0.00000  Uiso   1.00
C1458  C     0.78840   0.49903   0.91321   0.00000  Uiso   1.00
C1459  C     0.88107   0.64178   0.71344   0.00000  Uiso   1.00
C1460  C     0.80603   0.49871   0.85257   0.00000  Uiso   1.00
C1461  C     0.87967   0.35207   0.72174   0.00000  Uiso   1.00
C1462  C     0.83530   0.37505   0.74923   0.00000  Uiso   1.00
C1463  C     0.79166   0.35530   0.76564   0.00000  Uiso   1.00
C1464  C     0.79337   0.64744   0.74539   0.00000  Uiso   1.00
C1465  C     0.83671   0.62297   0.73179   0.00000  Uiso   1.00
C1466  C     0.98687   0.46777   0.72176   0.00000  Uiso   1.00
C1467  C     0.70130   0.46723   0.72344   0.00000  Uiso   1.00
C1468  C     0.81931   0.50757   0.98625   0.00000  Uiso   1.00
C1469  C     0.67995   0.53229   0.77654   0.00000  Uiso   1.00
C1470  C     0.96452   0.53096   0.77944   0.00000  Uiso   1.00
C1471  C     0.83372   0.41996   0.75117   0.00000  Uiso   1.00
C1472  C     0.86090   0.49960   0.64714   0.00000  Uiso   1.00
C1473  C     0.92858   0.45630   0.99944   0.00000  Uiso   1.00
C1474  C     0.87912   0.49557   0.58627   0.00000  Uiso   1.00
C1475  C     0.74659   0.52403   0.94586   0.00000  Uiso   1.00
C1476  C     0.74651   0.54822   0.99203   0.00000  Uiso   1.00
C1477  C     0.78363   0.54096   0.51071   0.00000  Uiso   1.00
C1478  C     0.98837   0.49289   0.57744   0.00000  Uiso   1.00
C1479  C     0.82124   0.48592   0.93696   0.00000  Uiso   1.00
C1480  C     0.76767   0.61849   0.67452   0.00000  Uiso   1.00
C1481  C     0.67194   0.40766   0.64812   0.00000  Uiso   1.00
C1482  C     0.77105   0.42879   0.64799   0.00000  Uiso   1.00
C1483  C     0.68315   0.57515   0.85440   0.00000  Uiso   1.00
C1484  C     0.92375   0.60212   0.81143   0.00000  Uiso   1.00
C1485  C     0.96804   0.38606   0.98069   0.00000  Uiso   1.00
C1486  C     0.97061   0.63549   0.66232   0.00000  Uiso   1.00
C1487  C     0.85367   0.49576   0.50870   0.00000  Uiso   1.00
C1488  C     0.89266   0.46603   0.97871   0.00000  Uiso   1.00
C1489  C     0.89277   0.44404   0.93123   0.00000  Uiso   1.00
C1490  C     0.85611   0.45190   0.91226   0.00000  Uiso   1.00
C1491  C     0.84757   0.50978   0.56245   0.00000  Uiso   1.00
C1492  C     0.92213   0.47200   0.55270   0.00000  Uiso   1.00
H1493  H     0.91231   0.36839   0.70656   0.00000  Uiso   1.00
H1494  H     0.72161   0.35572   0.82017   0.00000  Uiso   1.00
H1495  H     0.72386   0.65263   0.74562   0.00000  Uiso   1.00
H1496  H     0.77763   0.64547   0.64856   0.00000  Uiso   1.00
H1497  H     0.73645   0.60433   0.66931   0.00000  Uiso   1.00
H1498  H     0.79819   0.59411   0.66021   0.00000  Uiso   1.00
H1499  H     0.94362   0.44485   0.68548   0.00000  Uiso   1.00
H1500  H     0.98494   0.39045   0.62725   0.00000  Uiso   1.00
H1501  H     0.69008   0.38260   0.66199   0.00000  Uiso   1.00
H1502  H     0.69705   0.42660   0.61731   0.00000  Uiso   1.00
H1503  H     0.72229   0.40303   0.71934   0.00000  Uiso   1.00
H1504  H     0.91944   0.41850   0.91016   0.00000  Uiso   1.00
H1505  H     0.76842   0.40046   0.62325   0.00000  Uiso   1.00
H1506  H     0.80722   0.42500   0.64987   0.00000  Uiso   1.00
H1507  H     0.76831   0.45710   0.62644   0.00000  Uiso   1.00
H1508  H     0.68437   0.59559   0.78136   0.00000  Uiso   1.00
H1509  H     0.99390   0.55028   0.87660   0.00000  Uiso   1.00
H1510  H     0.99636   0.60603   0.87164   0.00000  Uiso   1.00
H1511  H     0.71747   0.57556   0.86095   0.00000  Uiso   1.00
H1512  H     0.91878   0.55113   0.85932   0.00000  Uiso   1.00
H1513  H     0.93472   0.62061   0.84110   0.00000  Uiso   1.00
H1514  H     0.88585   0.61279   0.81954   0.00000  Uiso   1.00
H1515  H     0.81543   0.52840   0.58884   0.00000  Uiso   1.00
H1516  H     0.94690   0.60870   0.76915   0.00000  Uiso   1.00
H1517  H     0.98475   0.43326   0.92656   0.00000  Uiso   1.00
H1518  H     0.93930   0.37161   0.97022   0.00000  Uiso   1.00
H1519  H     0.66978   0.36844   0.95625   0.00000  Uiso   1.00
H1520  H     0.96048   0.38334   0.52494   0.00000  Uiso   1.00
H1521  H     0.69556   0.49330   0.93070   0.00000  Uiso   1.00
H1522  H     0.67542   0.54094   0.96235   0.00000  Uiso   1.00
H1523  H     0.72718   0.60985   0.51439   0.00000  Uiso   1.00
H1524  H     0.69474   0.57720   0.56008   0.00000  Uiso   1.00
H1525  H     0.88621   0.42088   0.83690   0.00000  Uiso   1.00
H1526  H     0.78345   0.56182   0.54448   0.00000  Uiso   1.00
H1527  H     0.84683   0.39381   0.88508   0.00000  Uiso   1.00
H1528  H     0.92236   0.59084   0.66074   0.00000  Uiso   1.00
H1529  H     0.66700   0.61048   0.64761   0.00000  Uiso   1.00
H1530  H     0.97639   0.65589   0.69448   0.00000  Uiso   1.00
H1531  H     0.97172   0.65329   0.62701   0.00000  Uiso   1.00
H1532  H     0.94529   0.44165   0.60492   0.00000  Uiso   1.00
H1533  H     0.69328   0.48164   0.55401   0.00000  Uiso   1.00
H1534  H     0.98317   0.50041   0.62099   0.00000  Uiso   1.00
H1535  H     0.98043   0.52214   0.56075   0.00000  Uiso   1.00
H1536  H     0.75201   0.39351   0.83312   0.00000  Uiso   1.00
N1537  N     0.71426   0.50001   0.75002   0.00000  Uiso   1.00
N1538  N     0.97069   0.42963   0.96817   0.00000  Uiso   1.00
N1539  N     0.70505   0.52428   0.93176   0.00000  Uiso   1.00
N1540  N     0.71017   0.58166   0.51823   0.00000  Uiso   1.00
N1541  N     0.85280   0.42346   0.86991   0.00000  Uiso   1.00
N1542  N     0.92516   0.61640   0.68486   0.00000  Uiso   1.00
N1543  N     0.95239   0.49998   0.75000   0.00000  Uiso   1.00
N1544  N     0.95769   0.46033   0.57302   0.00000  Uiso   1.00
N1545  N     0.74643   0.37735   0.80061   0.00000  Uiso   1.00
N1546  N     0.75472   0.63273   0.73185   0.00000  Uiso   1.00
N1547  N     0.97213   0.43444   0.69431   0.00000  Uiso   1.00
N1548  N     0.73398   0.43096   0.70309   0.00000  Uiso   1.00
N1549  N     0.69444   0.56935   0.79612   0.00000  Uiso   1.00
N1550  N     0.92659   0.55773   0.81915   0.00000  Uiso   1.00
O1551  O     0.79512   0.56108   0.75001   0.00000  Uiso   1.00
O1552  O     0.87157   0.56107   0.75001   0.00000  Uiso   1.00
O1553  O     0.77613   0.50000   0.82681   0.00000  Uiso   1.00
O1554  O     0.85258   0.49999   0.82681   0.00000  Uiso   1.00
O1555  O     0.79510   0.43893   0.75000   0.00000  Uiso   1.00
O1556  O     0.87154   0.43892   0.75000   0.00000  Uiso   1.00
O1557  O     0.81409   0.50001   0.67319   0.00000  Uiso   1.00
O1558  O     0.89053   0.50000   0.67319   0.00000  Uiso   1.00
Zn1559 Zn    0.78229   0.50001   0.75000   0.00000  Uiso   1.00
Zn1560 Zn    0.88438   0.49999   0.75000   0.00000  Uiso   1.00
C1561  C     0.16796   0.91266   0.74364   0.00000  Uiso   1.00
C1562  C     0.12174   0.83236   0.91321   0.00000  Uiso   1.00
C1563  C     0.21440   0.97511   0.71344   0.00000  Uiso   1.00
C1564  C     0.13937   0.83205   0.85257   0.00000  Uiso   1.00
C1565  C     0.21300   0.68540   0.72174   0.00000  Uiso   1.00
C1566  C     0.16863   0.70838   0.74923   0.00000  Uiso   1.00
C1567  C     0.12499   0.68863   0.76564   0.00000  Uiso   1.00
C1568  C     0.12671   0.98077   0.74539   0.00000  Uiso   1.00
C1569  C     0.17004   0.95630   0.73179   0.00000  Uiso   1.00
C1570  C     0.32020   0.80110   0.72176   0.00000  Uiso   1.00
C1571  C     0.03463   0.80057   0.72344   0.00000  Uiso   1.00
C1572  C     0.15264   0.84090   0.98625   0.00000  Uiso   1.00
C1573  C     0.01328   0.86563   0.77654   0.00000  Uiso   1.00
C1574  C     0.29785   0.86430   0.77944   0.00000  Uiso   1.00
C1575  C     0.16706   0.75329   0.75117   0.00000  Uiso   1.00
C1576  C     0.19423   0.83293   0.64714   0.00000  Uiso   1.00
C1577  C     0.26191   0.78963   0.99944   0.00000  Uiso   1.00
C1578  C     0.21245   0.82890   0.58627   0.00000  Uiso   1.00
C1579  C     0.07993   0.85737   0.94586   0.00000  Uiso   1.00
C1580  C     0.07984   0.88156   0.99203   0.00000  Uiso   1.00
C1581  C     0.11696   0.87429   0.51071   0.00000  Uiso   1.00
C1582  C     0.32170   0.82622   0.57744   0.00000  Uiso   1.00
C1583  C     0.15458   0.81926   0.93696   0.00000  Uiso   1.00
C1584  C     0.10100   0.95183   0.67452   0.00000  Uiso   1.00
C1585  C     0.00528   0.74099   0.64812   0.00000  Uiso   1.00
C1586  C     0.10439   0.76213   0.64799   0.00000  Uiso   1.00
C1587  C     0.01648   0.90848   0.85440   0.00000  Uiso   1.00
C1588  C     0.25708   0.93545   0.81143   0.00000  Uiso   1.00
C1589  C     0.30138   0.71939   0.98069   0.00000  Uiso   1.00
C1590  C     0.30394   0.96883   0.66232   0.00000  Uiso   1.00
C1591  C     0.18700   0.82910   0.50870   0.00000  Uiso   1.00
C1592  C     0.22600   0.79937   0.97871   0.00000  Uiso   1.00
C1593  C     0.22611   0.77737   0.93123   0.00000  Uiso   1.00
C1594  C     0.18945   0.78524   0.91226   0.00000  Uiso   1.00
C1595  C     0.18090   0.84311   0.56245   0.00000  Uiso   1.00
C1596  C     0.25547   0.80534   0.55270   0.00000  Uiso   1.00
H1597  H     0.24565   0.70172   0.70656   0.00000  Uiso   1.00
H1598  H     0.05494   0.68906   0.82017   0.00000  Uiso   1.00
H1599  H     0.05719   0.98597   0.74562   0.00000  Uiso   1.00
H1600  H     0.11096   0.97880   0.64856   0.00000  Uiso   1.00
H1601  H     0.06979   0.93767   0.66931   0.00000  Uiso   1.00
H1602  H     0.13152   0.92744   0.66021   0.00000  Uiso   1.00
H1603  H     0.27696   0.77818   0.68548   0.00000  Uiso   1.00
H1604  H     0.31827   0.72378   0.62725   0.00000  Uiso   1.00
H1605  H     0.02341   0.71593   0.66199   0.00000  Uiso   1.00
H1606  H     0.03038   0.75993   0.61731   0.00000  Uiso   1.00
H1607  H     0.05562   0.73636   0.71934   0.00000  Uiso   1.00
H1608  H     0.25278   0.75183   0.91016   0.00000  Uiso   1.00
H1609  H     0.10175   0.73380   0.62325   0.00000  Uiso   1.00
H1610  H     0.14055   0.75834   0.64987   0.00000  Uiso   1.00
H1611  H     0.10164   0.79044   0.62644   0.00000  Uiso   1.00
H1612  H     0.01771   0.92893   0.78136   0.00000  Uiso   1.00
H1613  H     0.32723   0.88362   0.87660   0.00000  Uiso   1.00
H1614  H     0.32970   0.93936   0.87164   0.00000  Uiso   1.00
H1615  H     0.05080   0.90889   0.86095   0.00000  Uiso   1.00
H1616  H     0.25211   0.88446   0.85932   0.00000  Uiso   1.00
H1617  H     0.26806   0.95394   0.84110   0.00000  Uiso   1.00
H1618  H     0.21919   0.94613   0.81954   0.00000  Uiso   1.00
H1619  H     0.14877   0.86173   0.58884   0.00000  Uiso   1.00
H1620  H     0.28023   0.94204   0.76915   0.00000  Uiso   1.00
H1621  H     0.31808   0.76660   0.92656   0.00000  Uiso   1.00
H1622  H     0.27264   0.70494   0.97022   0.00000  Uiso   1.00
H1623  H     0.00311   0.70177   0.95625   0.00000  Uiso   1.00
H1624  H     0.29382   0.71667   0.52494   0.00000  Uiso   1.00
H1625  H     0.02889   0.82664   0.93070   0.00000  Uiso   1.00
H1626  H     0.00875   0.87428   0.96235   0.00000  Uiso   1.00
H1627  H     0.06051   0.94318   0.51439   0.00000  Uiso   1.00
H1628  H     0.02807   0.91054   0.56008   0.00000  Uiso   1.00
H1629  H     0.21954   0.75422   0.83690   0.00000  Uiso   1.00
H1630  H     0.11678   0.89515   0.54448   0.00000  Uiso   1.00
H1631  H     0.18016   0.72715   0.88508   0.00000  Uiso   1.00
H1632  H     0.25569   0.92417   0.66074   0.00000  Uiso   1.00
H1633  H     0.00034   0.94381   0.64761   0.00000  Uiso   1.00
H1634  H     0.30973   0.98922   0.69448   0.00000  Uiso   1.00
H1635  H     0.30505   0.98662   0.62701   0.00000  Uiso   1.00
H1636  H     0.27863   0.77498   0.60492   0.00000  Uiso   1.00
H1637  H     0.02661   0.81497   0.55401   0.00000  Uiso   1.00
H1638  H     0.31650   0.83374   0.62099   0.00000  Uiso   1.00
H1639  H     0.31376   0.85547   0.56075   0.00000  Uiso   1.00
H1640  H     0.08534   0.72684   0.83312   0.00000  Uiso   1.00
N1641  N     0.04760   0.83334   0.75002   0.00000  Uiso   1.00
N1642  N     0.30402   0.76297   0.96817   0.00000  Uiso   1.00
N1643  N     0.03838   0.85762   0.93176   0.00000  Uiso   1.00
N1644  N     0.04351   0.91499   0.51823   0.00000  Uiso   1.00
N1645  N     0.18613   0.75680   0.86991   0.00000  Uiso   1.00
N1646  N     0.25849   0.94973   0.68486   0.00000  Uiso   1.00
N1647  N     0.28573   0.83331   0.75000   0.00000  Uiso   1.00
N1648  N     0.29102   0.79367   0.57302   0.00000  Uiso   1.00
N1649  N     0.07976   0.71068   0.80061   0.00000  Uiso   1.00
N1650  N     0.08806   0.96606   0.73185   0.00000  Uiso   1.00
N1651  N     0.30546   0.76777   0.69431   0.00000  Uiso   1.00
N1652  N     0.06731   0.76429   0.70309   0.00000  Uiso   1.00
N1653  N     0.02777   0.90269   0.79612   0.00000  Uiso   1.00
N1654  N     0.25992   0.89106   0.81915   0.00000  Uiso   1.00
O1655  O     0.12846   0.89442   0.75001   0.00000  Uiso   1.00
O1656  O     0.20490   0.89441   0.75001   0.00000  Uiso   1.00
O1657  O     0.10947   0.83333   0.82681   0.00000  Uiso   1.00
O1658  O     0.18591   0.83332   0.82681   0.00000  Uiso   1.00
O1659  O     0.12843   0.77226   0.75000   0.00000  Uiso   1.00
O1660  O     0.20488   0.77225   0.75000   0.00000  Uiso   1.00
O1661  O     0.14742   0.83335   0.67319   0.00000  Uiso   1.00
O1662  O     0.22387   0.83334   0.67319   0.00000  Uiso   1.00
Zn1663 Zn    0.11562   0.83334   0.75000   0.00000  Uiso   1.00
Zn1664 Zn    0.21771   0.83333   0.75000   0.00000  Uiso   1.00
C1665  C     0.50129   0.91266   0.74364   0.00000  Uiso   1.00
C1666  C     0.45507   0.83236   0.91321   0.00000  Uiso   1.00
C1667  C     0.54773   0.97511   0.71344   0.00000  Uiso   1.00
C1668  C     0.47270   0.83205   0.85257   0.00000  Uiso   1.00
C1669  C     0.54633   0.68540   0.72174   0.00000  Uiso   1.00
C1670  C     0.50196   0.70838   0.74923   0.00000  Uiso   1.00
C1671  C     0.45832   0.68863   0.76564   0.00000  Uiso   1.00
C1672  C     0.46004   0.98077   0.74539   0.00000  Uiso   1.00
C1673  C     0.50337   0.95630   0.73179   0.00000  Uiso   1.00
C1674  C     0.65354   0.80110   0.72176   0.00000  Uiso   1.00
C1675  C     0.36796   0.80057   0.72344   0.00000  Uiso   1.00
C1676  C     0.48598   0.84090   0.98625   0.00000  Uiso   1.00
C1677  C     0.34661   0.86563   0.77654   0.00000  Uiso   1.00
C1678  C     0.63119   0.86430   0.77944   0.00000  Uiso   1.00
C1679  C     0.50039   0.75329   0.75117   0.00000  Uiso   1.00
C1680  C     0.52756   0.83293   0.64714   0.00000  Uiso   1.00
C1681  C     0.59524   0.78963   0.99944   0.00000  Uiso   1.00
C1682  C     0.54578   0.82890   0.58627   0.00000  Uiso   1.00
C1683  C     0.41326   0.85737   0.94586   0.00000  Uiso   1.00
C1684  C     0.41318   0.88156   0.99203   0.00000  Uiso   1.00
C1685  C     0.45030   0.87429   0.51071   0.00000  Uiso   1.00
C1686  C     0.65504   0.82622   0.57744   0.00000  Uiso   1.00
C1687  C     0.48791   0.81926   0.93696   0.00000  Uiso   1.00
C1688  C     0.43433   0.95183   0.67452   0.00000  Uiso   1.00
C1689  C     0.33861   0.74099   0.64812   0.00000  Uiso   1.00
C1690  C     0.43772   0.76213   0.64799   0.00000  Uiso   1.00
C1691  C     0.34981   0.90848   0.85440   0.00000  Uiso   1.00
C1692  C     0.59041   0.93545   0.81143   0.00000  Uiso   1.00
C1693  C     0.63471   0.71939   0.98069   0.00000  Uiso   1.00
C1694  C     0.63727   0.96883   0.66232   0.00000  Uiso   1.00
C1695  C     0.52034   0.82910   0.50870   0.00000  Uiso   1.00
C1696  C     0.55933   0.79937   0.97871   0.00000  Uiso   1.00
C1697  C     0.55944   0.77737   0.93123   0.00000  Uiso   1.00
C1698  C     0.52278   0.78524   0.91226   0.00000  Uiso   1.00
C1699  C     0.51424   0.84311   0.56245   0.00000  Uiso   1.00
C1700  C     0.58880   0.80534   0.55270   0.00000  Uiso   1.00
H1701  H     0.57898   0.70172   0.70656   0.00000  Uiso   1.00
H1702  H     0.38827   0.68906   0.82017   0.00000  Uiso   1.00
H1703  H     0.39053   0.98597   0.74562   0.00000  Uiso   1.00
H1704  H     0.44429   0.97880   0.64856   0.00000  Uiso   1.00
H1705  H     0.40312   0.93767   0.66931   0.00000  Uiso   1.00
H1706  H     0.46486   0.92744   0.66021   0.00000  Uiso   1.00
H1707  H     0.61029   0.77818   0.68548   0.00000  Uiso   1.00
H1708  H     0.65160   0.72378   0.62725   0.00000  Uiso   1.00
H1709  H     0.35675   0.71593   0.66199   0.00000  Uiso   1.00
H1710  H     0.36371   0.75993   0.61731   0.00000  Uiso   1.00
H1711  H     0.38896   0.73636   0.71934   0.00000  Uiso   1.00
H1712  H     0.58611   0.75183   0.91016   0.00000  Uiso   1.00
H1713  H     0.43508   0.73380   0.62325   0.00000  Uiso   1.00
H1714  H     0.47389   0.75834   0.64987   0.00000  Uiso   1.00
H1715  H     0.43497   0.79044   0.62644   0.00000  Uiso   1.00
H1716  H     0.35104   0.92893   0.78136   0.00000  Uiso   1.00
H1717  H     0.66057   0.88362   0.87660   0.00000  Uiso   1.00
H1718  H     0.66303   0.93936   0.87164   0.00000  Uiso   1.00
H1719  H     0.38413   0.90889   0.86095   0.00000  Uiso   1.00
H1720  H     0.58545   0.88446   0.85932   0.00000  Uiso   1.00
H1721  H     0.60139   0.95394   0.84110   0.00000  Uiso   1.00
H1722  H     0.55252   0.94613   0.81954   0.00000  Uiso   1.00
H1723  H     0.48210   0.86173   0.58884   0.00000  Uiso   1.00
H1724  H     0.61356   0.94204   0.76915   0.00000  Uiso   1.00
H1725  H     0.65142   0.76660   0.92656   0.00000  Uiso   1.00
H1726  H     0.60597   0.70494   0.97022   0.00000  Uiso   1.00
H1727  H     0.33645   0.70177   0.95625   0.00000  Uiso   1.00
H1728  H     0.62715   0.71667   0.52494   0.00000  Uiso   1.00
H1729  H     0.36223   0.82664   0.93070   0.00000  Uiso   1.00
H1730  H     0.34208   0.87428   0.96235   0.00000  Uiso   1.00
H1731  H     0.39385   0.94318   0.51439   0.00000  Uiso   1.00
H1732  H     0.36141   0.91054   0.56008   0.00000  Uiso   1.00
H1733  H     0.55288   0.75422   0.83690   0.00000  Uiso   1.00
H1734  H     0.45011   0.89515   0.54448   0.00000  Uiso   1.00
H1735  H     0.51350   0.72715   0.88508   0.00000  Uiso   1.00
H1736  H     0.58903   0.92417   0.66074   0.00000  Uiso   1.00
H1737  H     0.33367   0.94381   0.64761   0.00000  Uiso   1.00
H1738  H     0.64306   0.98922   0.69448   0.00000  Uiso   1.00
H1739  H     0.63838   0.98662   0.62701   0.00000  Uiso   1.00
H1740  H     0.61196   0.77498   0.60492   0.00000  Uiso   1.00
H1741  H     0.35995   0.81497   0.55401   0.00000  Uiso   1.00
H1742  H     0.64984   0.83374   0.62099   0.00000  Uiso   1.00
H1743  H     0.64710   0.85547   0.56075   0.00000  Uiso   1.00
H1744  H     0.41868   0.72684   0.83312   0.00000  Uiso   1.00
N1745  N     0.38093   0.83334   0.75002   0.00000  Uiso   1.00
N1746  N     0.63735   0.76297   0.96817   0.00000  Uiso   1.00
N1747  N     0.37172   0.85762   0.93176   0.00000  Uiso   1.00
N1748  N     0.37684   0.91499   0.51823   0.00000  Uiso   1.00
N1749  N     0.51946   0.75680   0.86991   0.00000  Uiso   1.00
N1750  N     0.59183   0.94973   0.68486   0.00000  Uiso   1.00
N1751  N     0.61906   0.83331   0.75000   0.00000  Uiso   1.00
N1752  N     0.62436   0.79367   0.57302   0.00000  Uiso   1.00
N1753  N     0.41310   0.71068   0.80061   0.00000  Uiso   1.00
N1754  N     0.42139   0.96606   0.73185   0.00000  Uiso   1.00
N1755  N     0.63879   0.76777   0.69431   0.00000  Uiso   1.00
N1756  N     0.40065   0.76429   0.70309   0.00000  Uiso   1.00
N1757  N     0.36111   0.90269   0.79612   0.00000  Uiso   1.00
N1758  N     0.59325   0.89106   0.81915   0.00000  Uiso   1.00
O1759  O     0.46179   0.89442   0.75001   0.00000  Uiso   1.00
O1760  O     0.53823   0.89441   0.75001   0.00000  Uiso   1.00
O1761  O     0.44280   0.83333   0.82681   0.00000  Uiso   1.00
O1762  O     0.51924   0.83332   0.82681   0.00000  Uiso   1.00
O1763  O     0.46177   0.77226   0.75000   0.00000  Uiso   1.00
O1764  O     0.53821   0.77225   0.75000   0.00000  Uiso   1.00
O1765  O     0.48076   0.83335   0.67319   0.00000  Uiso   1.00
O1766  O     0.55720   0.83334   0.67319   0.00000  Uiso   1.00
Zn1767 Zn    0.44896   0.83334   0.75000   0.00000  Uiso   1.00
Zn1768 Zn    0.55104   0.83333   0.75000   0.00000  Uiso   1.00
C1769  C     0.83462   0.91266   0.74364   0.00000  Uiso   1.00
C1770  C     0.78840   0.83236   0.91321   0.00000  Uiso   1.00
C1771  C     0.88107   0.97511   0.71344   0.00000  Uiso   1.00
C1772  C     0.80603   0.83205   0.85257   0.00000  Uiso   1.00
C1773  C     0.87967   0.68540   0.72174   0.00000  Uiso   1.00
C1774  C     0.83530   0.70838   0.74923   0.00000  Uiso   1.00
C1775  C     0.79166   0.68863   0.76564   0.00000  Uiso   1.00
C1776  C     0.79337   0.98077   0.74539   0.00000  Uiso   1.00
C1777  C     0.83671   0.95630   0.73179   0.00000  Uiso   1.00
C1778  C     0.98687   0.80110   0.72176   0.00000  Uiso   1.00
C1779  C     0.70130   0.80057   0.72344   0.00000  Uiso   1.00
C1780  C     0.81931   0.84090   0.98625   0.00000  Uiso   1.00
C1781  C     0.67995   0.86563   0.77654   0.00000  Uiso   1.00
C1782  C     0.96452   0.86430   0.77944   0.00000  Uiso   1.00
C1783  C     0.83372   0.75329   0.75117   0.00000  Uiso   1.00
C1784  C     0.86090   0.83293   0.64714   0.00000  Uiso   1.00
C1785  C     0.92858   0.78963   0.99944   0.00000  Uiso   1.00
C1786  C     0.87912   0.82890   0.58627   0.00000  Uiso   1.00
C1787  C     0.74659   0.85737   0.94586   0.00000  Uiso   1.00
C1788  C     0.74651   0.88156   0.99203   0.00000  Uiso   1.00
C1789  C     0.78363   0.87429   0.51071   0.00000  Uiso   1.00
C1790  C     0.98837   0.82622   0.57744   0.00000  Uiso   1.00
C1791  C     0.82124   0.81926   0.93696   0.00000  Uiso   1.00
C1792  C     0.76767   0.95183   0.67452   0.00000  Uiso   1.00
C1793  C     0.67194   0.74099   0.64812   0.00000  Uiso   1.00
C1794  C     0.77105   0.76213   0.64799   0.00000  Uiso   1.00
C1795  C     0.68315   0.90848   0.85440   0.00000  Uiso   1.00
C1796  C     0.92375   0.93545   0.81143   0.00000  Uiso   1.00
C1797  C     0.96804   0.71939   0.98069   0.00000  Uiso   1.00
C1798  C     0.97061   0.96883   0.66232   0.00000  Uiso   1.00
C1799  C     0.85367   0.82910   0.50870   0.00000  Uiso   1.00
C1800  C     0.89266   0.79937   0.97871   0.00000  Uiso   1.00
C1801  C     0.89277   0.77737   0.93123   0.00000  Uiso   1.00
C1802  C     0.85611   0.78524   0.91226   0.00000  Uiso   1.00
C1803  C     0.84757   0.84311   0.56245   0.00000  Uiso   1.00
C1804  C     0.92213   0.80534   0.55270   0.00000  Uiso   1.00
H1805  H     0.91231   0.70172   0.70656   0.00000  Uiso   1.00
H1806  H     0.72161   0.68906   0.82017   0.00000  Uiso   1.00
H1807  H     0.72386   0.98597   0.74562   0.00000  Uiso   1.00
H1808  H     0.77763   0.97880   0.64856   0.00000  Uiso   1.00
H1809  H     0.73645   0.93767   0.66931   0.00000  Uiso   1.00
H1810  H     0.79819   0.92744   0.66021   0.00000  Uiso   1.00
H1811  H     0.94362   0.77818   0.68548   0.00000  Uiso   1.00
H1812  H     0.98494   0.72378   0.62725   0.00000  Uiso   1.00
H1813  H     0.69008   0.71593   0.66199   0.00000  Uiso   1.00
H1814  H     0.69705   0.75993   0.61731   0.00000  Uiso   1.00
H1815  H     0.72229   0.73636   0.71934   0.00000  Uiso   1.00
H1816  H     0.91944   0.75183   0.91016   0.00000  Uiso   1.00
H1817  H     0.76842   0.73380   0.62325   0.00000  Uiso   1.00
H1818  H     0.80722   0.75834   0.64987   0.00000  Uiso   1.00
H1819  H     0.76831   0.79044   0.62644   0.00000  Uiso   1.00
H1820  H     0.68437   0.92893   0.78136   0.00000  Uiso   1.00
H1821  H     0.99390   0.88362   0.87660   0.00000  Uiso   1.00
H1822  H     0.99636   0.93936   0.87164   0.00000  Uiso   1.00
H1823  H     0.71747   0.90889   0.86095   0.00000  Uiso   1.00
H1824  H     0.91878   0.88446   0.85932   0.00000  Uiso   1.00
H1825  H     0.93472   0.95394   0.84110   0.00000  Uiso   1.00
H1826  H     0.88585   0.94613   0.81954   0.00000  Uiso   1.00
H1827  H     0.81543   0.86173   0.58884   0.00000  Uiso   1.00
H1828  H     0.94690   0.94204   0.76915   0.00000  Uiso   1.00
H1829  H     0.98475   0.76660   0.92656   0.00000  Uiso   1.00
H1830  H     0.93930   0.70494   0.97022   0.00000  Uiso   1.00
H1831  H     0.66978   0.70177   0.95625   0.00000  Uiso   1.00
H1832  H     0.96048   0.71667   0.52494   0.00000  Uiso   1.00
H1833  H     0.69556   0.82664   0.93070   0.00000  Uiso   1.00
H1834  H     0.67542   0.87428   0.96235   0.00000  Uiso   1.00
H1835  H     0.72718   0.94318   0.51439   0.00000  Uiso   1.00
H1836  H     0.69474   0.91054   0.56008   0.00000  Uiso   1.00
H1837  H     0.88621   0.75422   0.83690   0.00000  Uiso   1.00
H1838  H     0.78345   0.89515   0.54448   0.00000  Uiso   1.00
H1839  H     0.84683   0.72715   0.88508   0.00000  Uiso   1.00
H1840  H     0.92236   0.92417   0.66074   0.00000  Uiso   1.00
H1841  H     0.66700   0.94381   0.64761   0.00000  Uiso   1.00
H1842  H     0.97639   0.98922   0.69448   0.00000  Uiso   1.00
H1843  H     0.97172   0.98662   0.62701   0.00000  Uiso   1.00
H1844  H     0.94529   0.77498   0.60492   0.00000  Uiso   1.00
H1845  H     0.69328   0.81497   0.55401   0.00000  Uiso   1.00
H1846  H     0.98317   0.83374   0.62099   0.00000  Uiso   1.00
H1847  H     0.98043   0.85547   0.56075   0.00000  Uiso   1.00
H1848  H     0.75201   0.72684   0.83312   0.00000  Uiso   1.00
N1849  N     0.71426   0.83334   0.75002   0.00000  Uiso   1.00
N1850  N     0.97069   0.76297   0.96817   0.00000  Uiso   1.00
N1851  N     0.70505   0.85762   0.93176   0.00000  Uiso   1.00
N1852  N     0.71017   0.91499   0.51823   0.00000  Uiso   1.00
N1853  N     0.85280   0.75680   0.86991   0.00000  Uiso   1.00
N1854  N     0.92516   0.94973   0.68486   0.00000  Uiso   1.00
N1855  N     0.95239   0.83331   0.75000   0.00000  Uiso   1.00
N1856  N     0.95769   0.79367   0.57302   0.00000  Uiso   1.00
N1857  N     0.74643   0.71068   0.80061   0.00000  Uiso   1.00
N1858  N     0.75472   0.96606   0.73185   0.00000  Uiso   1.00
N1859  N     0.97213   0.76777   0.69431   0.00000  Uiso   1.00
N1860  N     0.73398   0.76429   0.70309   0.00000  Uiso   1.00
N1861  N     0.69444   0.90269   0.79612   0.00000  Uiso   1.00
N1862  N     0.92659   0.89106   0.81915   0.00000  Uiso   1.00
O1863  O     0.79512   0.89442   0.75001   0.00000  Uiso   1.00
O1864  O     0.87157   0.89441   0.75001   0.00000  Uiso   1.00
O1865  O     0.77613   0.83333   0.82681   0.00000  Uiso   1.00
O1866  O     0.85258   0.83332   0.82681   0.00000  Uiso   1.00
O1867  O     0.79510   0.77226   0.75000   0.00000  Uiso   1.00
O1868  O     0.87154   0.77225   0.75000   0.00000  Uiso   1.00
O1869  O     0.81409   0.83335   0.67319   0.00000  Uiso   1.00
O1870  O     0.89053   0.83334   0.67319   0.00000  Uiso   1.00
Zn1871 Zn    0.78229   0.83334   0.75000   0.00000  Uiso   1.00
Zn1872 Zn    0.88438   0.83333   0.75000   0.00000  Uiso   1.00
loop_
_geom_bond_atom_site_label_1
_geom_bond_atom_site_label_2
_geom_bond_distance
_geom_bond_site_symmetry_2
_ccdc_geom_bond_type
C1     C9      1.445   .     S
C1     O95     1.302   .     A
C1     O96     1.302   .     A
C2     C4      1.481   .     S
C2     C19     1.403   .     A
C2     C23     1.415   .     A
C3     N86     1.435   .     S
C3     C9      1.408   .     A
C3     C317    1.395   .     S
C4     O98     1.305   .     A
C4     O97     1.315   .     A
C5     H37     1.079   .     S
C5     C6      1.400   .     A
C5     C627    1.395   1_545 S
C6     C15     1.431   .     S
C6     C7      1.405   .     A
C7     N89     1.443   .     S
C7     C632    1.383   1_545 S
C8     C9      1.399   .     A
C8     N90     1.427   .     S
C8     C319    1.383   .     S
C10    N87     1.386   .     A
C10    N91     1.431   .     S
C10    C115    1.450   .     S
C11    N92     1.423   .     S
C11    N81     1.377   .     A
C11    C218    1.450   1_455 S
C12    C23     1.416   .     A
C12    C957    1.414   .     S
C12    C967    1.418   .     S
C13    N81     1.376   .     A
C13    N93     1.415   .     S
C13    C222    1.439   1_455 S
C14    N87     1.368   .     A
C14    N94     1.426   .     S
C14    C117    1.439   .     S
C15    O100    1.301   .     A
C15    O99     1.296   .     A
C16    O102    1.314   .     A
C16    O101    1.309   .     A
C16    C18     1.482   .     S
C17    N82     1.428   .     S
C17    C32     1.412   .     A
C17    C972    1.402   .     S
C18    C35     1.394   .     A
C18    C36     1.411   .     A
C19    C20     1.403   .     A
C19    N83     1.430   .     S
C20    C957    1.394   .     S
C20    N1020   1.432   .     S
C21    H70     1.079   .     S
C21    C948    1.414   1_554 S
C21    C956    1.394   1_554 S
C22    N88     1.447   .     S
C22    H78     1.109   .     S
C22    H79     1.110   .     S
C22    H181    1.109   .     S
C23    C34     1.416   .     A
C24    H42     1.110   .     S
C24    H41     1.108   .     S
C24    N90     1.450   .     S
C24    H40     1.112   .     S
C25    H45     1.104   .     S
C25    H46     1.107   .     S
C25    H252    1.108   1_455 S
C25    N299    1.447   1_455 S
C26    H50     1.107   .     S
C26    N92     1.453   .     S
C26    H49     1.108   .     S
C26    H51     1.111   .     S
C27    H55     1.108   .     S
C27    N93     1.441   .     S
C27    H261    1.110   1_455 S
C27    H262    1.111   1_455 S
C28    H57     1.108   .     S
C28    N94     1.448   .     S
C28    H60     1.106   .     S
C28    H58     1.109   .     S
C29    H62     1.111   .     S
C29    N82     1.448   .     S
C29    H167    1.111   .     S
C29    H1000   1.110   .     S
C30    H74     1.110   .     S
C30    N86     1.444   .     S
C30    H75     1.109   .     S
C30    H177    1.107   .     S
C31    C35     1.402   .     A
C31    C948    1.418   1_554 S
C31    C968    1.419   1_554 S
C32    C33     1.398   .     A
C32    C967    1.419   .     S
C33    C34     1.390   .     A
C33    H48     1.082   .     S
C34    N85     1.434   .     S
C35    H59     1.078   .     S
C36    N88     1.409   .     S
C36    C953    1.402   1_554 S
H38    N89     1.045   .     S
H39    N90     1.031   .     S
H43    N91     1.016   .     S
H44    C129    1.108   .     S
H47    N92     1.030   .     S
H52    N93     1.025   .     S
H53    C131    1.110   .     S
H54    C131    1.111   .     S
H56    N94     1.031   .     S
H61    N82     1.031   .     S
H63    C237    1.111   1_455 S
H64    C965    1.110   1_554 S
H65    N83     1.043   .     S
H66    N83     1.045   .     S
H67    N84     1.046   .     S
H68    N84     1.043   .     S
H69    N85     1.046   .     S
H71    N85     1.046   .     S
H72    N86     1.032   .     S
H73    C238    1.107   1_455 S
H76    N88     1.021   .     S
H77    C230    1.109   1_455 S
H80    N89     1.046   .     S
N81    Zn103   2.042   .     S
N84    C956    1.432   1_554 S
N87    Zn104   2.042   .     S
N91    C129    1.447   .     S
O95    Zn103   2.005   .     S
O96    Zn104   1.972   .     S
O97    Zn103   1.962   .     S
O98    Zn104   1.883   .     S
O99    Zn103   1.972   .     S
O100   Zn104   2.005   .     S
O101   Zn103   1.883   .     S
O102   Zn104   1.962   .     S
C105   C113    1.445   .     S
C105   O199    1.302   .     A
C105   O200    1.302   .     A
C106   C108    1.481   .     S
C106   C123    1.403   .     A
C106   C127    1.415   .     A
C107   N190    1.435   .     S
C107   C113    1.408   .     A
C107   C421    1.395   .     S
C108   O202    1.305   .     A
C108   O201    1.315   .     A
C109   H141    1.079   .     S
C109   C110    1.400   .     A
C109   C731    1.395   1_545 S
C110   C119    1.431   .     S
C110   C111    1.405   .     A
C111   N193    1.443   .     S
C111   C736    1.383   1_545 S
C112   C113    1.399   .     A
C112   N194    1.427   .     S
C112   C423    1.383   .     S
C114   N191    1.386   .     A
C114   N195    1.431   .     S
C114   C219    1.450   .     S
C115   N196    1.423   .     S
C115   N185    1.377   .     A
C116   C127    1.416   .     A
C116   C1061   1.414   .     S
C116   C1071   1.418   .     S
C117   N185    1.376   .     A
C117   N197    1.415   .     S
C118   N191    1.368   .     A
C118   N198    1.426   .     S
C118   C221    1.439   .     S
C119   O204    1.301   .     A
C119   O203    1.296   .     A
C120   O206    1.314   .     A
C120   O205    1.309   .     A
C120   C122    1.482   .     S
C121   N186    1.428   .     S
C121   C136    1.412   .     A
C121   C1076   1.402   .     S
C122   C139    1.394   .     A
C122   C140    1.411   .     A
C123   C124    1.403   .     A
C123   N187    1.430   .     S
C124   C1061   1.394   .     S
C124   N1124   1.432   .     S
C125   H174    1.079   .     S
C125   C1052   1.414   1_554 S
C125   C1060   1.394   1_554 S
C126   N192    1.447   .     S
C126   H182    1.109   .     S
C126   H183    1.110   .     S
C126   H285    1.109   .     S
C127   C138    1.416   .     A
C128   H146    1.110   .     S
C128   H145    1.108   .     S
C128   N194    1.450   .     S
C128   H144    1.112   .     S
C129   H149    1.104   .     S
C129   H150    1.107   .     S
C130   H154    1.107   .     S
C130   N196    1.453   .     S
C130   H153    1.108   .     S
C130   H155    1.111   .     S
C131   H159    1.108   .     S
C131   N197    1.441   .     S
C132   H161    1.108   .     S
C132   N198    1.448   .     S
C132   H164    1.106   .     S
C132   H162    1.109   .     S
C133   H166    1.111   .     S
C133   N186    1.448   .     S
C133   H271    1.111   .     S
C133   H1104   1.110   .     S
C134   H178    1.110   .     S
C134   N190    1.444   .     S
C134   H179    1.109   .     S
C134   H281    1.107   .     S
C135   C139    1.402   .     A
C135   C1052   1.418   1_554 S
C135   C1072   1.419   1_554 S
C136   C137    1.398   .     A
C136   C1071   1.419   .     S
C137   C138    1.390   .     A
C137   H152    1.082   .     S
C138   N189    1.434   .     S
C139   H163    1.078   .     S
C140   N192    1.409   .     S
C140   C1057   1.402   1_554 S
H142   N193    1.045   .     S
H143   N194    1.031   .     S
H147   N195    1.016   .     S
H148   C233    1.108   .     S
H151   N196    1.030   .     S
H156   N197    1.025   .     S
H157   C235    1.110   .     S
H158   C235    1.111   .     S
H160   N198    1.031   .     S
H165   N186    1.031   .     S
H168   C1069   1.110   1_554 S
H169   N187    1.043   .     S
H170   N187    1.045   .     S
H171   N188    1.046   .     S
H172   N188    1.043   .     S
H173   N189    1.046   .     S
H175   N189    1.046   .     S
H176   N190    1.032   .     S
H180   N192    1.021   .     S
H184   N193    1.046   .     S
N185   Zn207   2.042   .     S
N188   C1060   1.432   1_554 S
N191   Zn208   2.042   .     S
N195   C233    1.447   .     S
O199   Zn207   2.005   .     S
O200   Zn208   1.972   .     S
O201   Zn207   1.962   .     S
O202   Zn208   1.883   .     S
O203   Zn207   1.972   .     S
O204   Zn208   2.005   .     S
O205   Zn207   1.883   .     S
O206   Zn208   1.962   .     S
C209   C217    1.445   .     S
C209   O303    1.302   .     A
C209   O304    1.302   .     A
C210   C212    1.481   .     S
C210   C227    1.403   .     A
C210   C231    1.415   .     A
C211   N294    1.435   .     S
C211   C217    1.408   .     A
C211   C525    1.395   .     S
C212   O306    1.305   .     A
C212   O305    1.315   .     A
C213   H245    1.079   .     S
C213   C214    1.400   .     A
C213   C835    1.395   1_545 S
C214   C223    1.431   .     S
C214   C215    1.405   .     A
C215   N297    1.443   .     S
C215   C840    1.383   1_545 S
C216   C217    1.399   .     A
C216   N298    1.427   .     S
C216   C527    1.383   .     S
C218   N295    1.386   .     A
C218   N299    1.431   .     S
C218   C11     1.450   1_655 S
C219   N300    1.423   .     S
C219   N289    1.377   .     A
C220   C231    1.416   .     A
C220   C1165   1.414   .     S
C220   C1175   1.418   .     S
C221   N289    1.376   .     A
C221   N301    1.415   .     S
C222   N295    1.368   .     A
C222   N302    1.426   .     S
C222   C13     1.439   1_655 S
C223   O308    1.301   .     A
C223   O307    1.296   .     A
C224   O310    1.314   .     A
C224   O309    1.309   .     A
C224   C226    1.482   .     S
C225   N290    1.428   .     S
C225   C240    1.412   .     A
C225   C1180   1.402   .     S
C226   C243    1.394   .     A
C226   C244    1.411   .     A
C227   C228    1.403   .     A
C227   N291    1.430   .     S
C228   C1165   1.394   .     S
C228   N1228   1.432   .     S
C229   H278    1.079   .     S
C229   C1156   1.414   1_554 S
C229   C1164   1.394   1_554 S
C230   N296    1.447   .     S
C230   H286    1.109   .     S
C230   H287    1.110   .     S
C230   H77     1.109   1_655 S
C231   C242    1.416   .     A
C232   H250    1.110   .     S
C232   H249    1.108   .     S
C232   N298    1.450   .     S
C232   H248    1.112   .     S
C233   H253    1.104   .     S
C233   H254    1.107   .     S
C234   H258    1.107   .     S
C234   N300    1.453   .     S
C234   H257    1.108   .     S
C234   H259    1.111   .     S
C235   H263    1.108   .     S
C235   N301    1.441   .     S
C236   H265    1.108   .     S
C236   N302    1.448   .     S
C236   H268    1.106   .     S
C236   H266    1.109   .     S
C237   H270    1.111   .     S
C237   N290    1.448   .     S
C237   H63     1.111   1_655 S
C237   H1208   1.110   .     S
C238   H282    1.110   .     S
C238   N294    1.444   .     S
C238   H283    1.109   .     S
C238   H73     1.107   1_655 S
C239   C243    1.402   .     A
C239   C1156   1.418   1_554 S
C239   C1176   1.419   1_554 S
C240   C241    1.398   .     A
C240   C1175   1.419   .     S
C241   C242    1.390   .     A
C241   H256    1.082   .     S
C242   N293    1.434   .     S
C243   H267    1.078   .     S
C244   N296    1.409   .     S
C244   C1161   1.402   1_554 S
H246   N297    1.045   .     S
H247   N298    1.031   .     S
H251   N299    1.016   .     S
H252   C25     1.108   1_655 S
H255   N300    1.030   .     S
H260   N301    1.025   .     S
H261   C27     1.110   1_655 S
H262   C27     1.111   1_655 S
H264   N302    1.031   .     S
H269   N290    1.031   .     S
H272   C1173   1.110   1_554 S
H273   N291    1.043   .     S
H274   N291    1.045   .     S
H275   N292    1.046   .     S
H276   N292    1.043   .     S
H277   N293    1.046   .     S
H279   N293    1.046   .     S
H280   N294    1.032   .     S
H284   N296    1.021   .     S
H288   N297    1.046   .     S
N289   Zn311   2.042   .     S
N292   C1164   1.432   1_554 S
N295   Zn312   2.042   .     S
N299   C25     1.447   1_655 S
O303   Zn311   2.005   .     S
O304   Zn312   1.972   .     S
O305   Zn311   1.962   .     S
O306   Zn312   1.883   .     S
O307   Zn311   1.972   .     S
O308   Zn312   2.005   .     S
O309   Zn311   1.883   .     S
O310   Zn312   1.962   .     S
C313   C321    1.445   .     S
C313   O407    1.302   .     A
C313   O408    1.302   .     A
C314   C316    1.481   .     S
C314   C331    1.403   .     A
C314   C335    1.415   .     A
C315   N398    1.435   .     S
C315   C321    1.408   .     A
C315   C629    1.395   .     S
C316   O410    1.305   .     A
C316   O409    1.315   .     A
C317   H349    1.079   .     S
C317   C318    1.400   .     A
C318   C327    1.431   .     S
C318   C319    1.405   .     A
C319   N401    1.443   .     S
C320   C321    1.399   .     A
C320   N402    1.427   .     S
C320   C631    1.383   .     S
C322   N399    1.386   .     A
C322   N403    1.431   .     S
C322   C427    1.450   .     S
C323   N404    1.423   .     S
C323   N393    1.377   .     A
C323   C530    1.450   1_455 S
C324   C335    1.416   .     A
C324   C1269   1.414   .     S
C324   C1279   1.418   .     S
C325   N393    1.376   .     A
C325   N405    1.415   .     S
C325   C534    1.439   1_455 S
C326   N399    1.368   .     A
C326   N406    1.426   .     S
C326   C429    1.439   .     S
C327   O412    1.301   .     A
C327   O411    1.296   .     A
C328   O414    1.314   .     A
C328   O413    1.309   .     A
C328   C330    1.482   .     S
C329   N394    1.428   .     S
C329   C344    1.412   .     A
C329   C1284   1.402   .     S
C330   C347    1.394   .     A
C330   C348    1.411   .     A
C331   C332    1.403   .     A
C331   N395    1.430   .     S
C332   C1269   1.394   .     S
C332   N1332   1.432   .     S
C333   H382    1.079   .     S
C333   C1260   1.414   1_554 S
C333   C1268   1.394   1_554 S
C334   N400    1.447   .     S
C334   H390    1.109   .     S
C334   H391    1.110   .     S
C334   H493    1.109   .     S
C335   C346    1.416   .     A
C336   H354    1.110   .     S
C336   H353    1.108   .     S
C336   N402    1.450   .     S
C336   H352    1.112   .     S
C337   H357    1.104   .     S
C337   H358    1.107   .     S
C337   H564    1.108   1_455 S
C337   N611    1.447   1_455 S
C338   H362    1.107   .     S
C338   N404    1.453   .     S
C338   H361    1.108   .     S
C338   H363    1.111   .     S
C339   H367    1.108   .     S
C339   N405    1.441   .     S
C339   H573    1.110   1_455 S
C339   H574    1.111   1_455 S
C340   H369    1.108   .     S
C340   N406    1.448   .     S
C340   H372    1.106   .     S
C340   H370    1.109   .     S
C341   H374    1.111   .     S
C341   N394    1.448   .     S
C341   H479    1.111   .     S
C341   H1312   1.110   .     S
C342   H386    1.110   .     S
C342   N398    1.444   .     S
C342   H387    1.109   .     S
C342   H489    1.107   .     S
C343   C347    1.402   .     A
C343   C1260   1.418   1_554 S
C343   C1280   1.419   1_554 S
C344   C345    1.398   .     A
C344   C1279   1.419   .     S
C345   C346    1.390   .     A
C345   H360    1.082   .     S
C346   N397    1.434   .     S
C347   H371    1.078   .     S
C348   N400    1.409   .     S
C348   C1265   1.402   1_554 S
H350   N401    1.045   .     S
H351   N402    1.031   .     S
H355   N403    1.016   .     S
H356   C441    1.108   .     S
H359   N404    1.030   .     S
H364   N405    1.025   .     S
H365   C443    1.110   .     S
H366   C443    1.111   .     S
H368   N406    1.031   .     S
H373   N394    1.031   .     S
H375   C549    1.111   1_455 S
H376   C1277   1.110   1_554 S
H377   N395    1.043   .     S
H378   N395    1.045   .     S
H379   N396    1.046   .     S
H380   N396    1.043   .     S
H381   N397    1.046   .     S
H383   N397    1.046   .     S
H384   N398    1.032   .     S
H385   C550    1.107   1_455 S
H388   N400    1.021   .     S
H389   C542    1.109   1_455 S
H392   N401    1.046   .     S
N393   Zn415   2.042   .     S
N396   C1268   1.432   1_554 S
N399   Zn416   2.042   .     S
N403   C441    1.447   .     S
O407   Zn415   2.005   .     S
O408   Zn416   1.972   .     S
O409   Zn415   1.962   .     S
O410   Zn416   1.883   .     S
O411   Zn415   1.972   .     S
O412   Zn416   2.005   .     S
O413   Zn415   1.883   .     S
O414   Zn416   1.962   .     S
C417   C425    1.445   .     S
C417   O511    1.302   .     A
C417   O512    1.302   .     A
C418   C420    1.481   .     S
C418   C435    1.403   .     A
C418   C439    1.415   .     A
C419   N502    1.435   .     S
C419   C425    1.408   .     A
C419   C733    1.395   .     S
C420   O514    1.305   .     A
C420   O513    1.315   .     A
C421   H453    1.079   .     S
C421   C422    1.400   .     A
C422   C431    1.431   .     S
C422   C423    1.405   .     A
C423   N505    1.443   .     S
C424   C425    1.399   .     A
C424   N506    1.427   .     S
C424   C735    1.383   .     S
C426   N503    1.386   .     A
C426   N507    1.431   .     S
C426   C531    1.450   .     S
C427   N508    1.423   .     S
C427   N497    1.377   .     A
C428   C439    1.416   .     A
C428   C1373   1.414   .     S
C428   C1383   1.418   .     S
C429   N497    1.376   .     A
C429   N509    1.415   .     S
C430   N503    1.368   .     A
C430   N510    1.426   .     S
C430   C533    1.439   .     S
C431   O516    1.301   .     A
C431   O515    1.296   .     A
C432   O518    1.314   .     A
C432   O517    1.309   .     A
C432   C434    1.482   .     S
C433   N498    1.428   .     S
C433   C448    1.412   .     A
C433   C1388   1.402   .     S
C434   C451    1.394   .     A
C434   C452    1.411   .     A
C435   C436    1.403   .     A
C435   N499    1.430   .     S
C436   C1373   1.394   .     S
C436   N1436   1.432   .     S
C437   H486    1.079   .     S
C437   C1364   1.414   1_554 S
C437   C1372   1.394   1_554 S
C438   N504    1.447   .     S
C438   H494    1.109   .     S
C438   H495    1.110   .     S
C438   H597    1.109   .     S
C439   C450    1.416   .     A
C440   H458    1.110   .     S
C440   H457    1.108   .     S
C440   N506    1.450   .     S
C440   H456    1.112   .     S
C441   H461    1.104   .     S
C441   H462    1.107   .     S
C442   H466    1.107   .     S
C442   N508    1.453   .     S
C442   H465    1.108   .     S
C442   H467    1.111   .     S
C443   H471    1.108   .     S
C443   N509    1.441   .     S
C444   H473    1.108   .     S
C444   N510    1.448   .     S
C444   H476    1.106   .     S
C444   H474    1.109   .     S
C445   H478    1.111   .     S
C445   N498    1.448   .     S
C445   H583    1.111   .     S
C445   H1416   1.110   .     S
C446   H490    1.110   .     S
C446   N502    1.444   .     S
C446   H491    1.109   .     S
C446   H593    1.107   .     S
C447   C451    1.402   .     A
C447   C1364   1.418   1_554 S
C447   C1384   1.419   1_554 S
C448   C449    1.398   .     A
C448   C1383   1.419   .     S
C449   C450    1.390   .     A
C449   H464    1.082   .     S
C450   N501    1.434   .     S
C451   H475    1.078   .     S
C452   N504    1.409   .     S
C452   C1369   1.402   1_554 S
H454   N505    1.045   .     S
H455   N506    1.031   .     S
H459   N507    1.016   .     S
H460   C545    1.108   .     S
H463   N508    1.030   .     S
H468   N509    1.025   .     S
H469   C547    1.110   .     S
H470   C547    1.111   .     S
H472   N510    1.031   .     S
H477   N498    1.031   .     S
H480   C1381   1.110   1_554 S
H481   N499    1.043   .     S
H482   N499    1.045   .     S
H483   N500    1.046   .     S
H484   N500    1.043   .     S
H485   N501    1.046   .     S
H487   N501    1.046   .     S
H488   N502    1.032   .     S
H492   N504    1.021   .     S
H496   N505    1.046   .     S
N497   Zn519   2.042   .     S
N500   C1372   1.432   1_554 S
N503   Zn520   2.042   .     S
N507   C545    1.447   .     S
O511   Zn519   2.005   .     S
O512   Zn520   1.972   .     S
O513   Zn519   1.962   .     S
O514   Zn520   1.883   .     S
O515   Zn519   1.972   .     S
O516   Zn520   2.005   .     S
O517   Zn519   1.883   .     S
O518   Zn520   1.962   .     S
C521   C529    1.445   .     S
C521   O615    1.302   .     A
C521   O616    1.302   .     A
C522   C524    1.481   .     S
C522   C539    1.403   .     A
C522   C543    1.415   .     A
C523   N606    1.435   .     S
C523   C529    1.408   .     A
C523   C837    1.395   .     S
C524   O618    1.305   .     A
C524   O617    1.315   .     A
C525   H557    1.079   .     S
C525   C526    1.400   .     A
C526   C535    1.431   .     S
C526   C527    1.405   .     A
C527   N609    1.443   .     S
C528   C529    1.399   .     A
C528   N610    1.427   .     S
C528   C839    1.383   .     S
C530   N607    1.386   .     A
C530   N611    1.431   .     S
C530   C323    1.450   1_655 S
C531   N612    1.423   .     S
C531   N601    1.377   .     A
C532   C543    1.416   .     A
C532   C1477   1.414   .     S
C532   C1487   1.418   .     S
C533   N601    1.376   .     A
C533   N613    1.415   .     S
C534   N607    1.368   .     A
C534   N614    1.426   .     S
C534   C325    1.439   1_655 S
C535   O620    1.301   .     A
C535   O619    1.296   .     A
C536   O622    1.314   .     A
C536   O621    1.309   .     A
C536   C538    1.482   .     S
C537   N602    1.428   .     S
C537   C552    1.412   .     A
C537   C1492   1.402   .     S
C538   C555    1.394   .     A
C538   C556    1.411   .     A
C539   C540    1.403   .     A
C539   N603    1.430   .     S
C540   C1477   1.394   .     S
C540   N1540   1.432   .     S
C541   H590    1.079   .     S
C541   C1468   1.414   1_554 S
C541   C1476   1.394   1_554 S
C542   N608    1.447   .     S
C542   H598    1.109   .     S
C542   H599    1.110   .     S
C542   H389    1.109   1_655 S
C543   C554    1.416   .     A
C544   H562    1.110   .     S
C544   H561    1.108   .     S
C544   N610    1.450   .     S
C544   H560    1.112   .     S
C545   H565    1.104   .     S
C545   H566    1.107   .     S
C546   H570    1.107   .     S
C546   N612    1.453   .     S
C546   H569    1.108   .     S
C546   H571    1.111   .     S
C547   H575    1.108   .     S
C547   N613    1.441   .     S
C548   H577    1.108   .     S
C548   N614    1.448   .     S
C548   H580    1.106   .     S
C548   H578    1.109   .     S
C549   H582    1.111   .     S
C549   N602    1.448   .     S
C549   H375    1.111   1_655 S
C549   H1520   1.110   .     S
C550   H594    1.110   .     S
C550   N606    1.444   .     S
C550   H595    1.109   .     S
C550   H385    1.107   1_655 S
C551   C555    1.402   .     A
C551   C1468   1.418   1_554 S
C551   C1488   1.419   1_554 S
C552   C553    1.398   .     A
C552   C1487   1.419   .     S
C553   C554    1.390   .     A
C553   H568    1.082   .     S
C554   N605    1.434   .     S
C555   H579    1.078   .     S
C556   N608    1.409   .     S
C556   C1473   1.402   1_554 S
H558   N609    1.045   .     S
H559   N610    1.031   .     S
H563   N611    1.016   .     S
H564   C337    1.108   1_655 S
H567   N612    1.030   .     S
H572   N613    1.025   .     S
H573   C339    1.110   1_655 S
H574   C339    1.111   1_655 S
H576   N614    1.031   .     S
H581   N602    1.031   .     S
H584   C1485   1.110   1_554 S
H585   N603    1.043   .     S
H586   N603    1.045   .     S
H587   N604    1.046   .     S
H588   N604    1.043   .     S
H589   N605    1.046   .     S
H591   N605    1.046   .     S
H592   N606    1.032   .     S
H596   N608    1.021   .     S
H600   N609    1.046   .     S
N601   Zn623   2.042   .     S
N604   C1476   1.432   1_554 S
N607   Zn624   2.042   .     S
N611   C337    1.447   1_655 S
O615   Zn623   2.005   .     S
O616   Zn624   1.972   .     S
O617   Zn623   1.962   .     S
O618   Zn624   1.883   .     S
O619   Zn623   1.972   .     S
O620   Zn624   2.005   .     S
O621   Zn623   1.883   .     S
O622   Zn624   1.962   .     S
C625   C633    1.445   .     S
C625   O719    1.302   .     A
C625   O720    1.302   .     A
C626   C628    1.481   .     S
C626   C643    1.403   .     A
C626   C647    1.415   .     A
C627   N710    1.435   .     S
C627   C633    1.408   .     A
C627   C5      1.395   1_565 S
C628   O722    1.305   .     A
C628   O721    1.315   .     A
C629   H661    1.079   .     S
C629   C630    1.400   .     A
C630   C639    1.431   .     S
C630   C631    1.405   .     A
C631   N713    1.443   .     S
C632   C633    1.399   .     A
C632   N714    1.427   .     S
C632   C7      1.383   1_565 S
C634   N711    1.386   .     A
C634   N715    1.431   .     S
C634   C739    1.450   .     S
C635   N716    1.423   .     S
C635   N705    1.377   .     A
C635   C842    1.450   1_455 S
C636   C647    1.416   .     A
C636   C1581   1.414   .     S
C636   C1591   1.418   .     S
C637   N705    1.376   .     A
C637   N717    1.415   .     S
C637   C846    1.439   1_455 S
C638   N711    1.368   .     A
C638   N718    1.426   .     S
C638   C741    1.439   .     S
C639   O724    1.301   .     A
C639   O723    1.296   .     A
C640   O726    1.314   .     A
C640   O725    1.309   .     A
C640   C642    1.482   .     S
C641   N706    1.428   .     S
C641   C656    1.412   .     A
C641   C1596   1.402   .     S
C642   C659    1.394   .     A
C642   C660    1.411   .     A
C643   C644    1.403   .     A
C643   N707    1.430   .     S
C644   C1581   1.394   .     S
C644   N1644   1.432   .     S
C645   H694    1.079   .     S
C645   C1572   1.414   1_554 S
C645   C1580   1.394   1_554 S
C646   N712    1.447   .     S
C646   H702    1.109   .     S
C646   H703    1.110   .     S
C646   H805    1.109   .     S
C647   C658    1.416   .     A
C648   H666    1.110   .     S
C648   H665    1.108   .     S
C648   N714    1.450   .     S
C648   H664    1.112   .     S
C649   H669    1.104   .     S
C649   H670    1.107   .     S
C649   H876    1.108   1_455 S
C649   N923    1.447   1_455 S
C650   H674    1.107   .     S
C650   N716    1.453   .     S
C650   H673    1.108   .     S
C650   H675    1.111   .     S
C651   H679    1.108   .     S
C651   N717    1.441   .     S
C651   H885    1.110   1_455 S
C651   H886    1.111   1_455 S
C652   H681    1.108   .     S
C652   N718    1.448   .     S
C652   H684    1.106   .     S
C652   H682    1.109   .     S
C653   H686    1.111   .     S
C653   N706    1.448   .     S
C653   H791    1.111   .     S
C653   H1624   1.110   .     S
C654   H698    1.110   .     S
C654   N710    1.444   .     S
C654   H699    1.109   .     S
C654   H801    1.107   .     S
C655   C659    1.402   .     A
C655   C1572   1.418   1_554 S
C655   C1592   1.419   1_554 S
C656   C657    1.398   .     A
C656   C1591   1.419   .     S
C657   C658    1.390   .     A
C657   H672    1.082   .     S
C658   N709    1.434   .     S
C659   H683    1.078   .     S
C660   N712    1.409   .     S
C660   C1577   1.402   1_554 S
H662   N713    1.045   .     S
H663   N714    1.031   .     S
H667   N715    1.016   .     S
H668   C753    1.108   .     S
H671   N716    1.030   .     S
H676   N717    1.025   .     S
H677   C755    1.110   .     S
H678   C755    1.111   .     S
H680   N718    1.031   .     S
H685   N706    1.031   .     S
H687   C861    1.111   1_455 S
H688   C1589   1.110   1_554 S
H689   N707    1.043   .     S
H690   N707    1.045   .     S
H691   N708    1.046   .     S
H692   N708    1.043   .     S
H693   N709    1.046   .     S
H695   N709    1.046   .     S
H696   N710    1.032   .     S
H697   C862    1.107   1_455 S
H700   N712    1.021   .     S
H701   C854    1.109   1_455 S
H704   N713    1.046   .     S
N705   Zn727   2.042   .     S
N708   C1580   1.432   1_554 S
N711   Zn728   2.042   .     S
N715   C753    1.447   .     S
O719   Zn727   2.005   .     S
O720   Zn728   1.972   .     S
O721   Zn727   1.962   .     S
O722   Zn728   1.883   .     S
O723   Zn727   1.972   .     S
O724   Zn728   2.005   .     S
O725   Zn727   1.883   .     S
O726   Zn728   1.962   .     S
C729   C737    1.445   .     S
C729   O823    1.302   .     A
C729   O824    1.302   .     A
C730   C732    1.481   .     S
C730   C747    1.403   .     A
C730   C751    1.415   .     A
C731   N814    1.435   .     S
C731   C737    1.408   .     A
C731   C109    1.395   1_565 S
C732   O826    1.305   .     A
C732   O825    1.315   .     A
C733   H765    1.079   .     S
C733   C734    1.400   .     A
C734   C743    1.431   .     S
C734   C735    1.405   .     A
C735   N817    1.443   .     S
C736   C737    1.399   .     A
C736   N818    1.427   .     S
C736   C111    1.383   1_565 S
C738   N815    1.386   .     A
C738   N819    1.431   .     S
C738   C843    1.450   .     S
C739   N820    1.423   .     S
C739   N809    1.377   .     A
C740   C751    1.416   .     A
C740   C1685   1.414   .     S
C740   C1695   1.418   .     S
C741   N809    1.376   .     A
C741   N821    1.415   .     S
C742   N815    1.368   .     A
C742   N822    1.426   .     S
C742   C845    1.439   .     S
C743   O828    1.301   .     A
C743   O827    1.296   .     A
C744   O830    1.314   .     A
C744   O829    1.309   .     A
C744   C746    1.482   .     S
C745   N810    1.428   .     S
C745   C760    1.412   .     A
C745   C1700   1.402   .     S
C746   C763    1.394   .     A
C746   C764    1.411   .     A
C747   C748    1.403   .     A
C747   N811    1.430   .     S
C748   C1685   1.394   .     S
C748   N1748   1.432   .     S
C749   H798    1.079   .     S
C749   C1676   1.414   1_554 S
C749   C1684   1.394   1_554 S
C750   N816    1.447   .     S
C750   H806    1.109   .     S
C750   H807    1.110   .     S
C750   H909    1.109   .     S
C751   C762    1.416   .     A
C752   H770    1.110   .     S
C752   H769    1.108   .     S
C752   N818    1.450   .     S
C752   H768    1.112   .     S
C753   H773    1.104   .     S
C753   H774    1.107   .     S
C754   H778    1.107   .     S
C754   N820    1.453   .     S
C754   H777    1.108   .     S
C754   H779    1.111   .     S
C755   H783    1.108   .     S
C755   N821    1.441   .     S
C756   H785    1.108   .     S
C756   N822    1.448   .     S
C756   H788    1.106   .     S
C756   H786    1.109   .     S
C757   H790    1.111   .     S
C757   N810    1.448   .     S
C757   H895    1.111   .     S
C757   H1728   1.110   .     S
C758   H802    1.110   .     S
C758   N814    1.444   .     S
C758   H803    1.109   .     S
C758   H905    1.107   .     S
C759   C763    1.402   .     A
C759   C1676   1.418   1_554 S
C759   C1696   1.419   1_554 S
C760   C761    1.398   .     A
C760   C1695   1.419   .     S
C761   C762    1.390   .     A
C761   H776    1.082   .     S
C762   N813    1.434   .     S
C763   H787    1.078   .     S
C764   N816    1.409   .     S
C764   C1681   1.402   1_554 S
H766   N817    1.045   .     S
H767   N818    1.031   .     S
H771   N819    1.016   .     S
H772   C857    1.108   .     S
H775   N820    1.030   .     S
H780   N821    1.025   .     S
H781   C859    1.110   .     S
H782   C859    1.111   .     S
H784   N822    1.031   .     S
H789   N810    1.031   .     S
H792   C1693   1.110   1_554 S
H793   N811    1.043   .     S
H794   N811    1.045   .     S
H795   N812    1.046   .     S
H796   N812    1.043   .     S
H797   N813    1.046   .     S
H799   N813    1.046   .     S
H800   N814    1.032   .     S
H804   N816    1.021   .     S
H808   N817    1.046   .     S
N809   Zn831   2.042   .     S
N812   C1684   1.432   1_554 S
N815   Zn832   2.042   .     S
N819   C857    1.447   .     S
O823   Zn831   2.005   .     S
O824   Zn832   1.972   .     S
O825   Zn831   1.962   .     S
O826   Zn832   1.883   .     S
O827   Zn831   1.972   .     S
O828   Zn832   2.005   .     S
O829   Zn831   1.883   .     S
O830   Zn832   1.962   .     S
C833   C841    1.445   .     S
C833   O927    1.302   .     A
C833   O928    1.302   .     A
C834   C836    1.481   .     S
C834   C851    1.403   .     A
C834   C855    1.415   .     A
C835   N918    1.435   .     S
C835   C841    1.408   .     A
C835   C213    1.395   1_565 S
C836   O930    1.305   .     A
C836   O929    1.315   .     A
C837   H869    1.079   .     S
C837   C838    1.400   .     A
C838   C847    1.431   .     S
C838   C839    1.405   .     A
C839   N921    1.443   .     S
C840   C841    1.399   .     A
C840   N922    1.427   .     S
C840   C215    1.383   1_565 S
C842   N919    1.386   .     A
C842   N923    1.431   .     S
C842   C635    1.450   1_655 S
C843   N924    1.423   .     S
C843   N913    1.377   .     A
C844   C855    1.416   .     A
C844   C1789   1.414   .     S
C844   C1799   1.418   .     S
C845   N913    1.376   .     A
C845   N925    1.415   .     S
C846   N919    1.368   .     A
C846   N926    1.426   .     S
C846   C637    1.439   1_655 S
C847   O932    1.301   .     A
C847   O931    1.296   .     A
C848   O934    1.314   .     A
C848   O933    1.309   .     A
C848   C850    1.482   .     S
C849   N914    1.428   .     S
C849   C864    1.412   .     A
C849   C1804   1.402   .     S
C850   C867    1.394   .     A
C850   C868    1.411   .     A
C851   C852    1.403   .     A
C851   N915    1.430   .     S
C852   C1789   1.394   .     S
C852   N1852   1.432   .     S
C853   H902    1.079   .     S
C853   C1780   1.414   1_554 S
C853   C1788   1.394   1_554 S
C854   N920    1.447   .     S
C854   H910    1.109   .     S
C854   H911    1.110   .     S
C854   H701    1.109   1_655 S
C855   C866    1.416   .     A
C856   H874    1.110   .     S
C856   H873    1.108   .     S
C856   N922    1.450   .     S
C856   H872    1.112   .     S
C857   H877    1.104   .     S
C857   H878    1.107   .     S
C858   H882    1.107   .     S
C858   N924    1.453   .     S
C858   H881    1.108   .     S
C858   H883    1.111   .     S
C859   H887    1.108   .     S
C859   N925    1.441   .     S
C860   H889    1.108   .     S
C860   N926    1.448   .     S
C860   H892    1.106   .     S
C860   H890    1.109   .     S
C861   H894    1.111   .     S
C861   N914    1.448   .     S
C861   H687    1.111   1_655 S
C861   H1832   1.110   .     S
C862   H906    1.110   .     S
C862   N918    1.444   .     S
C862   H907    1.109   .     S
C862   H697    1.107   1_655 S
C863   C867    1.402   .     A
C863   C1780   1.418   1_554 S
C863   C1800   1.419   1_554 S
C864   C865    1.398   .     A
C864   C1799   1.419   .     S
C865   C866    1.390   .     A
C865   H880    1.082   .     S
C866   N917    1.434   .     S
C867   H891    1.078   .     S
C868   N920    1.409   .     S
C868   C1785   1.402   1_554 S
H870   N921    1.045   .     S
H871   N922    1.031   .     S
H875   N923    1.016   .     S
H876   C649    1.108   1_655 S
H879   N924    1.030   .     S
H884   N925    1.025   .     S
H885   C651    1.110   1_655 S
H886   C651    1.111   1_655 S
H888   N926    1.031   .     S
H893   N914    1.031   .     S
H896   C1797   1.110   1_554 S
H897   N915    1.043   .     S
H898   N915    1.045   .     S
H899   N916    1.046   .     S
H900   N916    1.043   .     S
H901   N917    1.046   .     S
H903   N917    1.046   .     S
H904   N918    1.032   .     S
H908   N920    1.021   .     S
H912   N921    1.046   .     S
N913   Zn935   2.042   .     S
N916   C1788   1.432   1_554 S
N919   Zn936   2.042   .     S
N923   C649    1.447   1_655 S
O927   Zn935   2.005   .     S
O928   Zn936   1.972   .     S
O929   Zn935   1.962   .     S
O930   Zn936   1.883   .     S
O931   Zn935   1.972   .     S
O932   Zn936   2.005   .     S
O933   Zn935   1.883   .     S
O934   Zn936   1.962   .     S
C937   C945    1.445   .     S
C937   O1031   1.302   .     A
C937   O1032   1.302   .     A
C938   C940    1.481   .     S
C938   C955    1.403   .     A
C938   C959    1.415   .     A
C939   N1022   1.435   .     S
C939   C945    1.408   .     A
C939   C1253   1.395   .     S
C940   O1034   1.305   .     A
C940   O1033   1.315   .     A
C941   H973    1.079   .     S
C941   C942    1.400   .     A
C941   C1563   1.395   1_545 S
C942   C951    1.431   .     S
C942   C943    1.405   .     A
C943   N1025   1.443   .     S
C943   C1568   1.383   1_545 S
C944   C945    1.399   .     A
C944   N1026   1.427   .     S
C944   C1255   1.383   .     S
C946   N1023   1.386   .     A
C946   N1027   1.431   .     S
C946   C1051   1.450   .     S
C947   N1028   1.423   .     S
C947   N1017   1.377   .     A
C947   C1154   1.450   1_455 S
C948   C959    1.416   .     A
C948   C21     1.414   1_556 S
C948   C31     1.418   1_556 S
C949   N1017   1.376   .     A
C949   N1029   1.415   .     S
C949   C1158   1.439   1_455 S
C950   N1023   1.368   .     A
C950   N1030   1.426   .     S
C950   C1053   1.439   .     S
C951   O1036   1.301   .     A
C951   O1035   1.296   .     A
C952   O1038   1.314   .     A
C952   O1037   1.309   .     A
C952   C954    1.482   .     S
C953   N1018   1.428   .     S
C953   C968    1.412   .     A
C953   C36     1.402   1_556 S
C954   C971    1.394   .     A
C954   C972    1.411   .     A
C955   C956    1.403   .     A
C955   N1019   1.430   .     S
C956   C21     1.394   1_556 S
C956   N84     1.432   1_556 S
C957   H1006   1.079   .     S
C958   N1024   1.447   .     S
C958   H1014   1.109   .     S
C958   H1015   1.110   .     S
C958   H1117   1.109   .     S
C959   C970    1.416   .     A
C960   H978    1.110   .     S
C960   H977    1.108   .     S
C960   N1026   1.450   .     S
C960   H976    1.112   .     S
C961   H981    1.104   .     S
C961   H982    1.107   .     S
C961   H1188   1.108   1_455 S
C961   N1235   1.447   1_455 S
C962   H986    1.107   .     S
C962   N1028   1.453   .     S
C962   H985    1.108   .     S
C962   H987    1.111   .     S
C963   H991    1.108   .     S
C963   N1029   1.441   .     S
C963   H1197   1.110   1_455 S
C963   H1198   1.111   1_455 S
C964   H993    1.108   .     S
C964   N1030   1.448   .     S
C964   H996    1.106   .     S
C964   H994    1.109   .     S
C965   H998    1.111   .     S
C965   N1018   1.448   .     S
C965   H1103   1.111   .     S
C965   H64     1.110   1_556 S
C966   H1010   1.110   .     S
C966   N1022   1.444   .     S
C966   H1011   1.109   .     S
C966   H1113   1.107   .     S
C967   C971    1.402   .     A
C968   C969    1.398   .     A
C968   C31     1.419   1_556 S
C969   C970    1.390   .     A
C969   H984    1.082   .     S
C970   N1021   1.434   .     S
C971   H995    1.078   .     S
C972   N1024   1.409   .     S
H974   N1025   1.045   .     S
H975   N1026   1.031   .     S
H979   N1027   1.016   .     S
H980   C1065   1.108   .     S
H983   N1028   1.030   .     S
H988   N1029   1.025   .     S
H989   C1067   1.110   .     S
H990   C1067   1.111   .     S
H992   N1030   1.031   .     S
H997   N1018   1.031   .     S
H999   C1173   1.111   1_455 S
H1001  N1019   1.043   .     S
H1002  N1019   1.045   .     S
H1003  N1020   1.046   .     S
H1004  N1020   1.043   .     S
H1005  N1021   1.046   .     S
H1007  N1021   1.046   .     S
H1008  N1022   1.032   .     S
H1009  C1174   1.107   1_455 S
H1012  N1024   1.021   .     S
H1013  C1166   1.109   1_455 S
H1016  N1025   1.046   .     S
N1017  Zn1039  2.042   .     S
N1023  Zn1040  2.042   .     S
N1027  C1065   1.447   .     S
O1031  Zn1039  2.005   .     S
O1032  Zn1040  1.972   .     S
O1033  Zn1039  1.962   .     S
O1034  Zn1040  1.883   .     S
O1035  Zn1039  1.972   .     S
O1036  Zn1040  2.005   .     S
O1037  Zn1039  1.883   .     S
O1038  Zn1040  1.962   .     S
C1041  C1049   1.445   .     S
C1041  O1135   1.302   .     A
C1041  O1136   1.302   .     A
C1042  C1044   1.481   .     S
C1042  C1059   1.403   .     A
C1042  C1063   1.415   .     A
C1043  N1126   1.435   .     S
C1043  C1049   1.408   .     A
C1043  C1357   1.395   .     S
C1044  O1138   1.305   .     A
C1044  O1137   1.315   .     A
C1045  H1077   1.079   .     S
C1045  C1046   1.400   .     A
C1045  C1667   1.395   1_545 S
C1046  C1055   1.431   .     S
C1046  C1047   1.405   .     A
C1047  N1129   1.443   .     S
C1047  C1672   1.383   1_545 S
C1048  C1049   1.399   .     A
C1048  N1130   1.427   .     S
C1048  C1359   1.383   .     S
C1050  N1127   1.386   .     A
C1050  N1131   1.431   .     S
C1050  C1155   1.450   .     S
C1051  N1132   1.423   .     S
C1051  N1121   1.377   .     A
C1052  C1063   1.416   .     A
C1052  C125    1.414   1_556 S
C1052  C135    1.418   1_556 S
C1053  N1121   1.376   .     A
C1053  N1133   1.415   .     S
C1054  N1127   1.368   .     A
C1054  N1134   1.426   .     S
C1054  C1157   1.439   .     S
C1055  O1140   1.301   .     A
C1055  O1139   1.296   .     A
C1056  O1142   1.314   .     A
C1056  O1141   1.309   .     A
C1056  C1058   1.482   .     S
C1057  N1122   1.428   .     S
C1057  C1072   1.412   .     A
C1057  C140    1.402   1_556 S
C1058  C1075   1.394   .     A
C1058  C1076   1.411   .     A
C1059  C1060   1.403   .     A
C1059  N1123   1.430   .     S
C1060  C125    1.394   1_556 S
C1060  N188    1.432   1_556 S
C1061  H1110   1.079   .     S
C1062  N1128   1.447   .     S
C1062  H1118   1.109   .     S
C1062  H1119   1.110   .     S
C1062  H1221   1.109   .     S
C1063  C1074   1.416   .     A
C1064  H1082   1.110   .     S
C1064  H1081   1.108   .     S
C1064  N1130   1.450   .     S
C1064  H1080   1.112   .     S
C1065  H1085   1.104   .     S
C1065  H1086   1.107   .     S
C1066  H1090   1.107   .     S
C1066  N1132   1.453   .     S
C1066  H1089   1.108   .     S
C1066  H1091   1.111   .     S
C1067  H1095   1.108   .     S
C1067  N1133   1.441   .     S
C1068  H1097   1.108   .     S
C1068  N1134   1.448   .     S
C1068  H1100   1.106   .     S
C1068  H1098   1.109   .     S
C1069  H1102   1.111   .     S
C1069  N1122   1.448   .     S
C1069  H1207   1.111   .     S
C1069  H168    1.110   1_556 S
C1070  H1114   1.110   .     S
C1070  N1126   1.444   .     S
C1070  H1115   1.109   .     S
C1070  H1217   1.107   .     S
C1071  C1075   1.402   .     A
C1072  C1073   1.398   .     A
C1072  C135    1.419   1_556 S
C1073  C1074   1.390   .     A
C1073  H1088   1.082   .     S
C1074  N1125   1.434   .     S
C1075  H1099   1.078   .     S
C1076  N1128   1.409   .     S
H1078  N1129   1.045   .     S
H1079  N1130   1.031   .     S
H1083  N1131   1.016   .     S
H1084  C1169   1.108   .     S
H1087  N1132   1.030   .     S
H1092  N1133   1.025   .     S
H1093  C1171   1.110   .     S
H1094  C1171   1.111   .     S
H1096  N1134   1.031   .     S
H1101  N1122   1.031   .     S
H1105  N1123   1.043   .     S
H1106  N1123   1.045   .     S
H1107  N1124   1.046   .     S
H1108  N1124   1.043   .     S
H1109  N1125   1.046   .     S
H1111  N1125   1.046   .     S
H1112  N1126   1.032   .     S
H1116  N1128   1.021   .     S
H1120  N1129   1.046   .     S
N1121  Zn1143  2.042   .     S
N1127  Zn1144  2.042   .     S
N1131  C1169   1.447   .     S
O1135  Zn1143  2.005   .     S
O1136  Zn1144  1.972   .     S
O1137  Zn1143  1.962   .     S
O1138  Zn1144  1.883   .     S
O1139  Zn1143  1.972   .     S
O1140  Zn1144  2.005   .     S
O1141  Zn1143  1.883   .     S
O1142  Zn1144  1.962   .     S
C1145  C1153   1.445   .     S
C1145  O1239   1.302   .     A
C1145  O1240   1.302   .     A
C1146  C1148   1.481   .     S
C1146  C1163   1.403   .     A
C1146  C1167   1.415   .     A
C1147  N1230   1.435   .     S
C1147  C1153   1.408   .     A
C1147  C1461   1.395   .     S
C1148  O1242   1.305   .     A
C1148  O1241   1.315   .     A
C1149  H1181   1.079   .     S
C1149  C1150   1.400   .     A
C1149  C1771   1.395   1_545 S
C1150  C1159   1.431   .     S
C1150  C1151   1.405   .     A
C1151  N1233   1.443   .     S
C1151  C1776   1.383   1_545 S
C1152  C1153   1.399   .     A
C1152  N1234   1.427   .     S
C1152  C1463   1.383   .     S
C1154  N1231   1.386   .     A
C1154  N1235   1.431   .     S
C1154  C947    1.450   1_655 S
C1155  N1236   1.423   .     S
C1155  N1225   1.377   .     A
C1156  C1167   1.416   .     A
C1156  C229    1.414   1_556 S
C1156  C239    1.418   1_556 S
C1157  N1225   1.376   .     A
C1157  N1237   1.415   .     S
C1158  N1231   1.368   .     A
C1158  N1238   1.426   .     S
C1158  C949    1.439   1_655 S
C1159  O1244   1.301   .     A
C1159  O1243   1.296   .     A
C1160  O1246   1.314   .     A
C1160  O1245   1.309   .     A
C1160  C1162   1.482   .     S
C1161  N1226   1.428   .     S
C1161  C1176   1.412   .     A
C1161  C244    1.402   1_556 S
C1162  C1179   1.394   .     A
C1162  C1180   1.411   .     A
C1163  C1164   1.403   .     A
C1163  N1227   1.430   .     S
C1164  C229    1.394   1_556 S
C1164  N292    1.432   1_556 S
C1165  H1214   1.079   .     S
C1166  N1232   1.447   .     S
C1166  H1222   1.109   .     S
C1166  H1223   1.110   .     S
C1166  H1013   1.109   1_655 S
C1167  C1178   1.416   .     A
C1168  H1186   1.110   .     S
C1168  H1185   1.108   .     S
C1168  N1234   1.450   .     S
C1168  H1184   1.112   .     S
C1169  H1189   1.104   .     S
C1169  H1190   1.107   .     S
C1170  H1194   1.107   .     S
C1170  N1236   1.453   .     S
C1170  H1193   1.108   .     S
C1170  H1195   1.111   .     S
C1171  H1199   1.108   .     S
C1171  N1237   1.441   .     S
C1172  H1201   1.108   .     S
C1172  N1238   1.448   .     S
C1172  H1204   1.106   .     S
C1172  H1202   1.109   .     S
C1173  H1206   1.111   .     S
C1173  N1226   1.448   .     S
C1173  H999    1.111   1_655 S
C1173  H272    1.110   1_556 S
C1174  H1218   1.110   .     S
C1174  N1230   1.444   .     S
C1174  H1219   1.109   .     S
C1174  H1009   1.107   1_655 S
C1175  C1179   1.402   .     A
C1176  C1177   1.398   .     A
C1176  C239    1.419   1_556 S
C1177  C1178   1.390   .     A
C1177  H1192   1.082   .     S
C1178  N1229   1.434   .     S
C1179  H1203   1.078   .     S
C1180  N1232   1.409   .     S
H1182  N1233   1.045   .     S
H1183  N1234   1.031   .     S
H1187  N1235   1.016   .     S
H1188  C961    1.108   1_655 S
H1191  N1236   1.030   .     S
H1196  N1237   1.025   .     S
H1197  C963    1.110   1_655 S
H1198  C963    1.111   1_655 S
H1200  N1238   1.031   .     S
H1205  N1226   1.031   .     S
H1209  N1227   1.043   .     S
H1210  N1227   1.045   .     S
H1211  N1228   1.046   .     S
H1212  N1228   1.043   .     S
H1213  N1229   1.046   .     S
H1215  N1229   1.046   .     S
H1216  N1230   1.032   .     S
H1220  N1232   1.021   .     S
H1224  N1233   1.046   .     S
N1225  Zn1247  2.042   .     S
N1231  Zn1248  2.042   .     S
N1235  C961    1.447   1_655 S
O1239  Zn1247  2.005   .     S
O1240  Zn1248  1.972   .     S
O1241  Zn1247  1.962   .     S
O1242  Zn1248  1.883   .     S
O1243  Zn1247  1.972   .     S
O1244  Zn1248  2.005   .     S
O1245  Zn1247  1.883   .     S
O1246  Zn1248  1.962   .     S
C1249  C1257   1.445   .     S
C1249  O1343   1.302   .     A
C1249  O1344   1.302   .     A
C1250  C1252   1.481   .     S
C1250  C1267   1.403   .     A
C1250  C1271   1.415   .     A
C1251  N1334   1.435   .     S
C1251  C1257   1.408   .     A
C1251  C1565   1.395   .     S
C1252  O1346   1.305   .     A
C1252  O1345   1.315   .     A
C1253  H1285   1.079   .     S
C1253  C1254   1.400   .     A
C1254  C1263   1.431   .     S
C1254  C1255   1.405   .     A
C1255  N1337   1.443   .     S
C1256  C1257   1.399   .     A
C1256  N1338   1.427   .     S
C1256  C1567   1.383   .     S
C1258  N1335   1.386   .     A
C1258  N1339   1.431   .     S
C1258  C1363   1.450   .     S
C1259  N1340   1.423   .     S
C1259  N1329   1.377   .     A
C1259  C1466   1.450   1_455 S
C1260  C1271   1.416   .     A
C1260  C333    1.414   1_556 S
C1260  C343    1.418   1_556 S
C1261  N1329   1.376   .     A
C1261  N1341   1.415   .     S
C1261  C1470   1.439   1_455 S
C1262  N1335   1.368   .     A
C1262  N1342   1.426   .     S
C1262  C1365   1.439   .     S
C1263  O1348   1.301   .     A
C1263  O1347   1.296   .     A
C1264  O1350   1.314   .     A
C1264  O1349   1.309   .     A
C1264  C1266   1.482   .     S
C1265  N1330   1.428   .     S
C1265  C1280   1.412   .     A
C1265  C348    1.402   1_556 S
C1266  C1283   1.394   .     A
C1266  C1284   1.411   .     A
C1267  C1268   1.403   .     A
C1267  N1331   1.430   .     S
C1268  C333    1.394   1_556 S
C1268  N396    1.432   1_556 S
C1269  H1318   1.079   .     S
C1270  N1336   1.447   .     S
C1270  H1326   1.109   .     S
C1270  H1327   1.110   .     S
C1270  H1429   1.109   .     S
C1271  C1282   1.416   .     A
C1272  H1290   1.110   .     S
C1272  H1289   1.108   .     S
C1272  N1338   1.450   .     S
C1272  H1288   1.112   .     S
C1273  H1293   1.104   .     S
C1273  H1294   1.107   .     S
C1273  H1500   1.108   1_455 S
C1273  N1547   1.447   1_455 S
C1274  H1298   1.107   .     S
C1274  N1340   1.453   .     S
C1274  H1297   1.108   .     S
C1274  H1299   1.111   .     S
C1275  H1303   1.108   .     S
C1275  N1341   1.441   .     S
C1275  H1509   1.110   1_455 S
C1275  H1510   1.111   1_455 S
C1276  H1305   1.108   .     S
C1276  N1342   1.448   .     S
C1276  H1308   1.106   .     S
C1276  H1306   1.109   .     S
C1277  H1310   1.111   .     S
C1277  N1330   1.448   .     S
C1277  H1415   1.111   .     S
C1277  H376    1.110   1_556 S
C1278  H1322   1.110   .     S
C1278  N1334   1.444   .     S
C1278  H1323   1.109   .     S
C1278  H1425   1.107   .     S
C1279  C1283   1.402   .     A
C1280  C1281   1.398   .     A
C1280  C343    1.419   1_556 S
C1281  C1282   1.390   .     A
C1281  H1296   1.082   .     S
C1282  N1333   1.434   .     S
C1283  H1307   1.078   .     S
C1284  N1336   1.409   .     S
H1286  N1337   1.045   .     S
H1287  N1338   1.031   .     S
H1291  N1339   1.016   .     S
H1292  C1377   1.108   .     S
H1295  N1340   1.030   .     S
H1300  N1341   1.025   .     S
H1301  C1379   1.110   .     S
H1302  C1379   1.111   .     S
H1304  N1342   1.031   .     S
H1309  N1330   1.031   .     S
H1311  C1485   1.111   1_455 S
H1313  N1331   1.043   .     S
H1314  N1331   1.045   .     S
H1315  N1332   1.046   .     S
H1316  N1332   1.043   .     S
H1317  N1333   1.046   .     S
H1319  N1333   1.046   .     S
H1320  N1334   1.032   .     S
H1321  C1486   1.107   1_455 S
H1324  N1336   1.021   .     S
H1325  C1478   1.109   1_455 S
H1328  N1337   1.046   .     S
N1329  Zn1351  2.042   .     S
N1335  Zn1352  2.042   .     S
N1339  C1377   1.447   .     S
O1343  Zn1351  2.005   .     S
O1344  Zn1352  1.972   .     S
O1345  Zn1351  1.962   .     S
O1346  Zn1352  1.883   .     S
O1347  Zn1351  1.972   .     S
O1348  Zn1352  2.005   .     S
O1349  Zn1351  1.883   .     S
O1350  Zn1352  1.962   .     S
C1353  C1361   1.445   .     S
C1353  O1447   1.302   .     A
C1353  O1448   1.302   .     A
C1354  C1356   1.481   .     S
C1354  C1371   1.403   .     A
C1354  C1375   1.415   .     A
C1355  N1438   1.435   .     S
C1355  C1361   1.408   .     A
C1355  C1669   1.395   .     S
C1356  O1450   1.305   .     A
C1356  O1449   1.315   .     A
C1357  H1389   1.079   .     S
C1357  C1358   1.400   .     A
C1358  C1367   1.431   .     S
C1358  C1359   1.405   .     A
C1359  N1441   1.443   .     S
C1360  C1361   1.399   .     A
C1360  N1442   1.427   .     S
C1360  C1671   1.383   .     S
C1362  N1439   1.386   .     A
C1362  N1443   1.431   .     S
C1362  C1467   1.450   .     S
C1363  N1444   1.423   .     S
C1363  N1433   1.377   .     A
C1364  C1375   1.416   .     A
C1364  C437    1.414   1_556 S
C1364  C447    1.418   1_556 S
C1365  N1433   1.376   .     A
C1365  N1445   1.415   .     S
C1366  N1439   1.368   .     A
C1366  N1446   1.426   .     S
C1366  C1469   1.439   .     S
C1367  O1452   1.301   .     A
C1367  O1451   1.296   .     A
C1368  O1454   1.314   .     A
C1368  O1453   1.309   .     A
C1368  C1370   1.482   .     S
C1369  N1434   1.428   .     S
C1369  C1384   1.412   .     A
C1369  C452    1.402   1_556 S
C1370  C1387   1.394   .     A
C1370  C1388   1.411   .     A
C1371  C1372   1.403   .     A
C1371  N1435   1.430   .     S
C1372  C437    1.394   1_556 S
C1372  N500    1.432   1_556 S
C1373  H1422   1.079   .     S
C1374  N1440   1.447   .     S
C1374  H1430   1.109   .     S
C1374  H1431   1.110   .     S
C1374  H1533   1.109   .     S
C1375  C1386   1.416   .     A
C1376  H1394   1.110   .     S
C1376  H1393   1.108   .     S
C1376  N1442   1.450   .     S
C1376  H1392   1.112   .     S
C1377  H1397   1.104   .     S
C1377  H1398   1.107   .     S
C1378  H1402   1.107   .     S
C1378  N1444   1.453   .     S
C1378  H1401   1.108   .     S
C1378  H1403   1.111   .     S
C1379  H1407   1.108   .     S
C1379  N1445   1.441   .     S
C1380  H1409   1.108   .     S
C1380  N1446   1.448   .     S
C1380  H1412   1.106   .     S
C1380  H1410   1.109   .     S
C1381  H1414   1.111   .     S
C1381  N1434   1.448   .     S
C1381  H1519   1.111   .     S
C1381  H480    1.110   1_556 S
C1382  H1426   1.110   .     S
C1382  N1438   1.444   .     S
C1382  H1427   1.109   .     S
C1382  H1529   1.107   .     S
C1383  C1387   1.402   .     A
C1384  C1385   1.398   .     A
C1384  C447    1.419   1_556 S
C1385  C1386   1.390   .     A
C1385  H1400   1.082   .     S
C1386  N1437   1.434   .     S
C1387  H1411   1.078   .     S
C1388  N1440   1.409   .     S
H1390  N1441   1.045   .     S
H1391  N1442   1.031   .     S
H1395  N1443   1.016   .     S
H1396  C1481   1.108   .     S
H1399  N1444   1.030   .     S
H1404  N1445   1.025   .     S
H1405  C1483   1.110   .     S
H1406  C1483   1.111   .     S
H1408  N1446   1.031   .     S
H1413  N1434   1.031   .     S
H1417  N1435   1.043   .     S
H1418  N1435   1.045   .     S
H1419  N1436   1.046   .     S
H1420  N1436   1.043   .     S
H1421  N1437   1.046   .     S
H1423  N1437   1.046   .     S
H1424  N1438   1.032   .     S
H1428  N1440   1.021   .     S
H1432  N1441   1.046   .     S
N1433  Zn1455  2.042   .     S
N1439  Zn1456  2.042   .     S
N1443  C1481   1.447   .     S
O1447  Zn1455  2.005   .     S
O1448  Zn1456  1.972   .     S
O1449  Zn1455  1.962   .     S
O1450  Zn1456  1.883   .     S
O1451  Zn1455  1.972   .     S
O1452  Zn1456  2.005   .     S
O1453  Zn1455  1.883   .     S
O1454  Zn1456  1.962   .     S
C1457  C1465   1.445   .     S
C1457  O1551   1.302   .     A
C1457  O1552   1.302   .     A
C1458  C1460   1.481   .     S
C1458  C1475   1.403   .     A
C1458  C1479   1.415   .     A
C1459  N1542   1.435   .     S
C1459  C1465   1.408   .     A
C1459  C1773   1.395   .     S
C1460  O1554   1.305   .     A
C1460  O1553   1.315   .     A
C1461  H1493   1.079   .     S
C1461  C1462   1.400   .     A
C1462  C1471   1.431   .     S
C1462  C1463   1.405   .     A
C1463  N1545   1.443   .     S
C1464  C1465   1.399   .     A
C1464  N1546   1.427   .     S
C1464  C1775   1.383   .     S
C1466  N1543   1.386   .     A
C1466  N1547   1.431   .     S
C1466  C1259   1.450   1_655 S
C1467  N1548   1.423   .     S
C1467  N1537   1.377   .     A
C1468  C1479   1.416   .     A
C1468  C541    1.414   1_556 S
C1468  C551    1.418   1_556 S
C1469  N1537   1.376   .     A
C1469  N1549   1.415   .     S
C1470  N1543   1.368   .     A
C1470  N1550   1.426   .     S
C1470  C1261   1.439   1_655 S
C1471  O1556   1.301   .     A
C1471  O1555   1.296   .     A
C1472  O1558   1.314   .     A
C1472  O1557   1.309   .     A
C1472  C1474   1.482   .     S
C1473  N1538   1.428   .     S
C1473  C1488   1.412   .     A
C1473  C556    1.402   1_556 S
C1474  C1491   1.394   .     A
C1474  C1492   1.411   .     A
C1475  C1476   1.403   .     A
C1475  N1539   1.430   .     S
C1476  C541    1.394   1_556 S
C1476  N604    1.432   1_556 S
C1477  H1526   1.079   .     S
C1478  N1544   1.447   .     S
C1478  H1534   1.109   .     S
C1478  H1535   1.110   .     S
C1478  H1325   1.109   1_655 S
C1479  C1490   1.416   .     A
C1480  H1498   1.110   .     S
C1480  H1497   1.108   .     S
C1480  N1546   1.450   .     S
C1480  H1496   1.112   .     S
C1481  H1501   1.104   .     S
C1481  H1502   1.107   .     S
C1482  H1506   1.107   .     S
C1482  N1548   1.453   .     S
C1482  H1505   1.108   .     S
C1482  H1507   1.111   .     S
C1483  H1511   1.108   .     S
C1483  N1549   1.441   .     S
C1484  H1513   1.108   .     S
C1484  N1550   1.448   .     S
C1484  H1516   1.106   .     S
C1484  H1514   1.109   .     S
C1485  H1518   1.111   .     S
C1485  N1538   1.448   .     S
C1485  H1311   1.111   1_655 S
C1485  H584    1.110   1_556 S
C1486  H1530   1.110   .     S
C1486  N1542   1.444   .     S
C1486  H1531   1.109   .     S
C1486  H1321   1.107   1_655 S
C1487  C1491   1.402   .     A
C1488  C1489   1.398   .     A
C1488  C551    1.419   1_556 S
C1489  C1490   1.390   .     A
C1489  H1504   1.082   .     S
C1490  N1541   1.434   .     S
C1491  H1515   1.078   .     S
C1492  N1544   1.409   .     S
H1494  N1545   1.045   .     S
H1495  N1546   1.031   .     S
H1499  N1547   1.016   .     S
H1500  C1273   1.108   1_655 S
H1503  N1548   1.030   .     S
H1508  N1549   1.025   .     S
H1509  C1275   1.110   1_655 S
H1510  C1275   1.111   1_655 S
H1512  N1550   1.031   .     S
H1517  N1538   1.031   .     S
H1521  N1539   1.043   .     S
H1522  N1539   1.045   .     S
H1523  N1540   1.046   .     S
H1524  N1540   1.043   .     S
H1525  N1541   1.046   .     S
H1527  N1541   1.046   .     S
H1528  N1542   1.032   .     S
H1532  N1544   1.021   .     S
H1536  N1545   1.046   .     S
N1537  Zn1559  2.042   .     S
N1543  Zn1560  2.042   .     S
N1547  C1273   1.447   1_655 S
O1551  Zn1559  2.005   .     S
O1552  Zn1560  1.972   .     S
O1553  Zn1559  1.962   .     S
O1554  Zn1560  1.883   .     S
O1555  Zn1559  1.972   .     S
O1556  Zn1560  2.005   .     S
O1557  Zn1559  1.883   .     S
O1558  Zn1560  1.962   .     S
C1561  C1569   1.445   .     S
C1561  O1655   1.302   .     A
C1561  O1656   1.302   .     A
C1562  C1564   1.481   .     S
C1562  C1579   1.403   .     A
C1562  C1583   1.415   .     A
C1563  N1646   1.435   .     S
C1563  C1569   1.408   .     A
C1563  C941    1.395   1_565 S
C1564  O1658   1.305   .     A
C1564  O1657   1.315   .     A
C1565  H1597   1.079   .     S
C1565  C1566   1.400   .     A
C1566  C1575   1.431   .     S
C1566  C1567   1.405   .     A
C1567  N1649   1.443   .     S
C1568  C1569   1.399   .     A
C1568  N1650   1.427   .     S
C1568  C943    1.383   1_565 S
C1570  N1647   1.386   .     A
C1570  N1651   1.431   .     S
C1570  C1675   1.450   .     S
C1571  N1652   1.423   .     S
C1571  N1641   1.377   .     A
C1571  C1778   1.450   1_455 S
C1572  C1583   1.416   .     A
C1572  C645    1.414   1_556 S
C1572  C655    1.418   1_556 S
C1573  N1641   1.376   .     A
C1573  N1653   1.415   .     S
C1573  C1782   1.439   1_455 S
C1574  N1647   1.368   .     A
C1574  N1654   1.426   .     S
C1574  C1677   1.439   .     S
C1575  O1660   1.301   .     A
C1575  O1659   1.296   .     A
C1576  O1662   1.314   .     A
C1576  O1661   1.309   .     A
C1576  C1578   1.482   .     S
C1577  N1642   1.428   .     S
C1577  C1592   1.412   .     A
C1577  C660    1.402   1_556 S
C1578  C1595   1.394   .     A
C1578  C1596   1.411   .     A
C1579  C1580   1.403   .     A
C1579  N1643   1.430   .     S
C1580  C645    1.394   1_556 S
C1580  N708    1.432   1_556 S
C1581  H1630   1.079   .     S
C1582  N1648   1.447   .     S
C1582  H1638   1.109   .     S
C1582  H1639   1.110   .     S
C1582  H1741   1.109   .     S
C1583  C1594   1.416   .     A
C1584  H1602   1.110   .     S
C1584  H1601   1.108   .     S
C1584  N1650   1.450   .     S
C1584  H1600   1.112   .     S
C1585  H1605   1.104   .     S
C1585  H1606   1.107   .     S
C1585  H1812   1.108   1_455 S
C1585  N1859   1.447   1_455 S
C1586  H1610   1.107   .     S
C1586  N1652   1.453   .     S
C1586  H1609   1.108   .     S
C1586  H1611   1.111   .     S
C1587  H1615   1.108   .     S
C1587  N1653   1.441   .     S
C1587  H1821   1.110   1_455 S
C1587  H1822   1.111   1_455 S
C1588  H1617   1.108   .     S
C1588  N1654   1.448   .     S
C1588  H1620   1.106   .     S
C1588  H1618   1.109   .     S
C1589  H1622   1.111   .     S
C1589  N1642   1.448   .     S
C1589  H1727   1.111   .     S
C1589  H688    1.110   1_556 S
C1590  H1634   1.110   .     S
C1590  N1646   1.444   .     S
C1590  H1635   1.109   .     S
C1590  H1737   1.107   .     S
C1591  C1595   1.402   .     A
C1592  C1593   1.398   .     A
C1592  C655    1.419   1_556 S
C1593  C1594   1.390   .     A
C1593  H1608   1.082   .     S
C1594  N1645   1.434   .     S
C1595  H1619   1.078   .     S
C1596  N1648   1.409   .     S
H1598  N1649   1.045   .     S
H1599  N1650   1.031   .     S
H1603  N1651   1.016   .     S
H1604  C1689   1.108   .     S
H1607  N1652   1.030   .     S
H1612  N1653   1.025   .     S
H1613  C1691   1.110   .     S
H1614  C1691   1.111   .     S
H1616  N1654   1.031   .     S
H1621  N1642   1.031   .     S
H1623  C1797   1.111   1_455 S
H1625  N1643   1.043   .     S
H1626  N1643   1.045   .     S
H1627  N1644   1.046   .     S
H1628  N1644   1.043   .     S
H1629  N1645   1.046   .     S
H1631  N1645   1.046   .     S
H1632  N1646   1.032   .     S
H1633  C1798   1.107   1_455 S
H1636  N1648   1.021   .     S
H1637  C1790   1.109   1_455 S
H1640  N1649   1.046   .     S
N1641  Zn1663  2.042   .     S
N1647  Zn1664  2.042   .     S
N1651  C1689   1.447   .     S
O1655  Zn1663  2.005   .     S
O1656  Zn1664  1.972   .     S
O1657  Zn1663  1.962   .     S
O1658  Zn1664  1.883   .     S
O1659  Zn1663  1.972   .     S
O1660  Zn1664  2.005   .     S
O1661  Zn1663  1.883   .     S
O1662  Zn1664  1.962   .     S
C1665  C1673   1.445   .     S
C1665  O1759   1.302   .     A
C1665  O1760   1.302   .     A
C1666  C1668   1.481   .     S
C1666  C1683   1.403   .     A
C1666  C1687   1.415   .     A
C1667  N1750   1.435   .     S
C1667  C1673   1.408   .     A
C1667  C1045   1.395   1_565 S
C1668  O1762   1.305   .     A
C1668  O1761   1.315   .     A
C1669  H1701   1.079   .     S
C1669  C1670   1.400   .     A
C1670  C1679   1.431   .     S
C1670  C1671   1.405   .     A
C1671  N1753   1.443   .     S
C1672  C1673   1.399   .     A
C1672  N1754   1.427   .     S
C1672  C1047   1.383   1_565 S
C1674  N1751   1.386   .     A
C1674  N1755   1.431   .     S
C1674  C1779   1.450   .     S
C1675  N1756   1.423   .     S
C1675  N1745   1.377   .     A
C1676  C1687   1.416   .     A
C1676  C749    1.414   1_556 S
C1676  C759    1.418   1_556 S
C1677  N1745   1.376   .     A
C1677  N1757   1.415   .     S
C1678  N1751   1.368   .     A
C1678  N1758   1.426   .     S
C1678  C1781   1.439   .     S
C1679  O1764   1.301   .     A
C1679  O1763   1.296   .     A
C1680  O1766   1.314   .     A
C1680  O1765   1.309   .     A
C1680  C1682   1.482   .     S
C1681  N1746   1.428   .     S
C1681  C1696   1.412   .     A
C1681  C764    1.402   1_556 S
C1682  C1699   1.394   .     A
C1682  C1700   1.411   .     A
C1683  C1684   1.403   .     A
C1683  N1747   1.430   .     S
C1684  C749    1.394   1_556 S
C1684  N812    1.432   1_556 S
C1685  H1734   1.079   .     S
C1686  N1752   1.447   .     S
C1686  H1742   1.109   .     S
C1686  H1743   1.110   .     S
C1686  H1845   1.109   .     S
C1687  C1698   1.416   .     A
C1688  H1706   1.110   .     S
C1688  H1705   1.108   .     S
C1688  N1754   1.450   .     S
C1688  H1704   1.112   .     S
C1689  H1709   1.104   .     S
C1689  H1710   1.107   .     S
C1690  H1714   1.107   .     S
C1690  N1756   1.453   .     S
C1690  H1713   1.108   .     S
C1690  H1715   1.111   .     S
C1691  H1719   1.108   .     S
C1691  N1757   1.441   .     S
C1692  H1721   1.108   .     S
C1692  N1758   1.448   .     S
C1692  H1724   1.106   .     S
C1692  H1722   1.109   .     S
C1693  H1726   1.111   .     S
C1693  N1746   1.448   .     S
C1693  H1831   1.111   .     S
C1693  H792    1.110   1_556 S
C1694  H1738   1.110   .     S
C1694  N1750   1.444   .     S
C1694  H1739   1.109   .     S
C1694  H1841   1.107   .     S
C1695  C1699   1.402   .     A
C1696  C1697   1.398   .     A
C1696  C759    1.419   1_556 S
C1697  C1698   1.390   .     A
C1697  H1712   1.082   .     S
C1698  N1749   1.434   .     S
C1699  H1723   1.078   .     S
C1700  N1752   1.409   .     S
H1702  N1753   1.045   .     S
H1703  N1754   1.031   .     S
H1707  N1755   1.016   .     S
H1708  C1793   1.108   .     S
H1711  N1756   1.030   .     S
H1716  N1757   1.025   .     S
H1717  C1795   1.110   .     S
H1718  C1795   1.111   .     S
H1720  N1758   1.031   .     S
H1725  N1746   1.031   .     S
H1729  N1747   1.043   .     S
H1730  N1747   1.045   .     S
H1731  N1748   1.046   .     S
H1732  N1748   1.043   .     S
H1733  N1749   1.046   .     S
H1735  N1749   1.046   .     S
H1736  N1750   1.032   .     S
H1740  N1752   1.021   .     S
H1744  N1753   1.046   .     S
N1745  Zn1767  2.042   .     S
N1751  Zn1768  2.042   .     S
N1755  C1793   1.447   .     S
O1759  Zn1767  2.005   .     S
O1760  Zn1768  1.972   .     S
O1761  Zn1767  1.962   .     S
O1762  Zn1768  1.883   .     S
O1763  Zn1767  1.972   .     S
O1764  Zn1768  2.005   .     S
O1765  Zn1767  1.883   .     S
O1766  Zn1768  1.962   .     S
C1769  C1777   1.445   .     S
C1769  O1863   1.302   .     A
C1769  O1864   1.302   .     A
C1770  C1772   1.481   .     S
C1770  C1787   1.403   .     A
C1770  C1791   1.415   .     A
C1771  N1854   1.435   .     S
C1771  C1777   1.408   .     A
C1771  C1149   1.395   1_565 S
C1772  O1866   1.305   .     A
C1772  O1865   1.315   .     A
C1773  H1805   1.079   .     S
C1773  C1774   1.400   .     A
C1774  C1783   1.431   .     S
C1774  C1775   1.405   .     A
C1775  N1857   1.443   .     S
C1776  C1777   1.399   .     A
C1776  N1858   1.427   .     S
C1776  C1151   1.383   1_565 S
C1778  N1855   1.386   .     A
C1778  N1859   1.431   .     S
C1778  C1571   1.450   1_655 S
C1779  N1860   1.423   .     S
C1779  N1849   1.377   .     A
C1780  C1791   1.416   .     A
C1780  C853    1.414   1_556 S
C1780  C863    1.418   1_556 S
C1781  N1849   1.376   .     A
C1781  N1861   1.415   .     S
C1782  N1855   1.368   .     A
C1782  N1862   1.426   .     S
C1782  C1573   1.439   1_655 S
C1783  O1868   1.301   .     A
C1783  O1867   1.296   .     A
C1784  O1870   1.314   .     A
C1784  O1869   1.309   .     A
C1784  C1786   1.482   .     S
C1785  N1850   1.428   .     S
C1785  C1800   1.412   .     A
C1785  C868    1.402   1_556 S
C1786  C1803   1.394   .     A
C1786  C1804   1.411   .     A
C1787  C1788   1.403   .     A
C1787  N1851   1.430   .     S
C1788  C853    1.394   1_556 S
C1788  N916    1.432   1_556 S
C1789  H1838   1.079   .     S
C1790  N1856   1.447   .     S
C1790  H1846   1.109   .     S
C1790  H1847   1.110   .     S
C1790  H1637   1.109   1_655 S
C1791  C1802   1.416   .     A
C1792  H1810   1.110   .     S
C1792  H1809   1.108   .     S
C1792  N1858   1.450   .     S
C1792  H1808   1.112   .     S
C1793  H1813   1.104   .     S
C1793  H1814   1.107   .     S
C1794  H1818   1.107   .     S
C1794  N1860   1.453   .     S
C1794  H1817   1.108   .     S
C1794  H1819   1.111   .     S
C1795  H1823   1.108   .     S
C1795  N1861   1.441   .     S
C1796  H1825   1.108   .     S
C1796  N1862   1.448   .     S
C1796  H1828   1.106   .     S
C1796  H1826   1.109   .     S
C1797  H1830   1.111   .     S
C1797  N1850   1.448   .     S
C1797  H1623   1.111   1_655 S
C1797  H896    1.110   1_556 S
C1798  H1842   1.110   .     S
C1798  N1854   1.444   .     S
C1798  H1843   1.109   .     S
C1798  H1633   1.107   1_655 S
C1799  C1803   1.402   .     A
C1800  C1801   1.398   .     A
C1800  C863    1.419   1_556 S
C1801  C1802   1.390   .     A
C1801  H1816   1.082   .     S
C1802  N1853   1.434   .     S
C1803  H1827   1.078   .     S
C1804  N1856   1.409   .     S
H1806  N1857   1.045   .     S
H1807  N1858   1.031   .     S
H1811  N1859   1.016   .     S
H1812  C1585   1.108   1_655 S
H1815  N1860   1.030   .     S
H1820  N1861   1.025   .     S
H1821  C1587   1.110   1_655 S
H1822  C1587   1.111   1_655 S
H1824  N1862   1.031   .     S
H1829  N1850   1.031   .     S
H1833  N1851   1.043   .     S
H1834  N1851   1.045   .     S
H1835  N1852   1.046   .     S
H1836  N1852   1.043   .     S
H1837  N1853   1.046   .     S
H1839  N1853   1.046   .     S
H1840  N1854   1.032   .     S
H1844  N1856   1.021   .     S
H1848  N1857   1.046   .     S
N1849  Zn1871  2.042   .     S
N1855  Zn1872  2.042   .     S
N1859  C1585   1.447   1_655 S
O1863  Zn1871  2.005   .     S
O1864  Zn1872  1.972   .     S
O1865  Zn1871  1.962   .     S
O1866  Zn1872  1.883   .     S
O1867  Zn1871  1.972   .     S
O1868  Zn1872  2.005   .     S
O1869  Zn1871  1.883   .     S
O1870  Zn1872  1.962   .     S
