data_str_m3_o1_o1_pcu_sym.40
_audit_creation_date              2020-01-03
_audit_creation_method            'Materials Studio'
_symmetry_space_group_name_H-M    'P1'
_symmetry_Int_Tables_number       1
_symmetry_cell_setting            triclinic
loop_
_symmetry_equiv_pos_as_xyz
  x,y,z
_cell_length_a                    31.3284
_cell_length_b                    29.0905
_cell_length_c                    30.2884
_cell_angle_alpha                 91.4207
_cell_angle_beta                  89.8275
_cell_angle_gamma                 90.4502
loop_
_atom_site_label
_atom_site_type_symbol
_atom_site_fract_x
_atom_site_fract_y
_atom_site_fract_z
_atom_site_U_iso_or_equiv
_atom_site_adp_type
_atom_site_occupancy
C1     C     0.05947   0.18965   0.16649   0.00000  Uiso   1.00
C2     C     0.49642   0.20996   0.30886   0.00000  Uiso   1.00
C3     C     0.00388   0.21006   0.02219   0.00000  Uiso   1.00
C4     C     0.00611   0.29038   0.31081   0.00000  Uiso   1.00
C5     C     0.25123   0.04080   0.02508   0.00000  Uiso   1.00
C6     C     0.24643   0.45995   0.30886   0.00000  Uiso   1.00
C7     C     0.25390   0.46006   0.02219   0.00000  Uiso   1.00
C8     C     0.25611   0.04038   0.31081   0.00000  Uiso   1.00
C9     C     0.40643   0.12228   0.13385   0.00000  Uiso   1.00
C10    C     0.09207   0.37971   0.19769   0.00000  Uiso   1.00
C11    C     0.12442   0.33982   0.13445   0.00000  Uiso   1.00
C12    C     0.43933   0.30881   0.16699   0.00000  Uiso   1.00
C13    C     0.37381   0.16239   0.19679   0.00000  Uiso   1.00
C14    C     0.10303   0.13531   0.20679   0.00000  Uiso   1.00
C15    C     0.39077   0.35724   0.12729   0.00000  Uiso   1.00
C16    C     0.38468   0.35285   0.20708   0.00000  Uiso   1.00
C17    C     0.11032   0.14048   0.12714   0.00000  Uiso   1.00
C18    C     0.15638   0.37234   0.13378   0.00000  Uiso   1.00
C19    C     0.34203   0.12974   0.19765   0.00000  Uiso   1.00
C20    C     0.37447   0.08976   0.13451   0.00000  Uiso   1.00
C21    C     0.12385   0.41235   0.19683   0.00000  Uiso   1.00
C22    C     0.35299   0.38527   0.20678   0.00000  Uiso   1.00
C23    C     0.44015   0.19029   0.16633   0.00000  Uiso   1.00
C24    C     0.14069   0.10715   0.12729   0.00000  Uiso   1.00
C25    C     0.13470   0.10287   0.20709   0.00000  Uiso   1.00
C26    C     0.36041   0.39058   0.12715   0.00000  Uiso   1.00
C27    C     0.09275   0.34336   0.16683   0.00000  Uiso   1.00
C28    C     0.40631   0.15788   0.16555   0.00000  Uiso   1.00
C29    C     0.40437   0.33988   0.16732   0.00000  Uiso   1.00
C30    C     0.09143   0.15485   0.16673   0.00000  Uiso   1.00
C31    C     0.34276   0.09335   0.16683   0.00000  Uiso   1.00
C32    C     0.15631   0.40789   0.16554   0.00000  Uiso   1.00
C33    C     0.15435   0.08986   0.16732   0.00000  Uiso   1.00
C34    C     0.05961   0.31004   0.16687   0.00000  Uiso   1.00
C35    C     0.34145   0.40487   0.16673   0.00000  Uiso   1.00
C36    C     0.00250   0.33659   0.05100   0.00000  Uiso   1.00
C37    C     0.46747   0.37018   0.03823   0.00000  Uiso   1.00
C38    C     0.48560   0.16464   0.28550   0.00000  Uiso   1.00
C39    C     0.43786   0.15463   0.28935   0.00000  Uiso   1.00
C40    C     0.03301   0.17283   0.03769   0.00000  Uiso   1.00
C41    C     0.01038   0.13397   0.06151   0.00000  Uiso   1.00
C42    C     0.02453   0.33339   0.28991   0.00000  Uiso   1.00
C43    C     0.49223   0.36190   0.26462   0.00000  Uiso   1.00
C44    C     0.25247   0.08659   0.05099   0.00000  Uiso   1.00
C45    C     0.30947   0.43965   0.16649   0.00000  Uiso   1.00
C46    C     0.21739   0.12013   0.03824   0.00000  Uiso   1.00
C47    C     0.23562   0.41464   0.28550   0.00000  Uiso   1.00
C48    C     0.18788   0.40461   0.28936   0.00000  Uiso   1.00
C49    C     0.28303   0.42283   0.03769   0.00000  Uiso   1.00
C50    C     0.26040   0.38397   0.06152   0.00000  Uiso   1.00
C51    C     0.27453   0.08340   0.28992   0.00000  Uiso   1.00
C52    C     0.24223   0.11191   0.26463   0.00000  Uiso   1.00
C53    C     0.18933   0.05881   0.16699   0.00000  Uiso   1.00
C54    C     0.19015   0.44029   0.16633   0.00000  Uiso   1.00
C55    C     0.30961   0.06004   0.16687   0.00000  Uiso   1.00
C56    C     0.00124   0.29080   0.02508   0.00000  Uiso   1.00
H57    H     0.43135   0.11913   0.10928   0.00000  Uiso   1.00
H58    H     0.31672   0.13369   0.22153   0.00000  Uiso   1.00
H59    H     0.37472   0.06163   0.11035   0.00000  Uiso   1.00
H60    H     0.12292   0.44120   0.22011   0.00000  Uiso   1.00
H61    H     0.33803   0.39518   0.23785   0.00000  Uiso   1.00
H62    H     0.15384   0.09559   0.09603   0.00000  Uiso   1.00
H63    H     0.14367   0.08823   0.23819   0.00000  Uiso   1.00
H64    H     0.35271   0.40520   0.09608   0.00000  Uiso   1.00
H65    H     0.43861   0.35165   0.02579   0.00000  Uiso   1.00
H66    H     0.45853   0.39204   0.06734   0.00000  Uiso   1.00
H67    H     0.47912   0.39425   0.01319   0.00000  Uiso   1.00
H68    H     0.06679   0.38362   0.22161   0.00000  Uiso   1.00
H69    H     0.49887   0.33208   0.08589   0.00000  Uiso   1.00
H70    H     0.03449   0.35304   0.04933   0.00000  Uiso   1.00
H71    H     0.41905   0.18502   0.28010   0.00000  Uiso   1.00
H72    H     0.42910   0.12488   0.26745   0.00000  Uiso   1.00
H73    H     0.42948   0.14621   0.32387   0.00000  Uiso   1.00
H74    H     0.49627   0.16413   0.25100   0.00000  Uiso   1.00
H75    H     0.00247   0.13495   0.29912   0.00000  Uiso   1.00
H76    H     0.03315   0.10552   0.06649   0.00000  Uiso   1.00
H77    H     0.49896   0.14560   0.09427   0.00000  Uiso   1.00
H78    H     0.48305   0.12036   0.04190   0.00000  Uiso   1.00
H79    H     0.12464   0.31174   0.11024   0.00000  Uiso   1.00
H80    H     0.05181   0.15756   0.00993   0.00000  Uiso   1.00
H81    H     0.05858   0.18956   0.05670   0.00000  Uiso   1.00
H82    H     0.49710   0.39910   0.27236   0.00000  Uiso   1.00
H83    H     0.49694   0.35831   0.22862   0.00000  Uiso   1.00
H84    H     0.45902   0.35274   0.27381   0.00000  Uiso   1.00
H85    H     0.03942   0.35719   0.31420   0.00000  Uiso   1.00
H86    H     0.05376   0.32478   0.27176   0.00000  Uiso   1.00
H87    H     0.18855   0.10156   0.02583   0.00000  Uiso   1.00
H88    H     0.20844   0.14199   0.06735   0.00000  Uiso   1.00
H89    H     0.22899   0.14419   0.01318   0.00000  Uiso   1.00
H90    H     0.37286   0.19126   0.22003   0.00000  Uiso   1.00
H91    H     0.24886   0.08208   0.08588   0.00000  Uiso   1.00
H92    H     0.28443   0.10308   0.04932   0.00000  Uiso   1.00
H93    H     0.16906   0.43503   0.28015   0.00000  Uiso   1.00
H94    H     0.17912   0.37489   0.26743   0.00000  Uiso   1.00
H95    H     0.17952   0.39615   0.32389   0.00000  Uiso   1.00
H96    H     0.24628   0.41413   0.25100   0.00000  Uiso   1.00
H97    H     0.25250   0.38495   0.29911   0.00000  Uiso   1.00
H98    H     0.28319   0.35555   0.06655   0.00000  Uiso   1.00
H99    H     0.24894   0.39561   0.09425   0.00000  Uiso   1.00
H100   H     0.23311   0.37032   0.04188   0.00000  Uiso   1.00
H101   H     0.08811   0.14527   0.23787   0.00000  Uiso   1.00
H102   H     0.30182   0.40756   0.00993   0.00000  Uiso   1.00
H103   H     0.30859   0.43956   0.05671   0.00000  Uiso   1.00
H104   H     0.24710   0.14911   0.27237   0.00000  Uiso   1.00
H105   H     0.24693   0.10831   0.22863   0.00000  Uiso   1.00
H106   H     0.20901   0.10275   0.27383   0.00000  Uiso   1.00
H107   H     0.28941   0.10719   0.31420   0.00000  Uiso   1.00
H108   H     0.30376   0.07479   0.27175   0.00000  Uiso   1.00
H109   H     0.40396   0.34574   0.09603   0.00000  Uiso   1.00
H110   H     0.39361   0.33816   0.23817   0.00000  Uiso   1.00
H111   H     0.10258   0.15503   0.09606   0.00000  Uiso   1.00
H112   H     0.18125   0.36924   0.10916   0.00000  Uiso   1.00
N113   N     0.00000   0.25000   0.28573   0.00000  Uiso   1.00
N114   N     0.00000   0.25000   0.04760   0.00000  Uiso   1.00
N115   N     0.25000  -0.00000   0.28573   0.00000  Uiso   1.00
N116   N     0.25000  -0.00000   0.04760   0.00000  Uiso   1.00
O117   O     0.04581   0.20419   0.20487   0.00000  Uiso   1.00
O118   O     0.20420   0.04581   0.12846   0.00000  Uiso   1.00
O119   O     0.20420   0.04581   0.20487   0.00000  Uiso   1.00
O120   O     0.29581   0.45419   0.12846   0.00000  Uiso   1.00
O121   O     0.20420   0.45419   0.12846   0.00000  Uiso   1.00
O122   O     0.29581   0.04581   0.20487   0.00000  Uiso   1.00
O123   O     0.29581   0.04581   0.12846   0.00000  Uiso   1.00
O124   O     0.20420   0.45419   0.20487   0.00000  Uiso   1.00
O125   O     0.45420   0.29581   0.12846   0.00000  Uiso   1.00
O126   O     0.45420   0.29581   0.20487   0.00000  Uiso   1.00
O127   O     0.04581   0.20419   0.12846   0.00000  Uiso   1.00
O128   O     0.45420   0.20419   0.12846   0.00000  Uiso   1.00
O129   O     0.04581   0.29581   0.20487   0.00000  Uiso   1.00
O130   O     0.04581   0.29581   0.12846   0.00000  Uiso   1.00
O131   O     0.45420   0.20419   0.20487   0.00000  Uiso   1.00
O132   O     0.29581   0.45419   0.20487   0.00000  Uiso   1.00
Zn133  Zn    0.00000   0.25000   0.21771   0.00000  Uiso   1.00
Zn134  Zn    0.00000   0.25000   0.11563   0.00000  Uiso   1.00
Zn135  Zn    0.25000  -0.00000   0.21771   0.00000  Uiso   1.00
Zn136  Zn    0.25000  -0.00000   0.11563   0.00000  Uiso   1.00
C137   C     0.55947   0.18965   0.16649   0.00000  Uiso   1.00
C138   C     0.99642   0.20996   0.30886   0.00000  Uiso   1.00
C139   C     0.50388   0.21006   0.02219   0.00000  Uiso   1.00
C140   C     0.50611   0.29038   0.31081   0.00000  Uiso   1.00
C141   C     0.75123   0.04080   0.02508   0.00000  Uiso   1.00
C142   C     0.74643   0.45995   0.30886   0.00000  Uiso   1.00
C143   C     0.75390   0.46006   0.02219   0.00000  Uiso   1.00
C144   C     0.75611   0.04038   0.31081   0.00000  Uiso   1.00
C145   C     0.90643   0.12228   0.13385   0.00000  Uiso   1.00
C146   C     0.59207   0.37971   0.19769   0.00000  Uiso   1.00
C147   C     0.62442   0.33982   0.13445   0.00000  Uiso   1.00
C148   C     0.93933   0.30881   0.16699   0.00000  Uiso   1.00
C149   C     0.87381   0.16239   0.19679   0.00000  Uiso   1.00
C150   C     0.60303   0.13531   0.20679   0.00000  Uiso   1.00
C151   C     0.89077   0.35724   0.12729   0.00000  Uiso   1.00
C152   C     0.88468   0.35285   0.20708   0.00000  Uiso   1.00
C153   C     0.61032   0.14048   0.12714   0.00000  Uiso   1.00
C154   C     0.65638   0.37234   0.13378   0.00000  Uiso   1.00
C155   C     0.84203   0.12974   0.19765   0.00000  Uiso   1.00
C156   C     0.87447   0.08976   0.13451   0.00000  Uiso   1.00
C157   C     0.62385   0.41235   0.19683   0.00000  Uiso   1.00
C158   C     0.85299   0.38527   0.20678   0.00000  Uiso   1.00
C159   C     0.94015   0.19029   0.16633   0.00000  Uiso   1.00
C160   C     0.64069   0.10715   0.12729   0.00000  Uiso   1.00
C161   C     0.63470   0.10287   0.20709   0.00000  Uiso   1.00
C162   C     0.86041   0.39058   0.12715   0.00000  Uiso   1.00
C163   C     0.59275   0.34336   0.16683   0.00000  Uiso   1.00
C164   C     0.90631   0.15788   0.16555   0.00000  Uiso   1.00
C165   C     0.90437   0.33988   0.16732   0.00000  Uiso   1.00
C166   C     0.59143   0.15485   0.16673   0.00000  Uiso   1.00
C167   C     0.84276   0.09335   0.16683   0.00000  Uiso   1.00
C168   C     0.65631   0.40789   0.16554   0.00000  Uiso   1.00
C169   C     0.65435   0.08986   0.16732   0.00000  Uiso   1.00
C170   C     0.55961   0.31004   0.16687   0.00000  Uiso   1.00
C171   C     0.84145   0.40487   0.16673   0.00000  Uiso   1.00
C172   C     0.50250   0.33659   0.05100   0.00000  Uiso   1.00
C173   C     0.96747   0.37018   0.03823   0.00000  Uiso   1.00
C174   C     0.98560   0.16464   0.28550   0.00000  Uiso   1.00
C175   C     0.93786   0.15463   0.28935   0.00000  Uiso   1.00
C176   C     0.53301   0.17283   0.03769   0.00000  Uiso   1.00
C177   C     0.51038   0.13397   0.06151   0.00000  Uiso   1.00
C178   C     0.52453   0.33339   0.28991   0.00000  Uiso   1.00
C179   C     0.99223   0.36190   0.26462   0.00000  Uiso   1.00
C180   C     0.75247   0.08659   0.05099   0.00000  Uiso   1.00
C181   C     0.80947   0.43965   0.16649   0.00000  Uiso   1.00
C182   C     0.71739   0.12013   0.03824   0.00000  Uiso   1.00
C183   C     0.73562   0.41464   0.28550   0.00000  Uiso   1.00
C184   C     0.68788   0.40461   0.28936   0.00000  Uiso   1.00
C185   C     0.78303   0.42283   0.03769   0.00000  Uiso   1.00
C186   C     0.76040   0.38397   0.06152   0.00000  Uiso   1.00
C187   C     0.77453   0.08340   0.28992   0.00000  Uiso   1.00
C188   C     0.74223   0.11191   0.26463   0.00000  Uiso   1.00
C189   C     0.68933   0.05881   0.16699   0.00000  Uiso   1.00
C190   C     0.69015   0.44029   0.16633   0.00000  Uiso   1.00
C191   C     0.80961   0.06004   0.16687   0.00000  Uiso   1.00
C192   C     0.50124   0.29080   0.02508   0.00000  Uiso   1.00
H193   H     0.93135   0.11913   0.10928   0.00000  Uiso   1.00
H194   H     0.81672   0.13369   0.22153   0.00000  Uiso   1.00
H195   H     0.87472   0.06163   0.11035   0.00000  Uiso   1.00
H196   H     0.62292   0.44120   0.22011   0.00000  Uiso   1.00
H197   H     0.83803   0.39518   0.23785   0.00000  Uiso   1.00
H198   H     0.65384   0.09559   0.09603   0.00000  Uiso   1.00
H199   H     0.64367   0.08823   0.23819   0.00000  Uiso   1.00
H200   H     0.85271   0.40520   0.09608   0.00000  Uiso   1.00
H201   H     0.93861   0.35165   0.02579   0.00000  Uiso   1.00
H202   H     0.95853   0.39204   0.06734   0.00000  Uiso   1.00
H203   H     0.97912   0.39425   0.01319   0.00000  Uiso   1.00
H204   H     0.56679   0.38362   0.22161   0.00000  Uiso   1.00
H205   H     0.99887   0.33208   0.08589   0.00000  Uiso   1.00
H206   H     0.53449   0.35304   0.04933   0.00000  Uiso   1.00
H207   H     0.91905   0.18502   0.28010   0.00000  Uiso   1.00
H208   H     0.92910   0.12488   0.26745   0.00000  Uiso   1.00
H209   H     0.92948   0.14621   0.32387   0.00000  Uiso   1.00
H210   H     0.99627   0.16413   0.25100   0.00000  Uiso   1.00
H211   H     0.50247   0.13495   0.29912   0.00000  Uiso   1.00
H212   H     0.53315   0.10552   0.06649   0.00000  Uiso   1.00
H213   H     0.99896   0.14560   0.09427   0.00000  Uiso   1.00
H214   H     0.98305   0.12036   0.04190   0.00000  Uiso   1.00
H215   H     0.62464   0.31174   0.11024   0.00000  Uiso   1.00
H216   H     0.55181   0.15756   0.00993   0.00000  Uiso   1.00
H217   H     0.55858   0.18956   0.05670   0.00000  Uiso   1.00
H218   H     0.99710   0.39910   0.27236   0.00000  Uiso   1.00
H219   H     0.99694   0.35831   0.22862   0.00000  Uiso   1.00
H220   H     0.95902   0.35274   0.27381   0.00000  Uiso   1.00
H221   H     0.53942   0.35719   0.31420   0.00000  Uiso   1.00
H222   H     0.55376   0.32478   0.27176   0.00000  Uiso   1.00
H223   H     0.68855   0.10156   0.02583   0.00000  Uiso   1.00
H224   H     0.70844   0.14199   0.06735   0.00000  Uiso   1.00
H225   H     0.72899   0.14419   0.01318   0.00000  Uiso   1.00
H226   H     0.87286   0.19126   0.22003   0.00000  Uiso   1.00
H227   H     0.74886   0.08208   0.08588   0.00000  Uiso   1.00
H228   H     0.78443   0.10308   0.04932   0.00000  Uiso   1.00
H229   H     0.66906   0.43503   0.28015   0.00000  Uiso   1.00
H230   H     0.67912   0.37489   0.26743   0.00000  Uiso   1.00
H231   H     0.67952   0.39615   0.32389   0.00000  Uiso   1.00
H232   H     0.74628   0.41413   0.25100   0.00000  Uiso   1.00
H233   H     0.75250   0.38495   0.29911   0.00000  Uiso   1.00
H234   H     0.78319   0.35555   0.06655   0.00000  Uiso   1.00
H235   H     0.74894   0.39561   0.09425   0.00000  Uiso   1.00
H236   H     0.73311   0.37032   0.04188   0.00000  Uiso   1.00
H237   H     0.58811   0.14527   0.23787   0.00000  Uiso   1.00
H238   H     0.80182   0.40756   0.00993   0.00000  Uiso   1.00
H239   H     0.80859   0.43956   0.05671   0.00000  Uiso   1.00
H240   H     0.74710   0.14911   0.27237   0.00000  Uiso   1.00
H241   H     0.74693   0.10831   0.22863   0.00000  Uiso   1.00
H242   H     0.70901   0.10275   0.27383   0.00000  Uiso   1.00
H243   H     0.78941   0.10719   0.31420   0.00000  Uiso   1.00
H244   H     0.80376   0.07479   0.27175   0.00000  Uiso   1.00
H245   H     0.90396   0.34574   0.09603   0.00000  Uiso   1.00
H246   H     0.89361   0.33816   0.23817   0.00000  Uiso   1.00
H247   H     0.60258   0.15503   0.09606   0.00000  Uiso   1.00
H248   H     0.68125   0.36924   0.10916   0.00000  Uiso   1.00
N249   N     0.50000   0.25000   0.28573   0.00000  Uiso   1.00
N250   N     0.50000   0.25000   0.04760   0.00000  Uiso   1.00
N251   N     0.75000  -0.00000   0.28573   0.00000  Uiso   1.00
N252   N     0.75000  -0.00000   0.04760   0.00000  Uiso   1.00
O253   O     0.54581   0.20419   0.20487   0.00000  Uiso   1.00
O254   O     0.70420   0.04581   0.12846   0.00000  Uiso   1.00
O255   O     0.70420   0.04581   0.20487   0.00000  Uiso   1.00
O256   O     0.79581   0.45419   0.12846   0.00000  Uiso   1.00
O257   O     0.70420   0.45419   0.12846   0.00000  Uiso   1.00
O258   O     0.79581   0.04581   0.20487   0.00000  Uiso   1.00
O259   O     0.79581   0.04581   0.12846   0.00000  Uiso   1.00
O260   O     0.70420   0.45419   0.20487   0.00000  Uiso   1.00
O261   O     0.95420   0.29581   0.12846   0.00000  Uiso   1.00
O262   O     0.95420   0.29581   0.20487   0.00000  Uiso   1.00
O263   O     0.54581   0.20419   0.12846   0.00000  Uiso   1.00
O264   O     0.95420   0.20419   0.12846   0.00000  Uiso   1.00
O265   O     0.54581   0.29581   0.20487   0.00000  Uiso   1.00
O266   O     0.54581   0.29581   0.12846   0.00000  Uiso   1.00
O267   O     0.95420   0.20419   0.20487   0.00000  Uiso   1.00
O268   O     0.79581   0.45419   0.20487   0.00000  Uiso   1.00
Zn269  Zn    0.50000   0.25000   0.21771   0.00000  Uiso   1.00
Zn270  Zn    0.50000   0.25000   0.11563   0.00000  Uiso   1.00
Zn271  Zn    0.75000  -0.00000   0.21771   0.00000  Uiso   1.00
Zn272  Zn    0.75000  -0.00000   0.11563   0.00000  Uiso   1.00
C273   C     0.05947   0.68965   0.16649   0.00000  Uiso   1.00
C274   C     0.49642   0.70996   0.30886   0.00000  Uiso   1.00
C275   C     0.00388   0.71006   0.02219   0.00000  Uiso   1.00
C276   C     0.00611   0.79038   0.31081   0.00000  Uiso   1.00
C277   C     0.25123   0.54080   0.02508   0.00000  Uiso   1.00
C278   C     0.24643   0.95995   0.30886   0.00000  Uiso   1.00
C279   C     0.25390   0.96006   0.02219   0.00000  Uiso   1.00
C280   C     0.25611   0.54038   0.31081   0.00000  Uiso   1.00
C281   C     0.40643   0.62228   0.13385   0.00000  Uiso   1.00
C282   C     0.09207   0.87971   0.19769   0.00000  Uiso   1.00
C283   C     0.12442   0.83982   0.13445   0.00000  Uiso   1.00
C284   C     0.43933   0.80881   0.16699   0.00000  Uiso   1.00
C285   C     0.37381   0.66239   0.19679   0.00000  Uiso   1.00
C286   C     0.10303   0.63531   0.20679   0.00000  Uiso   1.00
C287   C     0.39077   0.85724   0.12729   0.00000  Uiso   1.00
C288   C     0.38468   0.85285   0.20708   0.00000  Uiso   1.00
C289   C     0.11032   0.64048   0.12714   0.00000  Uiso   1.00
C290   C     0.15638   0.87234   0.13378   0.00000  Uiso   1.00
C291   C     0.34203   0.62974   0.19765   0.00000  Uiso   1.00
C292   C     0.37447   0.58976   0.13451   0.00000  Uiso   1.00
C293   C     0.12385   0.91235   0.19683   0.00000  Uiso   1.00
C294   C     0.35299   0.88527   0.20678   0.00000  Uiso   1.00
C295   C     0.44015   0.69029   0.16633   0.00000  Uiso   1.00
C296   C     0.14069   0.60715   0.12729   0.00000  Uiso   1.00
C297   C     0.13470   0.60287   0.20709   0.00000  Uiso   1.00
C298   C     0.36041   0.89058   0.12715   0.00000  Uiso   1.00
C299   C     0.09275   0.84336   0.16683   0.00000  Uiso   1.00
C300   C     0.40631   0.65788   0.16555   0.00000  Uiso   1.00
C301   C     0.40437   0.83988   0.16732   0.00000  Uiso   1.00
C302   C     0.09143   0.65485   0.16673   0.00000  Uiso   1.00
C303   C     0.34276   0.59335   0.16683   0.00000  Uiso   1.00
C304   C     0.15631   0.90789   0.16554   0.00000  Uiso   1.00
C305   C     0.15435   0.58986   0.16732   0.00000  Uiso   1.00
C306   C     0.05961   0.81004   0.16687   0.00000  Uiso   1.00
C307   C     0.34145   0.90487   0.16673   0.00000  Uiso   1.00
C308   C     0.00250   0.83659   0.05100   0.00000  Uiso   1.00
C309   C     0.46747   0.87018   0.03823   0.00000  Uiso   1.00
C310   C     0.48560   0.66464   0.28550   0.00000  Uiso   1.00
C311   C     0.43786   0.65463   0.28935   0.00000  Uiso   1.00
C312   C     0.03301   0.67283   0.03769   0.00000  Uiso   1.00
C313   C     0.01038   0.63397   0.06151   0.00000  Uiso   1.00
C314   C     0.02453   0.83339   0.28991   0.00000  Uiso   1.00
C315   C     0.49223   0.86190   0.26462   0.00000  Uiso   1.00
C316   C     0.25247   0.58659   0.05099   0.00000  Uiso   1.00
C317   C     0.30947   0.93965   0.16649   0.00000  Uiso   1.00
C318   C     0.21739   0.62013   0.03824   0.00000  Uiso   1.00
C319   C     0.23562   0.91464   0.28550   0.00000  Uiso   1.00
C320   C     0.18788   0.90461   0.28936   0.00000  Uiso   1.00
C321   C     0.28303   0.92283   0.03769   0.00000  Uiso   1.00
C322   C     0.26040   0.88397   0.06152   0.00000  Uiso   1.00
C323   C     0.27453   0.58340   0.28992   0.00000  Uiso   1.00
C324   C     0.24223   0.61191   0.26463   0.00000  Uiso   1.00
C325   C     0.18933   0.55881   0.16699   0.00000  Uiso   1.00
C326   C     0.19015   0.94029   0.16633   0.00000  Uiso   1.00
C327   C     0.30961   0.56004   0.16687   0.00000  Uiso   1.00
C328   C     0.00124   0.79080   0.02508   0.00000  Uiso   1.00
H329   H     0.43135   0.61913   0.10928   0.00000  Uiso   1.00
H330   H     0.31672   0.63369   0.22153   0.00000  Uiso   1.00
H331   H     0.37472   0.56163   0.11035   0.00000  Uiso   1.00
H332   H     0.12292   0.94120   0.22011   0.00000  Uiso   1.00
H333   H     0.33803   0.89518   0.23785   0.00000  Uiso   1.00
H334   H     0.15384   0.59559   0.09603   0.00000  Uiso   1.00
H335   H     0.14367   0.58823   0.23819   0.00000  Uiso   1.00
H336   H     0.35271   0.90520   0.09608   0.00000  Uiso   1.00
H337   H     0.43861   0.85165   0.02579   0.00000  Uiso   1.00
H338   H     0.45853   0.89204   0.06734   0.00000  Uiso   1.00
H339   H     0.47912   0.89425   0.01319   0.00000  Uiso   1.00
H340   H     0.06679   0.88362   0.22161   0.00000  Uiso   1.00
H341   H     0.49887   0.83208   0.08589   0.00000  Uiso   1.00
H342   H     0.03449   0.85304   0.04933   0.00000  Uiso   1.00
H343   H     0.41905   0.68502   0.28010   0.00000  Uiso   1.00
H344   H     0.42910   0.62488   0.26745   0.00000  Uiso   1.00
H345   H     0.42948   0.64621   0.32387   0.00000  Uiso   1.00
H346   H     0.49627   0.66413   0.25100   0.00000  Uiso   1.00
H347   H     0.00247   0.63495   0.29912   0.00000  Uiso   1.00
H348   H     0.03315   0.60552   0.06649   0.00000  Uiso   1.00
H349   H     0.49896   0.64560   0.09427   0.00000  Uiso   1.00
H350   H     0.48305   0.62036   0.04190   0.00000  Uiso   1.00
H351   H     0.12464   0.81174   0.11024   0.00000  Uiso   1.00
H352   H     0.05181   0.65756   0.00993   0.00000  Uiso   1.00
H353   H     0.05858   0.68956   0.05670   0.00000  Uiso   1.00
H354   H     0.49710   0.89910   0.27236   0.00000  Uiso   1.00
H355   H     0.49694   0.85831   0.22862   0.00000  Uiso   1.00
H356   H     0.45902   0.85274   0.27381   0.00000  Uiso   1.00
H357   H     0.03942   0.85719   0.31420   0.00000  Uiso   1.00
H358   H     0.05376   0.82478   0.27176   0.00000  Uiso   1.00
H359   H     0.18855   0.60156   0.02583   0.00000  Uiso   1.00
H360   H     0.20844   0.64199   0.06735   0.00000  Uiso   1.00
H361   H     0.22899   0.64419   0.01318   0.00000  Uiso   1.00
H362   H     0.37286   0.69126   0.22003   0.00000  Uiso   1.00
H363   H     0.24886   0.58208   0.08588   0.00000  Uiso   1.00
H364   H     0.28443   0.60308   0.04932   0.00000  Uiso   1.00
H365   H     0.16906   0.93503   0.28015   0.00000  Uiso   1.00
H366   H     0.17912   0.87489   0.26743   0.00000  Uiso   1.00
H367   H     0.17952   0.89615   0.32389   0.00000  Uiso   1.00
H368   H     0.24628   0.91413   0.25100   0.00000  Uiso   1.00
H369   H     0.25250   0.88495   0.29911   0.00000  Uiso   1.00
H370   H     0.28319   0.85555   0.06655   0.00000  Uiso   1.00
H371   H     0.24894   0.89561   0.09425   0.00000  Uiso   1.00
H372   H     0.23311   0.87032   0.04188   0.00000  Uiso   1.00
H373   H     0.08811   0.64527   0.23787   0.00000  Uiso   1.00
H374   H     0.30182   0.90756   0.00993   0.00000  Uiso   1.00
H375   H     0.30859   0.93956   0.05671   0.00000  Uiso   1.00
H376   H     0.24710   0.64911   0.27237   0.00000  Uiso   1.00
H377   H     0.24693   0.60831   0.22863   0.00000  Uiso   1.00
H378   H     0.20901   0.60275   0.27383   0.00000  Uiso   1.00
H379   H     0.28941   0.60719   0.31420   0.00000  Uiso   1.00
H380   H     0.30376   0.57479   0.27175   0.00000  Uiso   1.00
H381   H     0.40396   0.84574   0.09603   0.00000  Uiso   1.00
H382   H     0.39361   0.83816   0.23817   0.00000  Uiso   1.00
H383   H     0.10258   0.65503   0.09606   0.00000  Uiso   1.00
H384   H     0.18125   0.86924   0.10916   0.00000  Uiso   1.00
N385   N     0.00000   0.75000   0.28573   0.00000  Uiso   1.00
N386   N     0.00000   0.75000   0.04760   0.00000  Uiso   1.00
N387   N     0.25000   0.50000   0.28573   0.00000  Uiso   1.00
N388   N     0.25000   0.50000   0.04760   0.00000  Uiso   1.00
O389   O     0.04581   0.70419   0.20487   0.00000  Uiso   1.00
O390   O     0.20420   0.54581   0.12846   0.00000  Uiso   1.00
O391   O     0.20420   0.54581   0.20487   0.00000  Uiso   1.00
O392   O     0.29581   0.95419   0.12846   0.00000  Uiso   1.00
O393   O     0.20420   0.95419   0.12846   0.00000  Uiso   1.00
O394   O     0.29581   0.54581   0.20487   0.00000  Uiso   1.00
O395   O     0.29581   0.54581   0.12846   0.00000  Uiso   1.00
O396   O     0.20420   0.95419   0.20487   0.00000  Uiso   1.00
O397   O     0.45420   0.79581   0.12846   0.00000  Uiso   1.00
O398   O     0.45420   0.79581   0.20487   0.00000  Uiso   1.00
O399   O     0.04581   0.70419   0.12846   0.00000  Uiso   1.00
O400   O     0.45420   0.70419   0.12846   0.00000  Uiso   1.00
O401   O     0.04581   0.79581   0.20487   0.00000  Uiso   1.00
O402   O     0.04581   0.79581   0.12846   0.00000  Uiso   1.00
O403   O     0.45420   0.70419   0.20487   0.00000  Uiso   1.00
O404   O     0.29581   0.95419   0.20487   0.00000  Uiso   1.00
Zn405  Zn    0.00000   0.75000   0.21771   0.00000  Uiso   1.00
Zn406  Zn    0.00000   0.75000   0.11563   0.00000  Uiso   1.00
Zn407  Zn    0.25000   0.50000   0.21771   0.00000  Uiso   1.00
Zn408  Zn    0.25000   0.50000   0.11563   0.00000  Uiso   1.00
C409   C     0.55947   0.68965   0.16649   0.00000  Uiso   1.00
C410   C     0.99642   0.70996   0.30886   0.00000  Uiso   1.00
C411   C     0.50388   0.71006   0.02219   0.00000  Uiso   1.00
C412   C     0.50611   0.79038   0.31081   0.00000  Uiso   1.00
C413   C     0.75123   0.54080   0.02508   0.00000  Uiso   1.00
C414   C     0.74643   0.95995   0.30886   0.00000  Uiso   1.00
C415   C     0.75390   0.96006   0.02219   0.00000  Uiso   1.00
C416   C     0.75611   0.54038   0.31081   0.00000  Uiso   1.00
C417   C     0.90643   0.62228   0.13385   0.00000  Uiso   1.00
C418   C     0.59207   0.87971   0.19769   0.00000  Uiso   1.00
C419   C     0.62442   0.83982   0.13445   0.00000  Uiso   1.00
C420   C     0.93933   0.80881   0.16699   0.00000  Uiso   1.00
C421   C     0.87381   0.66239   0.19679   0.00000  Uiso   1.00
C422   C     0.60303   0.63531   0.20679   0.00000  Uiso   1.00
C423   C     0.89077   0.85724   0.12729   0.00000  Uiso   1.00
C424   C     0.88468   0.85285   0.20708   0.00000  Uiso   1.00
C425   C     0.61032   0.64048   0.12714   0.00000  Uiso   1.00
C426   C     0.65638   0.87234   0.13378   0.00000  Uiso   1.00
C427   C     0.84203   0.62974   0.19765   0.00000  Uiso   1.00
C428   C     0.87447   0.58976   0.13451   0.00000  Uiso   1.00
C429   C     0.62385   0.91235   0.19683   0.00000  Uiso   1.00
C430   C     0.85299   0.88527   0.20678   0.00000  Uiso   1.00
C431   C     0.94015   0.69029   0.16633   0.00000  Uiso   1.00
C432   C     0.64069   0.60715   0.12729   0.00000  Uiso   1.00
C433   C     0.63470   0.60287   0.20709   0.00000  Uiso   1.00
C434   C     0.86041   0.89058   0.12715   0.00000  Uiso   1.00
C435   C     0.59275   0.84336   0.16683   0.00000  Uiso   1.00
C436   C     0.90631   0.65788   0.16555   0.00000  Uiso   1.00
C437   C     0.90437   0.83988   0.16732   0.00000  Uiso   1.00
C438   C     0.59143   0.65485   0.16673   0.00000  Uiso   1.00
C439   C     0.84276   0.59335   0.16683   0.00000  Uiso   1.00
C440   C     0.65631   0.90789   0.16554   0.00000  Uiso   1.00
C441   C     0.65435   0.58986   0.16732   0.00000  Uiso   1.00
C442   C     0.55961   0.81004   0.16687   0.00000  Uiso   1.00
C443   C     0.84145   0.90487   0.16673   0.00000  Uiso   1.00
C444   C     0.50250   0.83659   0.05100   0.00000  Uiso   1.00
C445   C     0.96747   0.87018   0.03823   0.00000  Uiso   1.00
C446   C     0.98560   0.66464   0.28550   0.00000  Uiso   1.00
C447   C     0.93786   0.65463   0.28935   0.00000  Uiso   1.00
C448   C     0.53301   0.67283   0.03769   0.00000  Uiso   1.00
C449   C     0.51038   0.63397   0.06151   0.00000  Uiso   1.00
C450   C     0.52453   0.83339   0.28991   0.00000  Uiso   1.00
C451   C     0.99223   0.86190   0.26462   0.00000  Uiso   1.00
C452   C     0.75247   0.58659   0.05099   0.00000  Uiso   1.00
C453   C     0.80947   0.93965   0.16649   0.00000  Uiso   1.00
C454   C     0.71739   0.62013   0.03824   0.00000  Uiso   1.00
C455   C     0.73562   0.91464   0.28550   0.00000  Uiso   1.00
C456   C     0.68788   0.90461   0.28936   0.00000  Uiso   1.00
C457   C     0.78303   0.92283   0.03769   0.00000  Uiso   1.00
C458   C     0.76040   0.88397   0.06152   0.00000  Uiso   1.00
C459   C     0.77453   0.58340   0.28992   0.00000  Uiso   1.00
C460   C     0.74223   0.61191   0.26463   0.00000  Uiso   1.00
C461   C     0.68933   0.55881   0.16699   0.00000  Uiso   1.00
C462   C     0.69015   0.94029   0.16633   0.00000  Uiso   1.00
C463   C     0.80961   0.56004   0.16687   0.00000  Uiso   1.00
C464   C     0.50124   0.79080   0.02508   0.00000  Uiso   1.00
H465   H     0.93135   0.61913   0.10928   0.00000  Uiso   1.00
H466   H     0.81672   0.63369   0.22153   0.00000  Uiso   1.00
H467   H     0.87472   0.56163   0.11035   0.00000  Uiso   1.00
H468   H     0.62292   0.94120   0.22011   0.00000  Uiso   1.00
H469   H     0.83803   0.89518   0.23785   0.00000  Uiso   1.00
H470   H     0.65384   0.59559   0.09603   0.00000  Uiso   1.00
H471   H     0.64367   0.58823   0.23819   0.00000  Uiso   1.00
H472   H     0.85271   0.90520   0.09608   0.00000  Uiso   1.00
H473   H     0.93861   0.85165   0.02579   0.00000  Uiso   1.00
H474   H     0.95853   0.89204   0.06734   0.00000  Uiso   1.00
H475   H     0.97912   0.89425   0.01319   0.00000  Uiso   1.00
H476   H     0.56679   0.88362   0.22161   0.00000  Uiso   1.00
H477   H     0.99887   0.83208   0.08589   0.00000  Uiso   1.00
H478   H     0.53449   0.85304   0.04933   0.00000  Uiso   1.00
H479   H     0.91905   0.68502   0.28010   0.00000  Uiso   1.00
H480   H     0.92910   0.62488   0.26745   0.00000  Uiso   1.00
H481   H     0.92948   0.64621   0.32387   0.00000  Uiso   1.00
H482   H     0.99627   0.66413   0.25100   0.00000  Uiso   1.00
H483   H     0.50247   0.63495   0.29912   0.00000  Uiso   1.00
H484   H     0.53315   0.60552   0.06649   0.00000  Uiso   1.00
H485   H     0.99896   0.64560   0.09427   0.00000  Uiso   1.00
H486   H     0.98305   0.62036   0.04190   0.00000  Uiso   1.00
H487   H     0.62464   0.81174   0.11024   0.00000  Uiso   1.00
H488   H     0.55181   0.65756   0.00993   0.00000  Uiso   1.00
H489   H     0.55858   0.68956   0.05670   0.00000  Uiso   1.00
H490   H     0.99710   0.89910   0.27236   0.00000  Uiso   1.00
H491   H     0.99694   0.85831   0.22862   0.00000  Uiso   1.00
H492   H     0.95902   0.85274   0.27381   0.00000  Uiso   1.00
H493   H     0.53942   0.85719   0.31420   0.00000  Uiso   1.00
H494   H     0.55376   0.82478   0.27176   0.00000  Uiso   1.00
H495   H     0.68855   0.60156   0.02583   0.00000  Uiso   1.00
H496   H     0.70844   0.64199   0.06735   0.00000  Uiso   1.00
H497   H     0.72899   0.64419   0.01318   0.00000  Uiso   1.00
H498   H     0.87286   0.69126   0.22003   0.00000  Uiso   1.00
H499   H     0.74886   0.58208   0.08588   0.00000  Uiso   1.00
H500   H     0.78443   0.60308   0.04932   0.00000  Uiso   1.00
H501   H     0.66906   0.93503   0.28015   0.00000  Uiso   1.00
H502   H     0.67912   0.87489   0.26743   0.00000  Uiso   1.00
H503   H     0.67952   0.89615   0.32389   0.00000  Uiso   1.00
H504   H     0.74628   0.91413   0.25100   0.00000  Uiso   1.00
H505   H     0.75250   0.88495   0.29911   0.00000  Uiso   1.00
H506   H     0.78319   0.85555   0.06655   0.00000  Uiso   1.00
H507   H     0.74894   0.89561   0.09425   0.00000  Uiso   1.00
H508   H     0.73311   0.87032   0.04188   0.00000  Uiso   1.00
H509   H     0.58811   0.64527   0.23787   0.00000  Uiso   1.00
H510   H     0.80182   0.90756   0.00993   0.00000  Uiso   1.00
H511   H     0.80859   0.93956   0.05671   0.00000  Uiso   1.00
H512   H     0.74710   0.64911   0.27237   0.00000  Uiso   1.00
H513   H     0.74693   0.60831   0.22863   0.00000  Uiso   1.00
H514   H     0.70901   0.60275   0.27383   0.00000  Uiso   1.00
H515   H     0.78941   0.60719   0.31420   0.00000  Uiso   1.00
H516   H     0.80376   0.57479   0.27175   0.00000  Uiso   1.00
H517   H     0.90396   0.84574   0.09603   0.00000  Uiso   1.00
H518   H     0.89361   0.83816   0.23817   0.00000  Uiso   1.00
H519   H     0.60258   0.65503   0.09606   0.00000  Uiso   1.00
H520   H     0.68125   0.86924   0.10916   0.00000  Uiso   1.00
N521   N     0.50000   0.75000   0.28573   0.00000  Uiso   1.00
N522   N     0.50000   0.75000   0.04760   0.00000  Uiso   1.00
N523   N     0.75000   0.50000   0.28573   0.00000  Uiso   1.00
N524   N     0.75000   0.50000   0.04760   0.00000  Uiso   1.00
O525   O     0.54581   0.70419   0.20487   0.00000  Uiso   1.00
O526   O     0.70420   0.54581   0.12846   0.00000  Uiso   1.00
O527   O     0.70420   0.54581   0.20487   0.00000  Uiso   1.00
O528   O     0.79581   0.95419   0.12846   0.00000  Uiso   1.00
O529   O     0.70420   0.95419   0.12846   0.00000  Uiso   1.00
O530   O     0.79581   0.54581   0.20487   0.00000  Uiso   1.00
O531   O     0.79581   0.54581   0.12846   0.00000  Uiso   1.00
O532   O     0.70420   0.95419   0.20487   0.00000  Uiso   1.00
O533   O     0.95420   0.79581   0.12846   0.00000  Uiso   1.00
O534   O     0.95420   0.79581   0.20487   0.00000  Uiso   1.00
O535   O     0.54581   0.70419   0.12846   0.00000  Uiso   1.00
O536   O     0.95420   0.70419   0.12846   0.00000  Uiso   1.00
O537   O     0.54581   0.79581   0.20487   0.00000  Uiso   1.00
O538   O     0.54581   0.79581   0.12846   0.00000  Uiso   1.00
O539   O     0.95420   0.70419   0.20487   0.00000  Uiso   1.00
O540   O     0.79581   0.95419   0.20487   0.00000  Uiso   1.00
Zn541  Zn    0.50000   0.75000   0.21771   0.00000  Uiso   1.00
Zn542  Zn    0.50000   0.75000   0.11563   0.00000  Uiso   1.00
Zn543  Zn    0.75000   0.50000   0.21771   0.00000  Uiso   1.00
Zn544  Zn    0.75000   0.50000   0.11563   0.00000  Uiso   1.00
C545   C     0.05947   0.18965   0.49982   0.00000  Uiso   1.00
C546   C     0.49642   0.20996   0.64220   0.00000  Uiso   1.00
C547   C     0.00388   0.21006   0.35552   0.00000  Uiso   1.00
C548   C     0.00611   0.29038   0.64415   0.00000  Uiso   1.00
C549   C     0.25123   0.04080   0.35841   0.00000  Uiso   1.00
C550   C     0.24643   0.45995   0.64220   0.00000  Uiso   1.00
C551   C     0.25390   0.46006   0.35552   0.00000  Uiso   1.00
C552   C     0.25611   0.04038   0.64415   0.00000  Uiso   1.00
C553   C     0.40643   0.12228   0.46718   0.00000  Uiso   1.00
C554   C     0.09207   0.37971   0.53102   0.00000  Uiso   1.00
C555   C     0.12442   0.33982   0.46778   0.00000  Uiso   1.00
C556   C     0.43933   0.30881   0.50032   0.00000  Uiso   1.00
C557   C     0.37381   0.16239   0.53012   0.00000  Uiso   1.00
C558   C     0.10303   0.13531   0.54013   0.00000  Uiso   1.00
C559   C     0.39077   0.35724   0.46063   0.00000  Uiso   1.00
C560   C     0.38468   0.35285   0.54042   0.00000  Uiso   1.00
C561   C     0.11032   0.14048   0.46048   0.00000  Uiso   1.00
C562   C     0.15638   0.37234   0.46712   0.00000  Uiso   1.00
C563   C     0.34203   0.12974   0.53098   0.00000  Uiso   1.00
C564   C     0.37447   0.08976   0.46785   0.00000  Uiso   1.00
C565   C     0.12385   0.41235   0.53017   0.00000  Uiso   1.00
C566   C     0.35299   0.38527   0.54012   0.00000  Uiso   1.00
C567   C     0.44015   0.19029   0.49966   0.00000  Uiso   1.00
C568   C     0.14069   0.10715   0.46062   0.00000  Uiso   1.00
C569   C     0.13470   0.10287   0.54043   0.00000  Uiso   1.00
C570   C     0.36041   0.39058   0.46048   0.00000  Uiso   1.00
C571   C     0.09275   0.34336   0.50016   0.00000  Uiso   1.00
C572   C     0.40631   0.15788   0.49888   0.00000  Uiso   1.00
C573   C     0.40437   0.33988   0.50065   0.00000  Uiso   1.00
C574   C     0.09143   0.15485   0.50006   0.00000  Uiso   1.00
C575   C     0.34276   0.09335   0.50016   0.00000  Uiso   1.00
C576   C     0.15631   0.40789   0.49888   0.00000  Uiso   1.00
C577   C     0.15435   0.08986   0.50066   0.00000  Uiso   1.00
C578   C     0.05961   0.31004   0.50021   0.00000  Uiso   1.00
C579   C     0.34145   0.40487   0.50006   0.00000  Uiso   1.00
C580   C     0.00250   0.33659   0.38433   0.00000  Uiso   1.00
C581   C     0.46747   0.37018   0.37156   0.00000  Uiso   1.00
C582   C     0.48560   0.16464   0.61884   0.00000  Uiso   1.00
C583   C     0.43786   0.15463   0.62268   0.00000  Uiso   1.00
C584   C     0.03301   0.17283   0.37102   0.00000  Uiso   1.00
C585   C     0.01038   0.13397   0.39485   0.00000  Uiso   1.00
C586   C     0.02453   0.33339   0.62325   0.00000  Uiso   1.00
C587   C     0.49223   0.36190   0.59796   0.00000  Uiso   1.00
C588   C     0.25247   0.08659   0.38433   0.00000  Uiso   1.00
C589   C     0.30947   0.43965   0.49982   0.00000  Uiso   1.00
C590   C     0.21739   0.12013   0.37158   0.00000  Uiso   1.00
C591   C     0.23562   0.41464   0.61884   0.00000  Uiso   1.00
C592   C     0.18788   0.40461   0.62270   0.00000  Uiso   1.00
C593   C     0.28303   0.42283   0.37102   0.00000  Uiso   1.00
C594   C     0.26040   0.38397   0.39485   0.00000  Uiso   1.00
C595   C     0.27453   0.08340   0.62325   0.00000  Uiso   1.00
C596   C     0.24223   0.11191   0.59797   0.00000  Uiso   1.00
C597   C     0.18933   0.05881   0.50032   0.00000  Uiso   1.00
C598   C     0.19015   0.44029   0.49966   0.00000  Uiso   1.00
C599   C     0.30961   0.06004   0.50021   0.00000  Uiso   1.00
C600   C     0.00124   0.29080   0.35841   0.00000  Uiso   1.00
H601   H     0.43135   0.11913   0.44261   0.00000  Uiso   1.00
H602   H     0.31672   0.13369   0.55486   0.00000  Uiso   1.00
H603   H     0.37472   0.06163   0.44368   0.00000  Uiso   1.00
H604   H     0.12292   0.44120   0.55344   0.00000  Uiso   1.00
H605   H     0.33803   0.39518   0.57118   0.00000  Uiso   1.00
H606   H     0.15384   0.09559   0.42936   0.00000  Uiso   1.00
H607   H     0.14367   0.08823   0.57152   0.00000  Uiso   1.00
H608   H     0.35271   0.40520   0.42941   0.00000  Uiso   1.00
H609   H     0.43861   0.35165   0.35912   0.00000  Uiso   1.00
H610   H     0.45853   0.39204   0.40067   0.00000  Uiso   1.00
H611   H     0.47912   0.39425   0.34652   0.00000  Uiso   1.00
H612   H     0.06679   0.38362   0.55494   0.00000  Uiso   1.00
H613   H     0.49887   0.33208   0.41922   0.00000  Uiso   1.00
H614   H     0.03449   0.35304   0.38267   0.00000  Uiso   1.00
H615   H     0.41905   0.18502   0.61343   0.00000  Uiso   1.00
H616   H     0.42910   0.12488   0.60078   0.00000  Uiso   1.00
H617   H     0.42948   0.14621   0.65721   0.00000  Uiso   1.00
H618   H     0.49627   0.16413   0.58434   0.00000  Uiso   1.00
H619   H     0.00247   0.13495   0.63246   0.00000  Uiso   1.00
H620   H     0.03315   0.10552   0.39983   0.00000  Uiso   1.00
H621   H     0.49896   0.14560   0.42760   0.00000  Uiso   1.00
H622   H     0.48305   0.12036   0.37523   0.00000  Uiso   1.00
H623   H     0.12464   0.31174   0.44357   0.00000  Uiso   1.00
H624   H     0.05181   0.15756   0.34326   0.00000  Uiso   1.00
H625   H     0.05858   0.18956   0.39004   0.00000  Uiso   1.00
H626   H     0.49710   0.39910   0.60570   0.00000  Uiso   1.00
H627   H     0.49694   0.35831   0.56195   0.00000  Uiso   1.00
H628   H     0.45902   0.35274   0.60714   0.00000  Uiso   1.00
H629   H     0.03942   0.35719   0.64753   0.00000  Uiso   1.00
H630   H     0.05376   0.32478   0.60509   0.00000  Uiso   1.00
H631   H     0.18855   0.10156   0.35916   0.00000  Uiso   1.00
H632   H     0.20844   0.14199   0.40069   0.00000  Uiso   1.00
H633   H     0.22899   0.14419   0.34652   0.00000  Uiso   1.00
H634   H     0.37286   0.19126   0.55336   0.00000  Uiso   1.00
H635   H     0.24886   0.08208   0.41922   0.00000  Uiso   1.00
H636   H     0.28443   0.10308   0.38265   0.00000  Uiso   1.00
H637   H     0.16906   0.43503   0.61348   0.00000  Uiso   1.00
H638   H     0.17912   0.37489   0.60077   0.00000  Uiso   1.00
H639   H     0.17952   0.39615   0.65722   0.00000  Uiso   1.00
H640   H     0.24628   0.41413   0.58433   0.00000  Uiso   1.00
H641   H     0.25250   0.38495   0.63245   0.00000  Uiso   1.00
H642   H     0.28319   0.35555   0.39988   0.00000  Uiso   1.00
H643   H     0.24894   0.39561   0.42758   0.00000  Uiso   1.00
H644   H     0.23311   0.37032   0.37522   0.00000  Uiso   1.00
H645   H     0.08811   0.14527   0.57120   0.00000  Uiso   1.00
H646   H     0.30182   0.40756   0.34327   0.00000  Uiso   1.00
H647   H     0.30859   0.43956   0.39004   0.00000  Uiso   1.00
H648   H     0.24710   0.14911   0.60571   0.00000  Uiso   1.00
H649   H     0.24693   0.10831   0.56196   0.00000  Uiso   1.00
H650   H     0.20901   0.10275   0.60717   0.00000  Uiso   1.00
H651   H     0.28941   0.10719   0.64753   0.00000  Uiso   1.00
H652   H     0.30376   0.07479   0.60508   0.00000  Uiso   1.00
H653   H     0.40396   0.34574   0.42937   0.00000  Uiso   1.00
H654   H     0.39361   0.33816   0.57150   0.00000  Uiso   1.00
H655   H     0.10258   0.15503   0.42939   0.00000  Uiso   1.00
H656   H     0.18125   0.36924   0.44249   0.00000  Uiso   1.00
N657   N     0.00000   0.25000   0.61907   0.00000  Uiso   1.00
N658   N     0.00000   0.25000   0.38093   0.00000  Uiso   1.00
N659   N     0.25000  -0.00000   0.61907   0.00000  Uiso   1.00
N660   N     0.25000  -0.00000   0.38093   0.00000  Uiso   1.00
O661   O     0.04581   0.20419   0.53821   0.00000  Uiso   1.00
O662   O     0.20420   0.04581   0.46179   0.00000  Uiso   1.00
O663   O     0.20420   0.04581   0.53821   0.00000  Uiso   1.00
O664   O     0.29581   0.45419   0.46179   0.00000  Uiso   1.00
O665   O     0.20420   0.45419   0.46179   0.00000  Uiso   1.00
O666   O     0.29581   0.04581   0.53821   0.00000  Uiso   1.00
O667   O     0.29581   0.04581   0.46179   0.00000  Uiso   1.00
O668   O     0.20420   0.45419   0.53821   0.00000  Uiso   1.00
O669   O     0.45420   0.29581   0.46179   0.00000  Uiso   1.00
O670   O     0.45420   0.29581   0.53821   0.00000  Uiso   1.00
O671   O     0.04581   0.20419   0.46179   0.00000  Uiso   1.00
O672   O     0.45420   0.20419   0.46179   0.00000  Uiso   1.00
O673   O     0.04581   0.29581   0.53821   0.00000  Uiso   1.00
O674   O     0.04581   0.29581   0.46179   0.00000  Uiso   1.00
O675   O     0.45420   0.20419   0.53821   0.00000  Uiso   1.00
O676   O     0.29581   0.45419   0.53821   0.00000  Uiso   1.00
Zn677  Zn    0.00000   0.25000   0.55104   0.00000  Uiso   1.00
Zn678  Zn    0.00000   0.25000   0.44896   0.00000  Uiso   1.00
Zn679  Zn    0.25000  -0.00000   0.55104   0.00000  Uiso   1.00
Zn680  Zn    0.25000  -0.00000   0.44896   0.00000  Uiso   1.00
C681   C     0.55947   0.18965   0.49982   0.00000  Uiso   1.00
C682   C     0.99642   0.20996   0.64220   0.00000  Uiso   1.00
C683   C     0.50388   0.21006   0.35552   0.00000  Uiso   1.00
C684   C     0.50611   0.29038   0.64415   0.00000  Uiso   1.00
C685   C     0.75123   0.04080   0.35841   0.00000  Uiso   1.00
C686   C     0.74643   0.45995   0.64220   0.00000  Uiso   1.00
C687   C     0.75390   0.46006   0.35552   0.00000  Uiso   1.00
C688   C     0.75611   0.04038   0.64415   0.00000  Uiso   1.00
C689   C     0.90643   0.12228   0.46718   0.00000  Uiso   1.00
C690   C     0.59207   0.37971   0.53102   0.00000  Uiso   1.00
C691   C     0.62442   0.33982   0.46778   0.00000  Uiso   1.00
C692   C     0.93933   0.30881   0.50032   0.00000  Uiso   1.00
C693   C     0.87381   0.16239   0.53012   0.00000  Uiso   1.00
C694   C     0.60303   0.13531   0.54013   0.00000  Uiso   1.00
C695   C     0.89077   0.35724   0.46063   0.00000  Uiso   1.00
C696   C     0.88468   0.35285   0.54042   0.00000  Uiso   1.00
C697   C     0.61032   0.14048   0.46048   0.00000  Uiso   1.00
C698   C     0.65638   0.37234   0.46712   0.00000  Uiso   1.00
C699   C     0.84203   0.12974   0.53098   0.00000  Uiso   1.00
C700   C     0.87447   0.08976   0.46785   0.00000  Uiso   1.00
C701   C     0.62385   0.41235   0.53017   0.00000  Uiso   1.00
C702   C     0.85299   0.38527   0.54012   0.00000  Uiso   1.00
C703   C     0.94015   0.19029   0.49966   0.00000  Uiso   1.00
C704   C     0.64069   0.10715   0.46062   0.00000  Uiso   1.00
C705   C     0.63470   0.10287   0.54043   0.00000  Uiso   1.00
C706   C     0.86041   0.39058   0.46048   0.00000  Uiso   1.00
C707   C     0.59275   0.34336   0.50016   0.00000  Uiso   1.00
C708   C     0.90631   0.15788   0.49888   0.00000  Uiso   1.00
C709   C     0.90437   0.33988   0.50065   0.00000  Uiso   1.00
C710   C     0.59143   0.15485   0.50006   0.00000  Uiso   1.00
C711   C     0.84276   0.09335   0.50016   0.00000  Uiso   1.00
C712   C     0.65631   0.40789   0.49888   0.00000  Uiso   1.00
C713   C     0.65435   0.08986   0.50066   0.00000  Uiso   1.00
C714   C     0.55961   0.31004   0.50021   0.00000  Uiso   1.00
C715   C     0.84145   0.40487   0.50006   0.00000  Uiso   1.00
C716   C     0.50250   0.33659   0.38433   0.00000  Uiso   1.00
C717   C     0.96747   0.37018   0.37156   0.00000  Uiso   1.00
C718   C     0.98560   0.16464   0.61884   0.00000  Uiso   1.00
C719   C     0.93786   0.15463   0.62268   0.00000  Uiso   1.00
C720   C     0.53301   0.17283   0.37102   0.00000  Uiso   1.00
C721   C     0.51038   0.13397   0.39485   0.00000  Uiso   1.00
C722   C     0.52453   0.33339   0.62325   0.00000  Uiso   1.00
C723   C     0.99223   0.36190   0.59796   0.00000  Uiso   1.00
C724   C     0.75247   0.08659   0.38433   0.00000  Uiso   1.00
C725   C     0.80947   0.43965   0.49982   0.00000  Uiso   1.00
C726   C     0.71739   0.12013   0.37158   0.00000  Uiso   1.00
C727   C     0.73562   0.41464   0.61884   0.00000  Uiso   1.00
C728   C     0.68788   0.40461   0.62270   0.00000  Uiso   1.00
C729   C     0.78303   0.42283   0.37102   0.00000  Uiso   1.00
C730   C     0.76040   0.38397   0.39485   0.00000  Uiso   1.00
C731   C     0.77453   0.08340   0.62325   0.00000  Uiso   1.00
C732   C     0.74223   0.11191   0.59797   0.00000  Uiso   1.00
C733   C     0.68933   0.05881   0.50032   0.00000  Uiso   1.00
C734   C     0.69015   0.44029   0.49966   0.00000  Uiso   1.00
C735   C     0.80961   0.06004   0.50021   0.00000  Uiso   1.00
C736   C     0.50124   0.29080   0.35841   0.00000  Uiso   1.00
H737   H     0.93135   0.11913   0.44261   0.00000  Uiso   1.00
H738   H     0.81672   0.13369   0.55486   0.00000  Uiso   1.00
H739   H     0.87472   0.06163   0.44368   0.00000  Uiso   1.00
H740   H     0.62292   0.44120   0.55344   0.00000  Uiso   1.00
H741   H     0.83803   0.39518   0.57118   0.00000  Uiso   1.00
H742   H     0.65384   0.09559   0.42936   0.00000  Uiso   1.00
H743   H     0.64367   0.08823   0.57152   0.00000  Uiso   1.00
H744   H     0.85271   0.40520   0.42941   0.00000  Uiso   1.00
H745   H     0.93861   0.35165   0.35912   0.00000  Uiso   1.00
H746   H     0.95853   0.39204   0.40067   0.00000  Uiso   1.00
H747   H     0.97912   0.39425   0.34652   0.00000  Uiso   1.00
H748   H     0.56679   0.38362   0.55494   0.00000  Uiso   1.00
H749   H     0.99887   0.33208   0.41922   0.00000  Uiso   1.00
H750   H     0.53449   0.35304   0.38267   0.00000  Uiso   1.00
H751   H     0.91905   0.18502   0.61343   0.00000  Uiso   1.00
H752   H     0.92910   0.12488   0.60078   0.00000  Uiso   1.00
H753   H     0.92948   0.14621   0.65721   0.00000  Uiso   1.00
H754   H     0.99627   0.16413   0.58434   0.00000  Uiso   1.00
H755   H     0.50247   0.13495   0.63246   0.00000  Uiso   1.00
H756   H     0.53315   0.10552   0.39983   0.00000  Uiso   1.00
H757   H     0.99896   0.14560   0.42760   0.00000  Uiso   1.00
H758   H     0.98305   0.12036   0.37523   0.00000  Uiso   1.00
H759   H     0.62464   0.31174   0.44357   0.00000  Uiso   1.00
H760   H     0.55181   0.15756   0.34326   0.00000  Uiso   1.00
H761   H     0.55858   0.18956   0.39004   0.00000  Uiso   1.00
H762   H     0.99710   0.39910   0.60570   0.00000  Uiso   1.00
H763   H     0.99694   0.35831   0.56195   0.00000  Uiso   1.00
H764   H     0.95902   0.35274   0.60714   0.00000  Uiso   1.00
H765   H     0.53942   0.35719   0.64753   0.00000  Uiso   1.00
H766   H     0.55376   0.32478   0.60509   0.00000  Uiso   1.00
H767   H     0.68855   0.10156   0.35916   0.00000  Uiso   1.00
H768   H     0.70844   0.14199   0.40069   0.00000  Uiso   1.00
H769   H     0.72899   0.14419   0.34652   0.00000  Uiso   1.00
H770   H     0.87286   0.19126   0.55336   0.00000  Uiso   1.00
H771   H     0.74886   0.08208   0.41922   0.00000  Uiso   1.00
H772   H     0.78443   0.10308   0.38265   0.00000  Uiso   1.00
H773   H     0.66906   0.43503   0.61348   0.00000  Uiso   1.00
H774   H     0.67912   0.37489   0.60077   0.00000  Uiso   1.00
H775   H     0.67952   0.39615   0.65722   0.00000  Uiso   1.00
H776   H     0.74628   0.41413   0.58433   0.00000  Uiso   1.00
H777   H     0.75250   0.38495   0.63245   0.00000  Uiso   1.00
H778   H     0.78319   0.35555   0.39988   0.00000  Uiso   1.00
H779   H     0.74894   0.39561   0.42758   0.00000  Uiso   1.00
H780   H     0.73311   0.37032   0.37522   0.00000  Uiso   1.00
H781   H     0.58811   0.14527   0.57120   0.00000  Uiso   1.00
H782   H     0.80182   0.40756   0.34327   0.00000  Uiso   1.00
H783   H     0.80859   0.43956   0.39004   0.00000  Uiso   1.00
H784   H     0.74710   0.14911   0.60571   0.00000  Uiso   1.00
H785   H     0.74693   0.10831   0.56196   0.00000  Uiso   1.00
H786   H     0.70901   0.10275   0.60717   0.00000  Uiso   1.00
H787   H     0.78941   0.10719   0.64753   0.00000  Uiso   1.00
H788   H     0.80376   0.07479   0.60508   0.00000  Uiso   1.00
H789   H     0.90396   0.34574   0.42937   0.00000  Uiso   1.00
H790   H     0.89361   0.33816   0.57150   0.00000  Uiso   1.00
H791   H     0.60258   0.15503   0.42939   0.00000  Uiso   1.00
H792   H     0.68125   0.36924   0.44249   0.00000  Uiso   1.00
N793   N     0.50000   0.25000   0.61907   0.00000  Uiso   1.00
N794   N     0.50000   0.25000   0.38093   0.00000  Uiso   1.00
N795   N     0.75000  -0.00000   0.61907   0.00000  Uiso   1.00
N796   N     0.75000  -0.00000   0.38093   0.00000  Uiso   1.00
O797   O     0.54581   0.20419   0.53821   0.00000  Uiso   1.00
O798   O     0.70420   0.04581   0.46179   0.00000  Uiso   1.00
O799   O     0.70420   0.04581   0.53821   0.00000  Uiso   1.00
O800   O     0.79581   0.45419   0.46179   0.00000  Uiso   1.00
O801   O     0.70420   0.45419   0.46179   0.00000  Uiso   1.00
O802   O     0.79581   0.04581   0.53821   0.00000  Uiso   1.00
O803   O     0.79581   0.04581   0.46179   0.00000  Uiso   1.00
O804   O     0.70420   0.45419   0.53821   0.00000  Uiso   1.00
O805   O     0.95420   0.29581   0.46179   0.00000  Uiso   1.00
O806   O     0.95420   0.29581   0.53821   0.00000  Uiso   1.00
O807   O     0.54581   0.20419   0.46179   0.00000  Uiso   1.00
O808   O     0.95420   0.20419   0.46179   0.00000  Uiso   1.00
O809   O     0.54581   0.29581   0.53821   0.00000  Uiso   1.00
O810   O     0.54581   0.29581   0.46179   0.00000  Uiso   1.00
O811   O     0.95420   0.20419   0.53821   0.00000  Uiso   1.00
O812   O     0.79581   0.45419   0.53821   0.00000  Uiso   1.00
Zn813  Zn    0.50000   0.25000   0.55104   0.00000  Uiso   1.00
Zn814  Zn    0.50000   0.25000   0.44896   0.00000  Uiso   1.00
Zn815  Zn    0.75000  -0.00000   0.55104   0.00000  Uiso   1.00
Zn816  Zn    0.75000  -0.00000   0.44896   0.00000  Uiso   1.00
C817   C     0.05947   0.68965   0.49982   0.00000  Uiso   1.00
C818   C     0.49642   0.70996   0.64220   0.00000  Uiso   1.00
C819   C     0.00388   0.71006   0.35552   0.00000  Uiso   1.00
C820   C     0.00611   0.79038   0.64415   0.00000  Uiso   1.00
C821   C     0.25123   0.54080   0.35841   0.00000  Uiso   1.00
C822   C     0.24643   0.95995   0.64220   0.00000  Uiso   1.00
C823   C     0.25390   0.96006   0.35552   0.00000  Uiso   1.00
C824   C     0.25611   0.54038   0.64415   0.00000  Uiso   1.00
C825   C     0.40643   0.62228   0.46718   0.00000  Uiso   1.00
C826   C     0.09207   0.87971   0.53102   0.00000  Uiso   1.00
C827   C     0.12442   0.83982   0.46778   0.00000  Uiso   1.00
C828   C     0.43933   0.80881   0.50032   0.00000  Uiso   1.00
C829   C     0.37381   0.66239   0.53012   0.00000  Uiso   1.00
C830   C     0.10303   0.63531   0.54013   0.00000  Uiso   1.00
C831   C     0.39077   0.85724   0.46063   0.00000  Uiso   1.00
C832   C     0.38468   0.85285   0.54042   0.00000  Uiso   1.00
C833   C     0.11032   0.64048   0.46048   0.00000  Uiso   1.00
C834   C     0.15638   0.87234   0.46712   0.00000  Uiso   1.00
C835   C     0.34203   0.62974   0.53098   0.00000  Uiso   1.00
C836   C     0.37447   0.58976   0.46785   0.00000  Uiso   1.00
C837   C     0.12385   0.91235   0.53017   0.00000  Uiso   1.00
C838   C     0.35299   0.88527   0.54012   0.00000  Uiso   1.00
C839   C     0.44015   0.69029   0.49966   0.00000  Uiso   1.00
C840   C     0.14069   0.60715   0.46062   0.00000  Uiso   1.00
C841   C     0.13470   0.60287   0.54043   0.00000  Uiso   1.00
C842   C     0.36041   0.89058   0.46048   0.00000  Uiso   1.00
C843   C     0.09275   0.84336   0.50016   0.00000  Uiso   1.00
C844   C     0.40631   0.65788   0.49888   0.00000  Uiso   1.00
C845   C     0.40437   0.83988   0.50065   0.00000  Uiso   1.00
C846   C     0.09143   0.65485   0.50006   0.00000  Uiso   1.00
C847   C     0.34276   0.59335   0.50016   0.00000  Uiso   1.00
C848   C     0.15631   0.90789   0.49888   0.00000  Uiso   1.00
C849   C     0.15435   0.58986   0.50066   0.00000  Uiso   1.00
C850   C     0.05961   0.81004   0.50021   0.00000  Uiso   1.00
C851   C     0.34145   0.90487   0.50006   0.00000  Uiso   1.00
C852   C     0.00250   0.83659   0.38433   0.00000  Uiso   1.00
C853   C     0.46747   0.87018   0.37156   0.00000  Uiso   1.00
C854   C     0.48560   0.66464   0.61884   0.00000  Uiso   1.00
C855   C     0.43786   0.65463   0.62268   0.00000  Uiso   1.00
C856   C     0.03301   0.67283   0.37102   0.00000  Uiso   1.00
C857   C     0.01038   0.63397   0.39485   0.00000  Uiso   1.00
C858   C     0.02453   0.83339   0.62325   0.00000  Uiso   1.00
C859   C     0.49223   0.86190   0.59796   0.00000  Uiso   1.00
C860   C     0.25247   0.58659   0.38433   0.00000  Uiso   1.00
C861   C     0.30947   0.93965   0.49982   0.00000  Uiso   1.00
C862   C     0.21739   0.62013   0.37158   0.00000  Uiso   1.00
C863   C     0.23562   0.91464   0.61884   0.00000  Uiso   1.00
C864   C     0.18788   0.90461   0.62270   0.00000  Uiso   1.00
C865   C     0.28303   0.92283   0.37102   0.00000  Uiso   1.00
C866   C     0.26040   0.88397   0.39485   0.00000  Uiso   1.00
C867   C     0.27453   0.58340   0.62325   0.00000  Uiso   1.00
C868   C     0.24223   0.61191   0.59797   0.00000  Uiso   1.00
C869   C     0.18933   0.55881   0.50032   0.00000  Uiso   1.00
C870   C     0.19015   0.94029   0.49966   0.00000  Uiso   1.00
C871   C     0.30961   0.56004   0.50021   0.00000  Uiso   1.00
C872   C     0.00124   0.79080   0.35841   0.00000  Uiso   1.00
H873   H     0.43135   0.61913   0.44261   0.00000  Uiso   1.00
H874   H     0.31672   0.63369   0.55486   0.00000  Uiso   1.00
H875   H     0.37472   0.56163   0.44368   0.00000  Uiso   1.00
H876   H     0.12292   0.94120   0.55344   0.00000  Uiso   1.00
H877   H     0.33803   0.89518   0.57118   0.00000  Uiso   1.00
H878   H     0.15384   0.59559   0.42936   0.00000  Uiso   1.00
H879   H     0.14367   0.58823   0.57152   0.00000  Uiso   1.00
H880   H     0.35271   0.90520   0.42941   0.00000  Uiso   1.00
H881   H     0.43861   0.85165   0.35912   0.00000  Uiso   1.00
H882   H     0.45853   0.89204   0.40067   0.00000  Uiso   1.00
H883   H     0.47912   0.89425   0.34652   0.00000  Uiso   1.00
H884   H     0.06679   0.88362   0.55494   0.00000  Uiso   1.00
H885   H     0.49887   0.83208   0.41922   0.00000  Uiso   1.00
H886   H     0.03449   0.85304   0.38267   0.00000  Uiso   1.00
H887   H     0.41905   0.68502   0.61343   0.00000  Uiso   1.00
H888   H     0.42910   0.62488   0.60078   0.00000  Uiso   1.00
H889   H     0.42948   0.64621   0.65721   0.00000  Uiso   1.00
H890   H     0.49627   0.66413   0.58434   0.00000  Uiso   1.00
H891   H     0.00247   0.63495   0.63246   0.00000  Uiso   1.00
H892   H     0.03315   0.60552   0.39983   0.00000  Uiso   1.00
H893   H     0.49896   0.64560   0.42760   0.00000  Uiso   1.00
H894   H     0.48305   0.62036   0.37523   0.00000  Uiso   1.00
H895   H     0.12464   0.81174   0.44357   0.00000  Uiso   1.00
H896   H     0.05181   0.65756   0.34326   0.00000  Uiso   1.00
H897   H     0.05858   0.68956   0.39004   0.00000  Uiso   1.00
H898   H     0.49710   0.89910   0.60570   0.00000  Uiso   1.00
H899   H     0.49694   0.85831   0.56195   0.00000  Uiso   1.00
H900   H     0.45902   0.85274   0.60714   0.00000  Uiso   1.00
H901   H     0.03942   0.85719   0.64753   0.00000  Uiso   1.00
H902   H     0.05376   0.82478   0.60509   0.00000  Uiso   1.00
H903   H     0.18855   0.60156   0.35916   0.00000  Uiso   1.00
H904   H     0.20844   0.64199   0.40069   0.00000  Uiso   1.00
H905   H     0.22899   0.64419   0.34652   0.00000  Uiso   1.00
H906   H     0.37286   0.69126   0.55336   0.00000  Uiso   1.00
H907   H     0.24886   0.58208   0.41922   0.00000  Uiso   1.00
H908   H     0.28443   0.60308   0.38265   0.00000  Uiso   1.00
H909   H     0.16906   0.93503   0.61348   0.00000  Uiso   1.00
H910   H     0.17912   0.87489   0.60077   0.00000  Uiso   1.00
H911   H     0.17952   0.89615   0.65722   0.00000  Uiso   1.00
H912   H     0.24628   0.91413   0.58433   0.00000  Uiso   1.00
H913   H     0.25250   0.88495   0.63245   0.00000  Uiso   1.00
H914   H     0.28319   0.85555   0.39988   0.00000  Uiso   1.00
H915   H     0.24894   0.89561   0.42758   0.00000  Uiso   1.00
H916   H     0.23311   0.87032   0.37522   0.00000  Uiso   1.00
H917   H     0.08811   0.64527   0.57120   0.00000  Uiso   1.00
H918   H     0.30182   0.90756   0.34327   0.00000  Uiso   1.00
H919   H     0.30859   0.93956   0.39004   0.00000  Uiso   1.00
H920   H     0.24710   0.64911   0.60571   0.00000  Uiso   1.00
H921   H     0.24693   0.60831   0.56196   0.00000  Uiso   1.00
H922   H     0.20901   0.60275   0.60717   0.00000  Uiso   1.00
H923   H     0.28941   0.60719   0.64753   0.00000  Uiso   1.00
H924   H     0.30376   0.57479   0.60508   0.00000  Uiso   1.00
H925   H     0.40396   0.84574   0.42937   0.00000  Uiso   1.00
H926   H     0.39361   0.83816   0.57150   0.00000  Uiso   1.00
H927   H     0.10258   0.65503   0.42939   0.00000  Uiso   1.00
H928   H     0.18125   0.86924   0.44249   0.00000  Uiso   1.00
N929   N     0.00000   0.75000   0.61907   0.00000  Uiso   1.00
N930   N     0.00000   0.75000   0.38093   0.00000  Uiso   1.00
N931   N     0.25000   0.50000   0.61907   0.00000  Uiso   1.00
N932   N     0.25000   0.50000   0.38093   0.00000  Uiso   1.00
O933   O     0.04581   0.70419   0.53821   0.00000  Uiso   1.00
O934   O     0.20420   0.54581   0.46179   0.00000  Uiso   1.00
O935   O     0.20420   0.54581   0.53821   0.00000  Uiso   1.00
O936   O     0.29581   0.95419   0.46179   0.00000  Uiso   1.00
O937   O     0.20420   0.95419   0.46179   0.00000  Uiso   1.00
O938   O     0.29581   0.54581   0.53821   0.00000  Uiso   1.00
O939   O     0.29581   0.54581   0.46179   0.00000  Uiso   1.00
O940   O     0.20420   0.95419   0.53821   0.00000  Uiso   1.00
O941   O     0.45420   0.79581   0.46179   0.00000  Uiso   1.00
O942   O     0.45420   0.79581   0.53821   0.00000  Uiso   1.00
O943   O     0.04581   0.70419   0.46179   0.00000  Uiso   1.00
O944   O     0.45420   0.70419   0.46179   0.00000  Uiso   1.00
O945   O     0.04581   0.79581   0.53821   0.00000  Uiso   1.00
O946   O     0.04581   0.79581   0.46179   0.00000  Uiso   1.00
O947   O     0.45420   0.70419   0.53821   0.00000  Uiso   1.00
O948   O     0.29581   0.95419   0.53821   0.00000  Uiso   1.00
Zn949  Zn    0.00000   0.75000   0.55104   0.00000  Uiso   1.00
Zn950  Zn    0.00000   0.75000   0.44896   0.00000  Uiso   1.00
Zn951  Zn    0.25000   0.50000   0.55104   0.00000  Uiso   1.00
Zn952  Zn    0.25000   0.50000   0.44896   0.00000  Uiso   1.00
C953   C     0.55947   0.68965   0.49982   0.00000  Uiso   1.00
C954   C     0.99642   0.70996   0.64220   0.00000  Uiso   1.00
C955   C     0.50388   0.71006   0.35552   0.00000  Uiso   1.00
C956   C     0.50611   0.79038   0.64415   0.00000  Uiso   1.00
C957   C     0.75123   0.54080   0.35841   0.00000  Uiso   1.00
C958   C     0.74643   0.95995   0.64220   0.00000  Uiso   1.00
C959   C     0.75390   0.96006   0.35552   0.00000  Uiso   1.00
C960   C     0.75611   0.54038   0.64415   0.00000  Uiso   1.00
C961   C     0.90643   0.62228   0.46718   0.00000  Uiso   1.00
C962   C     0.59207   0.87971   0.53102   0.00000  Uiso   1.00
C963   C     0.62442   0.83982   0.46778   0.00000  Uiso   1.00
C964   C     0.93933   0.80881   0.50032   0.00000  Uiso   1.00
C965   C     0.87381   0.66239   0.53012   0.00000  Uiso   1.00
C966   C     0.60303   0.63531   0.54013   0.00000  Uiso   1.00
C967   C     0.89077   0.85724   0.46063   0.00000  Uiso   1.00
C968   C     0.88468   0.85285   0.54042   0.00000  Uiso   1.00
C969   C     0.61032   0.64048   0.46048   0.00000  Uiso   1.00
C970   C     0.65638   0.87234   0.46712   0.00000  Uiso   1.00
C971   C     0.84203   0.62974   0.53098   0.00000  Uiso   1.00
C972   C     0.87447   0.58976   0.46785   0.00000  Uiso   1.00
C973   C     0.62385   0.91235   0.53017   0.00000  Uiso   1.00
C974   C     0.85299   0.88527   0.54012   0.00000  Uiso   1.00
C975   C     0.94015   0.69029   0.49966   0.00000  Uiso   1.00
C976   C     0.64069   0.60715   0.46062   0.00000  Uiso   1.00
C977   C     0.63470   0.60287   0.54043   0.00000  Uiso   1.00
C978   C     0.86041   0.89058   0.46048   0.00000  Uiso   1.00
C979   C     0.59275   0.84336   0.50016   0.00000  Uiso   1.00
C980   C     0.90631   0.65788   0.49888   0.00000  Uiso   1.00
C981   C     0.90437   0.83988   0.50065   0.00000  Uiso   1.00
C982   C     0.59143   0.65485   0.50006   0.00000  Uiso   1.00
C983   C     0.84276   0.59335   0.50016   0.00000  Uiso   1.00
C984   C     0.65631   0.90789   0.49888   0.00000  Uiso   1.00
C985   C     0.65435   0.58986   0.50066   0.00000  Uiso   1.00
C986   C     0.55961   0.81004   0.50021   0.00000  Uiso   1.00
C987   C     0.84145   0.90487   0.50006   0.00000  Uiso   1.00
C988   C     0.50250   0.83659   0.38433   0.00000  Uiso   1.00
C989   C     0.96747   0.87018   0.37156   0.00000  Uiso   1.00
C990   C     0.98560   0.66464   0.61884   0.00000  Uiso   1.00
C991   C     0.93786   0.65463   0.62268   0.00000  Uiso   1.00
C992   C     0.53301   0.67283   0.37102   0.00000  Uiso   1.00
C993   C     0.51038   0.63397   0.39485   0.00000  Uiso   1.00
C994   C     0.52453   0.83339   0.62325   0.00000  Uiso   1.00
C995   C     0.99223   0.86190   0.59796   0.00000  Uiso   1.00
C996   C     0.75247   0.58659   0.38433   0.00000  Uiso   1.00
C997   C     0.80947   0.93965   0.49982   0.00000  Uiso   1.00
C998   C     0.71739   0.62013   0.37158   0.00000  Uiso   1.00
C999   C     0.73562   0.91464   0.61884   0.00000  Uiso   1.00
C1000  C     0.68788   0.90461   0.62270   0.00000  Uiso   1.00
C1001  C     0.78303   0.92283   0.37102   0.00000  Uiso   1.00
C1002  C     0.76040   0.88397   0.39485   0.00000  Uiso   1.00
C1003  C     0.77453   0.58340   0.62325   0.00000  Uiso   1.00
C1004  C     0.74223   0.61191   0.59797   0.00000  Uiso   1.00
C1005  C     0.68933   0.55881   0.50032   0.00000  Uiso   1.00
C1006  C     0.69015   0.94029   0.49966   0.00000  Uiso   1.00
C1007  C     0.80961   0.56004   0.50021   0.00000  Uiso   1.00
C1008  C     0.50124   0.79080   0.35841   0.00000  Uiso   1.00
H1009  H     0.93135   0.61913   0.44261   0.00000  Uiso   1.00
H1010  H     0.81672   0.63369   0.55486   0.00000  Uiso   1.00
H1011  H     0.87472   0.56163   0.44368   0.00000  Uiso   1.00
H1012  H     0.62292   0.94120   0.55344   0.00000  Uiso   1.00
H1013  H     0.83803   0.89518   0.57118   0.00000  Uiso   1.00
H1014  H     0.65384   0.59559   0.42936   0.00000  Uiso   1.00
H1015  H     0.64367   0.58823   0.57152   0.00000  Uiso   1.00
H1016  H     0.85271   0.90520   0.42941   0.00000  Uiso   1.00
H1017  H     0.93861   0.85165   0.35912   0.00000  Uiso   1.00
H1018  H     0.95853   0.89204   0.40067   0.00000  Uiso   1.00
H1019  H     0.97912   0.89425   0.34652   0.00000  Uiso   1.00
H1020  H     0.56679   0.88362   0.55494   0.00000  Uiso   1.00
H1021  H     0.99887   0.83208   0.41922   0.00000  Uiso   1.00
H1022  H     0.53449   0.85304   0.38267   0.00000  Uiso   1.00
H1023  H     0.91905   0.68502   0.61343   0.00000  Uiso   1.00
H1024  H     0.92910   0.62488   0.60078   0.00000  Uiso   1.00
H1025  H     0.92948   0.64621   0.65721   0.00000  Uiso   1.00
H1026  H     0.99627   0.66413   0.58434   0.00000  Uiso   1.00
H1027  H     0.50247   0.63495   0.63246   0.00000  Uiso   1.00
H1028  H     0.53315   0.60552   0.39983   0.00000  Uiso   1.00
H1029  H     0.99896   0.64560   0.42760   0.00000  Uiso   1.00
H1030  H     0.98305   0.62036   0.37523   0.00000  Uiso   1.00
H1031  H     0.62464   0.81174   0.44357   0.00000  Uiso   1.00
H1032  H     0.55181   0.65756   0.34326   0.00000  Uiso   1.00
H1033  H     0.55858   0.68956   0.39004   0.00000  Uiso   1.00
H1034  H     0.99710   0.89910   0.60570   0.00000  Uiso   1.00
H1035  H     0.99694   0.85831   0.56195   0.00000  Uiso   1.00
H1036  H     0.95902   0.85274   0.60714   0.00000  Uiso   1.00
H1037  H     0.53942   0.85719   0.64753   0.00000  Uiso   1.00
H1038  H     0.55376   0.82478   0.60509   0.00000  Uiso   1.00
H1039  H     0.68855   0.60156   0.35916   0.00000  Uiso   1.00
H1040  H     0.70844   0.64199   0.40069   0.00000  Uiso   1.00
H1041  H     0.72899   0.64419   0.34652   0.00000  Uiso   1.00
H1042  H     0.87286   0.69126   0.55336   0.00000  Uiso   1.00
H1043  H     0.74886   0.58208   0.41922   0.00000  Uiso   1.00
H1044  H     0.78443   0.60308   0.38265   0.00000  Uiso   1.00
H1045  H     0.66906   0.93503   0.61348   0.00000  Uiso   1.00
H1046  H     0.67912   0.87489   0.60077   0.00000  Uiso   1.00
H1047  H     0.67952   0.89615   0.65722   0.00000  Uiso   1.00
H1048  H     0.74628   0.91413   0.58433   0.00000  Uiso   1.00
H1049  H     0.75250   0.88495   0.63245   0.00000  Uiso   1.00
H1050  H     0.78319   0.85555   0.39988   0.00000  Uiso   1.00
H1051  H     0.74894   0.89561   0.42758   0.00000  Uiso   1.00
H1052  H     0.73311   0.87032   0.37522   0.00000  Uiso   1.00
H1053  H     0.58811   0.64527   0.57120   0.00000  Uiso   1.00
H1054  H     0.80182   0.90756   0.34327   0.00000  Uiso   1.00
H1055  H     0.80859   0.93956   0.39004   0.00000  Uiso   1.00
H1056  H     0.74710   0.64911   0.60571   0.00000  Uiso   1.00
H1057  H     0.74693   0.60831   0.56196   0.00000  Uiso   1.00
H1058  H     0.70901   0.60275   0.60717   0.00000  Uiso   1.00
H1059  H     0.78941   0.60719   0.64753   0.00000  Uiso   1.00
H1060  H     0.80376   0.57479   0.60508   0.00000  Uiso   1.00
H1061  H     0.90396   0.84574   0.42937   0.00000  Uiso   1.00
H1062  H     0.89361   0.83816   0.57150   0.00000  Uiso   1.00
H1063  H     0.60258   0.65503   0.42939   0.00000  Uiso   1.00
H1064  H     0.68125   0.86924   0.44249   0.00000  Uiso   1.00
N1065  N     0.50000   0.75000   0.61907   0.00000  Uiso   1.00
N1066  N     0.50000   0.75000   0.38093   0.00000  Uiso   1.00
N1067  N     0.75000   0.50000   0.61907   0.00000  Uiso   1.00
N1068  N     0.75000   0.50000   0.38093   0.00000  Uiso   1.00
O1069  O     0.54581   0.70419   0.53821   0.00000  Uiso   1.00
O1070  O     0.70420   0.54581   0.46179   0.00000  Uiso   1.00
O1071  O     0.70420   0.54581   0.53821   0.00000  Uiso   1.00
O1072  O     0.79581   0.95419   0.46179   0.00000  Uiso   1.00
O1073  O     0.70420   0.95419   0.46179   0.00000  Uiso   1.00
O1074  O     0.79581   0.54581   0.53821   0.00000  Uiso   1.00
O1075  O     0.79581   0.54581   0.46179   0.00000  Uiso   1.00
O1076  O     0.70420   0.95419   0.53821   0.00000  Uiso   1.00
O1077  O     0.95420   0.79581   0.46179   0.00000  Uiso   1.00
O1078  O     0.95420   0.79581   0.53821   0.00000  Uiso   1.00
O1079  O     0.54581   0.70419   0.46179   0.00000  Uiso   1.00
O1080  O     0.95420   0.70419   0.46179   0.00000  Uiso   1.00
O1081  O     0.54581   0.79581   0.53821   0.00000  Uiso   1.00
O1082  O     0.54581   0.79581   0.46179   0.00000  Uiso   1.00
O1083  O     0.95420   0.70419   0.53821   0.00000  Uiso   1.00
O1084  O     0.79581   0.95419   0.53821   0.00000  Uiso   1.00
Zn1085 Zn    0.50000   0.75000   0.55104   0.00000  Uiso   1.00
Zn1086 Zn    0.50000   0.75000   0.44896   0.00000  Uiso   1.00
Zn1087 Zn    0.75000   0.50000   0.55104   0.00000  Uiso   1.00
Zn1088 Zn    0.75000   0.50000   0.44896   0.00000  Uiso   1.00
C1089  C     0.05947   0.18965   0.83315   0.00000  Uiso   1.00
C1090  C     0.49642   0.20996   0.97553   0.00000  Uiso   1.00
C1091  C     0.00388   0.21006   0.68885   0.00000  Uiso   1.00
C1092  C     0.00611   0.29038   0.97748   0.00000  Uiso   1.00
C1093  C     0.25123   0.04080   0.69175   0.00000  Uiso   1.00
C1094  C     0.24643   0.45995   0.97553   0.00000  Uiso   1.00
C1095  C     0.25390   0.46006   0.68885   0.00000  Uiso   1.00
C1096  C     0.25611   0.04038   0.97748   0.00000  Uiso   1.00
C1097  C     0.40643   0.12228   0.80051   0.00000  Uiso   1.00
C1098  C     0.09207   0.37971   0.86436   0.00000  Uiso   1.00
C1099  C     0.12442   0.33982   0.80112   0.00000  Uiso   1.00
C1100  C     0.43933   0.30881   0.83365   0.00000  Uiso   1.00
C1101  C     0.37381   0.16239   0.86345   0.00000  Uiso   1.00
C1102  C     0.10303   0.13531   0.87346   0.00000  Uiso   1.00
C1103  C     0.39077   0.35724   0.79396   0.00000  Uiso   1.00
C1104  C     0.38468   0.35285   0.87375   0.00000  Uiso   1.00
C1105  C     0.11032   0.14048   0.79381   0.00000  Uiso   1.00
C1106  C     0.15638   0.37234   0.80045   0.00000  Uiso   1.00
C1107  C     0.34203   0.12974   0.86431   0.00000  Uiso   1.00
C1108  C     0.37447   0.08976   0.80118   0.00000  Uiso   1.00
C1109  C     0.12385   0.41235   0.86350   0.00000  Uiso   1.00
C1110  C     0.35299   0.38527   0.87345   0.00000  Uiso   1.00
C1111  C     0.44015   0.19029   0.83300   0.00000  Uiso   1.00
C1112  C     0.14069   0.10715   0.79396   0.00000  Uiso   1.00
C1113  C     0.13470   0.10287   0.87376   0.00000  Uiso   1.00
C1114  C     0.36041   0.39058   0.79382   0.00000  Uiso   1.00
C1115  C     0.09275   0.34336   0.83349   0.00000  Uiso   1.00
C1116  C     0.40631   0.15788   0.83221   0.00000  Uiso   1.00
C1117  C     0.40437   0.33988   0.83399   0.00000  Uiso   1.00
C1118  C     0.09143   0.15485   0.83339   0.00000  Uiso   1.00
C1119  C     0.34276   0.09335   0.83350   0.00000  Uiso   1.00
C1120  C     0.15631   0.40789   0.83221   0.00000  Uiso   1.00
C1121  C     0.15435   0.08986   0.83399   0.00000  Uiso   1.00
C1122  C     0.05961   0.31004   0.83354   0.00000  Uiso   1.00
C1123  C     0.34145   0.40487   0.83339   0.00000  Uiso   1.00
C1124  C     0.00250   0.33659   0.71766   0.00000  Uiso   1.00
C1125  C     0.46747   0.37018   0.70489   0.00000  Uiso   1.00
C1126  C     0.48560   0.16464   0.95217   0.00000  Uiso   1.00
C1127  C     0.43786   0.15463   0.95602   0.00000  Uiso   1.00
C1128  C     0.03301   0.17283   0.70435   0.00000  Uiso   1.00
C1129  C     0.01038   0.13397   0.72818   0.00000  Uiso   1.00
C1130  C     0.02453   0.33339   0.95658   0.00000  Uiso   1.00
C1131  C     0.49223   0.36190   0.93129   0.00000  Uiso   1.00
C1132  C     0.25247   0.08659   0.71766   0.00000  Uiso   1.00
C1133  C     0.30947   0.43965   0.83315   0.00000  Uiso   1.00
C1134  C     0.21739   0.12013   0.70491   0.00000  Uiso   1.00
C1135  C     0.23562   0.41464   0.95217   0.00000  Uiso   1.00
C1136  C     0.18788   0.40461   0.95603   0.00000  Uiso   1.00
C1137  C     0.28303   0.42283   0.70436   0.00000  Uiso   1.00
C1138  C     0.26040   0.38397   0.72818   0.00000  Uiso   1.00
C1139  C     0.27453   0.08340   0.95658   0.00000  Uiso   1.00
C1140  C     0.24223   0.11191   0.93130   0.00000  Uiso   1.00
C1141  C     0.18933   0.05881   0.83366   0.00000  Uiso   1.00
C1142  C     0.19015   0.44029   0.83300   0.00000  Uiso   1.00
C1143  C     0.30961   0.06004   0.83354   0.00000  Uiso   1.00
C1144  C     0.00124   0.29080   0.69175   0.00000  Uiso   1.00
H1145  H     0.43135   0.11913   0.77594   0.00000  Uiso   1.00
H1146  H     0.31672   0.13369   0.88819   0.00000  Uiso   1.00
H1147  H     0.37472   0.06163   0.77701   0.00000  Uiso   1.00
H1148  H     0.12292   0.44120   0.88678   0.00000  Uiso   1.00
H1149  H     0.33803   0.39518   0.90452   0.00000  Uiso   1.00
H1150  H     0.15384   0.09559   0.76270   0.00000  Uiso   1.00
H1151  H     0.14367   0.08823   0.90485   0.00000  Uiso   1.00
H1152  H     0.35271   0.40520   0.76274   0.00000  Uiso   1.00
H1153  H     0.43861   0.35165   0.69245   0.00000  Uiso   1.00
H1154  H     0.45853   0.39204   0.73401   0.00000  Uiso   1.00
H1155  H     0.47912   0.39425   0.67985   0.00000  Uiso   1.00
H1156  H     0.06679   0.38362   0.88828   0.00000  Uiso   1.00
H1157  H     0.49887   0.33208   0.75255   0.00000  Uiso   1.00
H1158  H     0.03449   0.35304   0.71600   0.00000  Uiso   1.00
H1159  H     0.41905   0.18502   0.94677   0.00000  Uiso   1.00
H1160  H     0.42910   0.12488   0.93412   0.00000  Uiso   1.00
H1161  H     0.42948   0.14621   0.99054   0.00000  Uiso   1.00
H1162  H     0.49627   0.16413   0.91767   0.00000  Uiso   1.00
H1163  H     0.00247   0.13495   0.96579   0.00000  Uiso   1.00
H1164  H     0.03315   0.10552   0.73316   0.00000  Uiso   1.00
H1165  H     0.49896   0.14560   0.76093   0.00000  Uiso   1.00
H1166  H     0.48305   0.12036   0.70857   0.00000  Uiso   1.00
H1167  H     0.12464   0.31174   0.77690   0.00000  Uiso   1.00
H1168  H     0.05181   0.15756   0.67660   0.00000  Uiso   1.00
H1169  H     0.05858   0.18956   0.72337   0.00000  Uiso   1.00
H1170  H     0.49710   0.39910   0.93903   0.00000  Uiso   1.00
H1171  H     0.49694   0.35831   0.89528   0.00000  Uiso   1.00
H1172  H     0.45902   0.35274   0.94048   0.00000  Uiso   1.00
H1173  H     0.03942   0.35719   0.98086   0.00000  Uiso   1.00
H1174  H     0.05376   0.32478   0.93842   0.00000  Uiso   1.00
H1175  H     0.18855   0.10156   0.69250   0.00000  Uiso   1.00
H1176  H     0.20844   0.14199   0.73402   0.00000  Uiso   1.00
H1177  H     0.22899   0.14419   0.67985   0.00000  Uiso   1.00
H1178  H     0.37286   0.19126   0.88670   0.00000  Uiso   1.00
H1179  H     0.24886   0.08208   0.75255   0.00000  Uiso   1.00
H1180  H     0.28443   0.10308   0.71598   0.00000  Uiso   1.00
H1181  H     0.16906   0.43503   0.94682   0.00000  Uiso   1.00
H1182  H     0.17912   0.37489   0.93410   0.00000  Uiso   1.00
H1183  H     0.17952   0.39615   0.99056   0.00000  Uiso   1.00
H1184  H     0.24628   0.41413   0.91767   0.00000  Uiso   1.00
H1185  H     0.25250   0.38495   0.96578   0.00000  Uiso   1.00
H1186  H     0.28319   0.35555   0.73321   0.00000  Uiso   1.00
H1187  H     0.24894   0.39561   0.76092   0.00000  Uiso   1.00
H1188  H     0.23311   0.37032   0.70855   0.00000  Uiso   1.00
H1189  H     0.08811   0.14527   0.90453   0.00000  Uiso   1.00
H1190  H     0.30182   0.40756   0.67660   0.00000  Uiso   1.00
H1191  H     0.30859   0.43956   0.72338   0.00000  Uiso   1.00
H1192  H     0.24710   0.14911   0.93904   0.00000  Uiso   1.00
H1193  H     0.24693   0.10831   0.89529   0.00000  Uiso   1.00
H1194  H     0.20901   0.10275   0.94050   0.00000  Uiso   1.00
H1195  H     0.28941   0.10719   0.98087   0.00000  Uiso   1.00
H1196  H     0.30376   0.07479   0.93842   0.00000  Uiso   1.00
H1197  H     0.40396   0.34574   0.76270   0.00000  Uiso   1.00
H1198  H     0.39361   0.33816   0.90484   0.00000  Uiso   1.00
H1199  H     0.10258   0.15503   0.76273   0.00000  Uiso   1.00
H1200  H     0.18125   0.36924   0.77583   0.00000  Uiso   1.00
N1201  N     0.00000   0.25000   0.95240   0.00000  Uiso   1.00
N1202  N     0.00000   0.25000   0.71427   0.00000  Uiso   1.00
N1203  N     0.25000  -0.00000   0.95240   0.00000  Uiso   1.00
N1204  N     0.25000  -0.00000   0.71427   0.00000  Uiso   1.00
O1205  O     0.04581   0.20419   0.87154   0.00000  Uiso   1.00
O1206  O     0.20420   0.04581   0.79513   0.00000  Uiso   1.00
O1207  O     0.20420   0.04581   0.87154   0.00000  Uiso   1.00
O1208  O     0.29581   0.45419   0.79513   0.00000  Uiso   1.00
O1209  O     0.20420   0.45419   0.79513   0.00000  Uiso   1.00
O1210  O     0.29581   0.04581   0.87154   0.00000  Uiso   1.00
O1211  O     0.29581   0.04581   0.79513   0.00000  Uiso   1.00
O1212  O     0.20420   0.45419   0.87154   0.00000  Uiso   1.00
O1213  O     0.45420   0.29581   0.79513   0.00000  Uiso   1.00
O1214  O     0.45420   0.29581   0.87154   0.00000  Uiso   1.00
O1215  O     0.04581   0.20419   0.79513   0.00000  Uiso   1.00
O1216  O     0.45420   0.20419   0.79513   0.00000  Uiso   1.00
O1217  O     0.04581   0.29581   0.87154   0.00000  Uiso   1.00
O1218  O     0.04581   0.29581   0.79513   0.00000  Uiso   1.00
O1219  O     0.45420   0.20419   0.87154   0.00000  Uiso   1.00
O1220  O     0.29581   0.45419   0.87154   0.00000  Uiso   1.00
Zn1221 Zn    0.00000   0.25000   0.88437   0.00000  Uiso   1.00
Zn1222 Zn    0.00000   0.25000   0.78229   0.00000  Uiso   1.00
Zn1223 Zn    0.25000  -0.00000   0.88437   0.00000  Uiso   1.00
Zn1224 Zn    0.25000  -0.00000   0.78229   0.00000  Uiso   1.00
C1225  C     0.55947   0.18965   0.83315   0.00000  Uiso   1.00
C1226  C     0.99642   0.20996   0.97553   0.00000  Uiso   1.00
C1227  C     0.50388   0.21006   0.68885   0.00000  Uiso   1.00
C1228  C     0.50611   0.29038   0.97748   0.00000  Uiso   1.00
C1229  C     0.75123   0.04080   0.69175   0.00000  Uiso   1.00
C1230  C     0.74643   0.45995   0.97553   0.00000  Uiso   1.00
C1231  C     0.75390   0.46006   0.68885   0.00000  Uiso   1.00
C1232  C     0.75611   0.04038   0.97748   0.00000  Uiso   1.00
C1233  C     0.90643   0.12228   0.80051   0.00000  Uiso   1.00
C1234  C     0.59207   0.37971   0.86436   0.00000  Uiso   1.00
C1235  C     0.62442   0.33982   0.80112   0.00000  Uiso   1.00
C1236  C     0.93933   0.30881   0.83365   0.00000  Uiso   1.00
C1237  C     0.87381   0.16239   0.86345   0.00000  Uiso   1.00
C1238  C     0.60303   0.13531   0.87346   0.00000  Uiso   1.00
C1239  C     0.89077   0.35724   0.79396   0.00000  Uiso   1.00
C1240  C     0.88468   0.35285   0.87375   0.00000  Uiso   1.00
C1241  C     0.61032   0.14048   0.79381   0.00000  Uiso   1.00
C1242  C     0.65638   0.37234   0.80045   0.00000  Uiso   1.00
C1243  C     0.84203   0.12974   0.86431   0.00000  Uiso   1.00
C1244  C     0.87447   0.08976   0.80118   0.00000  Uiso   1.00
C1245  C     0.62385   0.41235   0.86350   0.00000  Uiso   1.00
C1246  C     0.85299   0.38527   0.87345   0.00000  Uiso   1.00
C1247  C     0.94015   0.19029   0.83300   0.00000  Uiso   1.00
C1248  C     0.64069   0.10715   0.79396   0.00000  Uiso   1.00
C1249  C     0.63470   0.10287   0.87376   0.00000  Uiso   1.00
C1250  C     0.86041   0.39058   0.79382   0.00000  Uiso   1.00
C1251  C     0.59275   0.34336   0.83349   0.00000  Uiso   1.00
C1252  C     0.90631   0.15788   0.83221   0.00000  Uiso   1.00
C1253  C     0.90437   0.33988   0.83399   0.00000  Uiso   1.00
C1254  C     0.59143   0.15485   0.83339   0.00000  Uiso   1.00
C1255  C     0.84276   0.09335   0.83350   0.00000  Uiso   1.00
C1256  C     0.65631   0.40789   0.83221   0.00000  Uiso   1.00
C1257  C     0.65435   0.08986   0.83399   0.00000  Uiso   1.00
C1258  C     0.55961   0.31004   0.83354   0.00000  Uiso   1.00
C1259  C     0.84145   0.40487   0.83339   0.00000  Uiso   1.00
C1260  C     0.50250   0.33659   0.71766   0.00000  Uiso   1.00
C1261  C     0.96747   0.37018   0.70489   0.00000  Uiso   1.00
C1262  C     0.98560   0.16464   0.95217   0.00000  Uiso   1.00
C1263  C     0.93786   0.15463   0.95602   0.00000  Uiso   1.00
C1264  C     0.53301   0.17283   0.70435   0.00000  Uiso   1.00
C1265  C     0.51038   0.13397   0.72818   0.00000  Uiso   1.00
C1266  C     0.52453   0.33339   0.95658   0.00000  Uiso   1.00
C1267  C     0.99223   0.36190   0.93129   0.00000  Uiso   1.00
C1268  C     0.75247   0.08659   0.71766   0.00000  Uiso   1.00
C1269  C     0.80947   0.43965   0.83315   0.00000  Uiso   1.00
C1270  C     0.71739   0.12013   0.70491   0.00000  Uiso   1.00
C1271  C     0.73562   0.41464   0.95217   0.00000  Uiso   1.00
C1272  C     0.68788   0.40461   0.95603   0.00000  Uiso   1.00
C1273  C     0.78303   0.42283   0.70436   0.00000  Uiso   1.00
C1274  C     0.76040   0.38397   0.72818   0.00000  Uiso   1.00
C1275  C     0.77453   0.08340   0.95658   0.00000  Uiso   1.00
C1276  C     0.74223   0.11191   0.93130   0.00000  Uiso   1.00
C1277  C     0.68933   0.05881   0.83366   0.00000  Uiso   1.00
C1278  C     0.69015   0.44029   0.83300   0.00000  Uiso   1.00
C1279  C     0.80961   0.06004   0.83354   0.00000  Uiso   1.00
C1280  C     0.50124   0.29080   0.69175   0.00000  Uiso   1.00
H1281  H     0.93135   0.11913   0.77594   0.00000  Uiso   1.00
H1282  H     0.81672   0.13369   0.88819   0.00000  Uiso   1.00
H1283  H     0.87472   0.06163   0.77701   0.00000  Uiso   1.00
H1284  H     0.62292   0.44120   0.88678   0.00000  Uiso   1.00
H1285  H     0.83803   0.39518   0.90452   0.00000  Uiso   1.00
H1286  H     0.65384   0.09559   0.76270   0.00000  Uiso   1.00
H1287  H     0.64367   0.08823   0.90485   0.00000  Uiso   1.00
H1288  H     0.85271   0.40520   0.76274   0.00000  Uiso   1.00
H1289  H     0.93861   0.35165   0.69245   0.00000  Uiso   1.00
H1290  H     0.95853   0.39204   0.73401   0.00000  Uiso   1.00
H1291  H     0.97912   0.39425   0.67985   0.00000  Uiso   1.00
H1292  H     0.56679   0.38362   0.88828   0.00000  Uiso   1.00
H1293  H     0.99887   0.33208   0.75255   0.00000  Uiso   1.00
H1294  H     0.53449   0.35304   0.71600   0.00000  Uiso   1.00
H1295  H     0.91905   0.18502   0.94677   0.00000  Uiso   1.00
H1296  H     0.92910   0.12488   0.93412   0.00000  Uiso   1.00
H1297  H     0.92948   0.14621   0.99054   0.00000  Uiso   1.00
H1298  H     0.99627   0.16413   0.91767   0.00000  Uiso   1.00
H1299  H     0.50247   0.13495   0.96579   0.00000  Uiso   1.00
H1300  H     0.53315   0.10552   0.73316   0.00000  Uiso   1.00
H1301  H     0.99896   0.14560   0.76093   0.00000  Uiso   1.00
H1302  H     0.98305   0.12036   0.70857   0.00000  Uiso   1.00
H1303  H     0.62464   0.31174   0.77690   0.00000  Uiso   1.00
H1304  H     0.55181   0.15756   0.67660   0.00000  Uiso   1.00
H1305  H     0.55858   0.18956   0.72337   0.00000  Uiso   1.00
H1306  H     0.99710   0.39910   0.93903   0.00000  Uiso   1.00
H1307  H     0.99694   0.35831   0.89528   0.00000  Uiso   1.00
H1308  H     0.95902   0.35274   0.94048   0.00000  Uiso   1.00
H1309  H     0.53942   0.35719   0.98086   0.00000  Uiso   1.00
H1310  H     0.55376   0.32478   0.93842   0.00000  Uiso   1.00
H1311  H     0.68855   0.10156   0.69250   0.00000  Uiso   1.00
H1312  H     0.70844   0.14199   0.73402   0.00000  Uiso   1.00
H1313  H     0.72899   0.14419   0.67985   0.00000  Uiso   1.00
H1314  H     0.87286   0.19126   0.88670   0.00000  Uiso   1.00
H1315  H     0.74886   0.08208   0.75255   0.00000  Uiso   1.00
H1316  H     0.78443   0.10308   0.71598   0.00000  Uiso   1.00
H1317  H     0.66906   0.43503   0.94682   0.00000  Uiso   1.00
H1318  H     0.67912   0.37489   0.93410   0.00000  Uiso   1.00
H1319  H     0.67952   0.39615   0.99056   0.00000  Uiso   1.00
H1320  H     0.74628   0.41413   0.91767   0.00000  Uiso   1.00
H1321  H     0.75250   0.38495   0.96578   0.00000  Uiso   1.00
H1322  H     0.78319   0.35555   0.73321   0.00000  Uiso   1.00
H1323  H     0.74894   0.39561   0.76092   0.00000  Uiso   1.00
H1324  H     0.73311   0.37032   0.70855   0.00000  Uiso   1.00
H1325  H     0.58811   0.14527   0.90453   0.00000  Uiso   1.00
H1326  H     0.80182   0.40756   0.67660   0.00000  Uiso   1.00
H1327  H     0.80859   0.43956   0.72338   0.00000  Uiso   1.00
H1328  H     0.74710   0.14911   0.93904   0.00000  Uiso   1.00
H1329  H     0.74693   0.10831   0.89529   0.00000  Uiso   1.00
H1330  H     0.70901   0.10275   0.94050   0.00000  Uiso   1.00
H1331  H     0.78941   0.10719   0.98087   0.00000  Uiso   1.00
H1332  H     0.80376   0.07479   0.93842   0.00000  Uiso   1.00
H1333  H     0.90396   0.34574   0.76270   0.00000  Uiso   1.00
H1334  H     0.89361   0.33816   0.90484   0.00000  Uiso   1.00
H1335  H     0.60258   0.15503   0.76273   0.00000  Uiso   1.00
H1336  H     0.68125   0.36924   0.77583   0.00000  Uiso   1.00
N1337  N     0.50000   0.25000   0.95240   0.00000  Uiso   1.00
N1338  N     0.50000   0.25000   0.71427   0.00000  Uiso   1.00
N1339  N     0.75000  -0.00000   0.95240   0.00000  Uiso   1.00
N1340  N     0.75000  -0.00000   0.71427   0.00000  Uiso   1.00
O1341  O     0.54581   0.20419   0.87154   0.00000  Uiso   1.00
O1342  O     0.70420   0.04581   0.79513   0.00000  Uiso   1.00
O1343  O     0.70420   0.04581   0.87154   0.00000  Uiso   1.00
O1344  O     0.79581   0.45419   0.79513   0.00000  Uiso   1.00
O1345  O     0.70420   0.45419   0.79513   0.00000  Uiso   1.00
O1346  O     0.79581   0.04581   0.87154   0.00000  Uiso   1.00
O1347  O     0.79581   0.04581   0.79513   0.00000  Uiso   1.00
O1348  O     0.70420   0.45419   0.87154   0.00000  Uiso   1.00
O1349  O     0.95420   0.29581   0.79513   0.00000  Uiso   1.00
O1350  O     0.95420   0.29581   0.87154   0.00000  Uiso   1.00
O1351  O     0.54581   0.20419   0.79513   0.00000  Uiso   1.00
O1352  O     0.95420   0.20419   0.79513   0.00000  Uiso   1.00
O1353  O     0.54581   0.29581   0.87154   0.00000  Uiso   1.00
O1354  O     0.54581   0.29581   0.79513   0.00000  Uiso   1.00
O1355  O     0.95420   0.20419   0.87154   0.00000  Uiso   1.00
O1356  O     0.79581   0.45419   0.87154   0.00000  Uiso   1.00
Zn1357 Zn    0.50000   0.25000   0.88437   0.00000  Uiso   1.00
Zn1358 Zn    0.50000   0.25000   0.78229   0.00000  Uiso   1.00
Zn1359 Zn    0.75000  -0.00000   0.88437   0.00000  Uiso   1.00
Zn1360 Zn    0.75000  -0.00000   0.78229   0.00000  Uiso   1.00
C1361  C     0.05947   0.68965   0.83315   0.00000  Uiso   1.00
C1362  C     0.49642   0.70996   0.97553   0.00000  Uiso   1.00
C1363  C     0.00388   0.71006   0.68885   0.00000  Uiso   1.00
C1364  C     0.00611   0.79038   0.97748   0.00000  Uiso   1.00
C1365  C     0.25123   0.54080   0.69175   0.00000  Uiso   1.00
C1366  C     0.24643   0.95995   0.97553   0.00000  Uiso   1.00
C1367  C     0.25390   0.96006   0.68885   0.00000  Uiso   1.00
C1368  C     0.25611   0.54038   0.97748   0.00000  Uiso   1.00
C1369  C     0.40643   0.62228   0.80051   0.00000  Uiso   1.00
C1370  C     0.09207   0.87971   0.86436   0.00000  Uiso   1.00
C1371  C     0.12442   0.83982   0.80112   0.00000  Uiso   1.00
C1372  C     0.43933   0.80881   0.83365   0.00000  Uiso   1.00
C1373  C     0.37381   0.66239   0.86345   0.00000  Uiso   1.00
C1374  C     0.10303   0.63531   0.87346   0.00000  Uiso   1.00
C1375  C     0.39077   0.85724   0.79396   0.00000  Uiso   1.00
C1376  C     0.38468   0.85285   0.87375   0.00000  Uiso   1.00
C1377  C     0.11032   0.64048   0.79381   0.00000  Uiso   1.00
C1378  C     0.15638   0.87234   0.80045   0.00000  Uiso   1.00
C1379  C     0.34203   0.62974   0.86431   0.00000  Uiso   1.00
C1380  C     0.37447   0.58976   0.80118   0.00000  Uiso   1.00
C1381  C     0.12385   0.91235   0.86350   0.00000  Uiso   1.00
C1382  C     0.35299   0.88527   0.87345   0.00000  Uiso   1.00
C1383  C     0.44015   0.69029   0.83300   0.00000  Uiso   1.00
C1384  C     0.14069   0.60715   0.79396   0.00000  Uiso   1.00
C1385  C     0.13470   0.60287   0.87376   0.00000  Uiso   1.00
C1386  C     0.36041   0.89058   0.79382   0.00000  Uiso   1.00
C1387  C     0.09275   0.84336   0.83349   0.00000  Uiso   1.00
C1388  C     0.40631   0.65788   0.83221   0.00000  Uiso   1.00
C1389  C     0.40437   0.83988   0.83399   0.00000  Uiso   1.00
C1390  C     0.09143   0.65485   0.83339   0.00000  Uiso   1.00
C1391  C     0.34276   0.59335   0.83350   0.00000  Uiso   1.00
C1392  C     0.15631   0.90789   0.83221   0.00000  Uiso   1.00
C1393  C     0.15435   0.58986   0.83399   0.00000  Uiso   1.00
C1394  C     0.05961   0.81004   0.83354   0.00000  Uiso   1.00
C1395  C     0.34145   0.90487   0.83339   0.00000  Uiso   1.00
C1396  C     0.00250   0.83659   0.71766   0.00000  Uiso   1.00
C1397  C     0.46747   0.87018   0.70489   0.00000  Uiso   1.00
C1398  C     0.48560   0.66464   0.95217   0.00000  Uiso   1.00
C1399  C     0.43786   0.65463   0.95602   0.00000  Uiso   1.00
C1400  C     0.03301   0.67283   0.70435   0.00000  Uiso   1.00
C1401  C     0.01038   0.63397   0.72818   0.00000  Uiso   1.00
C1402  C     0.02453   0.83339   0.95658   0.00000  Uiso   1.00
C1403  C     0.49223   0.86190   0.93129   0.00000  Uiso   1.00
C1404  C     0.25247   0.58659   0.71766   0.00000  Uiso   1.00
C1405  C     0.30947   0.93965   0.83315   0.00000  Uiso   1.00
C1406  C     0.21739   0.62013   0.70491   0.00000  Uiso   1.00
C1407  C     0.23562   0.91464   0.95217   0.00000  Uiso   1.00
C1408  C     0.18788   0.90461   0.95603   0.00000  Uiso   1.00
C1409  C     0.28303   0.92283   0.70436   0.00000  Uiso   1.00
C1410  C     0.26040   0.88397   0.72818   0.00000  Uiso   1.00
C1411  C     0.27453   0.58340   0.95658   0.00000  Uiso   1.00
C1412  C     0.24223   0.61191   0.93130   0.00000  Uiso   1.00
C1413  C     0.18933   0.55881   0.83366   0.00000  Uiso   1.00
C1414  C     0.19015   0.94029   0.83300   0.00000  Uiso   1.00
C1415  C     0.30961   0.56004   0.83354   0.00000  Uiso   1.00
C1416  C     0.00124   0.79080   0.69175   0.00000  Uiso   1.00
H1417  H     0.43135   0.61913   0.77594   0.00000  Uiso   1.00
H1418  H     0.31672   0.63369   0.88819   0.00000  Uiso   1.00
H1419  H     0.37472   0.56163   0.77701   0.00000  Uiso   1.00
H1420  H     0.12292   0.94120   0.88678   0.00000  Uiso   1.00
H1421  H     0.33803   0.89518   0.90452   0.00000  Uiso   1.00
H1422  H     0.15384   0.59559   0.76270   0.00000  Uiso   1.00
H1423  H     0.14367   0.58823   0.90485   0.00000  Uiso   1.00
H1424  H     0.35271   0.90520   0.76274   0.00000  Uiso   1.00
H1425  H     0.43861   0.85165   0.69245   0.00000  Uiso   1.00
H1426  H     0.45853   0.89204   0.73401   0.00000  Uiso   1.00
H1427  H     0.47912   0.89425   0.67985   0.00000  Uiso   1.00
H1428  H     0.06679   0.88362   0.88828   0.00000  Uiso   1.00
H1429  H     0.49887   0.83208   0.75255   0.00000  Uiso   1.00
H1430  H     0.03449   0.85304   0.71600   0.00000  Uiso   1.00
H1431  H     0.41905   0.68502   0.94677   0.00000  Uiso   1.00
H1432  H     0.42910   0.62488   0.93412   0.00000  Uiso   1.00
H1433  H     0.42948   0.64621   0.99054   0.00000  Uiso   1.00
H1434  H     0.49627   0.66413   0.91767   0.00000  Uiso   1.00
H1435  H     0.00247   0.63495   0.96579   0.00000  Uiso   1.00
H1436  H     0.03315   0.60552   0.73316   0.00000  Uiso   1.00
H1437  H     0.49896   0.64560   0.76093   0.00000  Uiso   1.00
H1438  H     0.48305   0.62036   0.70857   0.00000  Uiso   1.00
H1439  H     0.12464   0.81174   0.77690   0.00000  Uiso   1.00
H1440  H     0.05181   0.65756   0.67660   0.00000  Uiso   1.00
H1441  H     0.05858   0.68956   0.72337   0.00000  Uiso   1.00
H1442  H     0.49710   0.89910   0.93903   0.00000  Uiso   1.00
H1443  H     0.49694   0.85831   0.89528   0.00000  Uiso   1.00
H1444  H     0.45902   0.85274   0.94048   0.00000  Uiso   1.00
H1445  H     0.03942   0.85719   0.98086   0.00000  Uiso   1.00
H1446  H     0.05376   0.82478   0.93842   0.00000  Uiso   1.00
H1447  H     0.18855   0.60156   0.69250   0.00000  Uiso   1.00
H1448  H     0.20844   0.64199   0.73402   0.00000  Uiso   1.00
H1449  H     0.22899   0.64419   0.67985   0.00000  Uiso   1.00
H1450  H     0.37286   0.69126   0.88670   0.00000  Uiso   1.00
H1451  H     0.24886   0.58208   0.75255   0.00000  Uiso   1.00
H1452  H     0.28443   0.60308   0.71598   0.00000  Uiso   1.00
H1453  H     0.16906   0.93503   0.94682   0.00000  Uiso   1.00
H1454  H     0.17912   0.87489   0.93410   0.00000  Uiso   1.00
H1455  H     0.17952   0.89615   0.99056   0.00000  Uiso   1.00
H1456  H     0.24628   0.91413   0.91767   0.00000  Uiso   1.00
H1457  H     0.25250   0.88495   0.96578   0.00000  Uiso   1.00
H1458  H     0.28319   0.85555   0.73321   0.00000  Uiso   1.00
H1459  H     0.24894   0.89561   0.76092   0.00000  Uiso   1.00
H1460  H     0.23311   0.87032   0.70855   0.00000  Uiso   1.00
H1461  H     0.08811   0.64527   0.90453   0.00000  Uiso   1.00
H1462  H     0.30182   0.90756   0.67660   0.00000  Uiso   1.00
H1463  H     0.30859   0.93956   0.72338   0.00000  Uiso   1.00
H1464  H     0.24710   0.64911   0.93904   0.00000  Uiso   1.00
H1465  H     0.24693   0.60831   0.89529   0.00000  Uiso   1.00
H1466  H     0.20901   0.60275   0.94050   0.00000  Uiso   1.00
H1467  H     0.28941   0.60719   0.98087   0.00000  Uiso   1.00
H1468  H     0.30376   0.57479   0.93842   0.00000  Uiso   1.00
H1469  H     0.40396   0.84574   0.76270   0.00000  Uiso   1.00
H1470  H     0.39361   0.83816   0.90484   0.00000  Uiso   1.00
H1471  H     0.10258   0.65503   0.76273   0.00000  Uiso   1.00
H1472  H     0.18125   0.86924   0.77583   0.00000  Uiso   1.00
N1473  N     0.00000   0.75000   0.95240   0.00000  Uiso   1.00
N1474  N     0.00000   0.75000   0.71427   0.00000  Uiso   1.00
N1475  N     0.25000   0.50000   0.95240   0.00000  Uiso   1.00
N1476  N     0.25000   0.50000   0.71427   0.00000  Uiso   1.00
O1477  O     0.04581   0.70419   0.87154   0.00000  Uiso   1.00
O1478  O     0.20420   0.54581   0.79513   0.00000  Uiso   1.00
O1479  O     0.20420   0.54581   0.87154   0.00000  Uiso   1.00
O1480  O     0.29581   0.95419   0.79513   0.00000  Uiso   1.00
O1481  O     0.20420   0.95419   0.79513   0.00000  Uiso   1.00
O1482  O     0.29581   0.54581   0.87154   0.00000  Uiso   1.00
O1483  O     0.29581   0.54581   0.79513   0.00000  Uiso   1.00
O1484  O     0.20420   0.95419   0.87154   0.00000  Uiso   1.00
O1485  O     0.45420   0.79581   0.79513   0.00000  Uiso   1.00
O1486  O     0.45420   0.79581   0.87154   0.00000  Uiso   1.00
O1487  O     0.04581   0.70419   0.79513   0.00000  Uiso   1.00
O1488  O     0.45420   0.70419   0.79513   0.00000  Uiso   1.00
O1489  O     0.04581   0.79581   0.87154   0.00000  Uiso   1.00
O1490  O     0.04581   0.79581   0.79513   0.00000  Uiso   1.00
O1491  O     0.45420   0.70419   0.87154   0.00000  Uiso   1.00
O1492  O     0.29581   0.95419   0.87154   0.00000  Uiso   1.00
Zn1493 Zn    0.00000   0.75000   0.88437   0.00000  Uiso   1.00
Zn1494 Zn    0.00000   0.75000   0.78229   0.00000  Uiso   1.00
Zn1495 Zn    0.25000   0.50000   0.88437   0.00000  Uiso   1.00
Zn1496 Zn    0.25000   0.50000   0.78229   0.00000  Uiso   1.00
C1497  C     0.55947   0.68965   0.83315   0.00000  Uiso   1.00
C1498  C     0.99642   0.70996   0.97553   0.00000  Uiso   1.00
C1499  C     0.50388   0.71006   0.68885   0.00000  Uiso   1.00
C1500  C     0.50611   0.79038   0.97748   0.00000  Uiso   1.00
C1501  C     0.75123   0.54080   0.69175   0.00000  Uiso   1.00
C1502  C     0.74643   0.95995   0.97553   0.00000  Uiso   1.00
C1503  C     0.75390   0.96006   0.68885   0.00000  Uiso   1.00
C1504  C     0.75611   0.54038   0.97748   0.00000  Uiso   1.00
C1505  C     0.90643   0.62228   0.80051   0.00000  Uiso   1.00
C1506  C     0.59207   0.87971   0.86436   0.00000  Uiso   1.00
C1507  C     0.62442   0.83982   0.80112   0.00000  Uiso   1.00
C1508  C     0.93933   0.80881   0.83365   0.00000  Uiso   1.00
C1509  C     0.87381   0.66239   0.86345   0.00000  Uiso   1.00
C1510  C     0.60303   0.63531   0.87346   0.00000  Uiso   1.00
C1511  C     0.89077   0.85724   0.79396   0.00000  Uiso   1.00
C1512  C     0.88468   0.85285   0.87375   0.00000  Uiso   1.00
C1513  C     0.61032   0.64048   0.79381   0.00000  Uiso   1.00
C1514  C     0.65638   0.87234   0.80045   0.00000  Uiso   1.00
C1515  C     0.84203   0.62974   0.86431   0.00000  Uiso   1.00
C1516  C     0.87447   0.58976   0.80118   0.00000  Uiso   1.00
C1517  C     0.62385   0.91235   0.86350   0.00000  Uiso   1.00
C1518  C     0.85299   0.88527   0.87345   0.00000  Uiso   1.00
C1519  C     0.94015   0.69029   0.83300   0.00000  Uiso   1.00
C1520  C     0.64069   0.60715   0.79396   0.00000  Uiso   1.00
C1521  C     0.63470   0.60287   0.87376   0.00000  Uiso   1.00
C1522  C     0.86041   0.89058   0.79382   0.00000  Uiso   1.00
C1523  C     0.59275   0.84336   0.83349   0.00000  Uiso   1.00
C1524  C     0.90631   0.65788   0.83221   0.00000  Uiso   1.00
C1525  C     0.90437   0.83988   0.83399   0.00000  Uiso   1.00
C1526  C     0.59143   0.65485   0.83339   0.00000  Uiso   1.00
C1527  C     0.84276   0.59335   0.83350   0.00000  Uiso   1.00
C1528  C     0.65631   0.90789   0.83221   0.00000  Uiso   1.00
C1529  C     0.65435   0.58986   0.83399   0.00000  Uiso   1.00
C1530  C     0.55961   0.81004   0.83354   0.00000  Uiso   1.00
C1531  C     0.84145   0.90487   0.83339   0.00000  Uiso   1.00
C1532  C     0.50250   0.83659   0.71766   0.00000  Uiso   1.00
C1533  C     0.96747   0.87018   0.70489   0.00000  Uiso   1.00
C1534  C     0.98560   0.66464   0.95217   0.00000  Uiso   1.00
C1535  C     0.93786   0.65463   0.95602   0.00000  Uiso   1.00
C1536  C     0.53301   0.67283   0.70435   0.00000  Uiso   1.00
C1537  C     0.51038   0.63397   0.72818   0.00000  Uiso   1.00
C1538  C     0.52453   0.83339   0.95658   0.00000  Uiso   1.00
C1539  C     0.99223   0.86190   0.93129   0.00000  Uiso   1.00
C1540  C     0.75247   0.58659   0.71766   0.00000  Uiso   1.00
C1541  C     0.80947   0.93965   0.83315   0.00000  Uiso   1.00
C1542  C     0.71739   0.62013   0.70491   0.00000  Uiso   1.00
C1543  C     0.73562   0.91464   0.95217   0.00000  Uiso   1.00
C1544  C     0.68788   0.90461   0.95603   0.00000  Uiso   1.00
C1545  C     0.78303   0.92283   0.70436   0.00000  Uiso   1.00
C1546  C     0.76040   0.88397   0.72818   0.00000  Uiso   1.00
C1547  C     0.77453   0.58340   0.95658   0.00000  Uiso   1.00
C1548  C     0.74223   0.61191   0.93130   0.00000  Uiso   1.00
C1549  C     0.68933   0.55881   0.83366   0.00000  Uiso   1.00
C1550  C     0.69015   0.94029   0.83300   0.00000  Uiso   1.00
C1551  C     0.80961   0.56004   0.83354   0.00000  Uiso   1.00
C1552  C     0.50124   0.79080   0.69175   0.00000  Uiso   1.00
H1553  H     0.93135   0.61913   0.77594   0.00000  Uiso   1.00
H1554  H     0.81672   0.63369   0.88819   0.00000  Uiso   1.00
H1555  H     0.87472   0.56163   0.77701   0.00000  Uiso   1.00
H1556  H     0.62292   0.94120   0.88678   0.00000  Uiso   1.00
H1557  H     0.83803   0.89518   0.90452   0.00000  Uiso   1.00
H1558  H     0.65384   0.59559   0.76270   0.00000  Uiso   1.00
H1559  H     0.64367   0.58823   0.90485   0.00000  Uiso   1.00
H1560  H     0.85271   0.90520   0.76274   0.00000  Uiso   1.00
H1561  H     0.93861   0.85165   0.69245   0.00000  Uiso   1.00
H1562  H     0.95853   0.89204   0.73401   0.00000  Uiso   1.00
H1563  H     0.97912   0.89425   0.67985   0.00000  Uiso   1.00
H1564  H     0.56679   0.88362   0.88828   0.00000  Uiso   1.00
H1565  H     0.99887   0.83208   0.75255   0.00000  Uiso   1.00
H1566  H     0.53449   0.85304   0.71600   0.00000  Uiso   1.00
H1567  H     0.91905   0.68502   0.94677   0.00000  Uiso   1.00
H1568  H     0.92910   0.62488   0.93412   0.00000  Uiso   1.00
H1569  H     0.92948   0.64621   0.99054   0.00000  Uiso   1.00
H1570  H     0.99627   0.66413   0.91767   0.00000  Uiso   1.00
H1571  H     0.50247   0.63495   0.96579   0.00000  Uiso   1.00
H1572  H     0.53315   0.60552   0.73316   0.00000  Uiso   1.00
H1573  H     0.99896   0.64560   0.76093   0.00000  Uiso   1.00
H1574  H     0.98305   0.62036   0.70857   0.00000  Uiso   1.00
H1575  H     0.62464   0.81174   0.77690   0.00000  Uiso   1.00
H1576  H     0.55181   0.65756   0.67660   0.00000  Uiso   1.00
H1577  H     0.55858   0.68956   0.72337   0.00000  Uiso   1.00
H1578  H     0.99710   0.89910   0.93903   0.00000  Uiso   1.00
H1579  H     0.99694   0.85831   0.89528   0.00000  Uiso   1.00
H1580  H     0.95902   0.85274   0.94048   0.00000  Uiso   1.00
H1581  H     0.53942   0.85719   0.98086   0.00000  Uiso   1.00
H1582  H     0.55376   0.82478   0.93842   0.00000  Uiso   1.00
H1583  H     0.68855   0.60156   0.69250   0.00000  Uiso   1.00
H1584  H     0.70844   0.64199   0.73402   0.00000  Uiso   1.00
H1585  H     0.72899   0.64419   0.67985   0.00000  Uiso   1.00
H1586  H     0.87286   0.69126   0.88670   0.00000  Uiso   1.00
H1587  H     0.74886   0.58208   0.75255   0.00000  Uiso   1.00
H1588  H     0.78443   0.60308   0.71598   0.00000  Uiso   1.00
H1589  H     0.66906   0.93503   0.94682   0.00000  Uiso   1.00
H1590  H     0.67912   0.87489   0.93410   0.00000  Uiso   1.00
H1591  H     0.67952   0.89615   0.99056   0.00000  Uiso   1.00
H1592  H     0.74628   0.91413   0.91767   0.00000  Uiso   1.00
H1593  H     0.75250   0.88495   0.96578   0.00000  Uiso   1.00
H1594  H     0.78319   0.85555   0.73321   0.00000  Uiso   1.00
H1595  H     0.74894   0.89561   0.76092   0.00000  Uiso   1.00
H1596  H     0.73311   0.87032   0.70855   0.00000  Uiso   1.00
H1597  H     0.58811   0.64527   0.90453   0.00000  Uiso   1.00
H1598  H     0.80182   0.90756   0.67660   0.00000  Uiso   1.00
H1599  H     0.80859   0.93956   0.72338   0.00000  Uiso   1.00
H1600  H     0.74710   0.64911   0.93904   0.00000  Uiso   1.00
H1601  H     0.74693   0.60831   0.89529   0.00000  Uiso   1.00
H1602  H     0.70901   0.60275   0.94050   0.00000  Uiso   1.00
H1603  H     0.78941   0.60719   0.98087   0.00000  Uiso   1.00
H1604  H     0.80376   0.57479   0.93842   0.00000  Uiso   1.00
H1605  H     0.90396   0.84574   0.76270   0.00000  Uiso   1.00
H1606  H     0.89361   0.83816   0.90484   0.00000  Uiso   1.00
H1607  H     0.60258   0.65503   0.76273   0.00000  Uiso   1.00
H1608  H     0.68125   0.86924   0.77583   0.00000  Uiso   1.00
N1609  N     0.50000   0.75000   0.95240   0.00000  Uiso   1.00
N1610  N     0.50000   0.75000   0.71427   0.00000  Uiso   1.00
N1611  N     0.75000   0.50000   0.95240   0.00000  Uiso   1.00
N1612  N     0.75000   0.50000   0.71427   0.00000  Uiso   1.00
O1613  O     0.54581   0.70419   0.87154   0.00000  Uiso   1.00
O1614  O     0.70420   0.54581   0.79513   0.00000  Uiso   1.00
O1615  O     0.70420   0.54581   0.87154   0.00000  Uiso   1.00
O1616  O     0.79581   0.95419   0.79513   0.00000  Uiso   1.00
O1617  O     0.70420   0.95419   0.79513   0.00000  Uiso   1.00
O1618  O     0.79581   0.54581   0.87154   0.00000  Uiso   1.00
O1619  O     0.79581   0.54581   0.79513   0.00000  Uiso   1.00
O1620  O     0.70420   0.95419   0.87154   0.00000  Uiso   1.00
O1621  O     0.95420   0.79581   0.79513   0.00000  Uiso   1.00
O1622  O     0.95420   0.79581   0.87154   0.00000  Uiso   1.00
O1623  O     0.54581   0.70419   0.79513   0.00000  Uiso   1.00
O1624  O     0.95420   0.70419   0.79513   0.00000  Uiso   1.00
O1625  O     0.54581   0.79581   0.87154   0.00000  Uiso   1.00
O1626  O     0.54581   0.79581   0.79513   0.00000  Uiso   1.00
O1627  O     0.95420   0.70419   0.87154   0.00000  Uiso   1.00
O1628  O     0.79581   0.95419   0.87154   0.00000  Uiso   1.00
Zn1629 Zn    0.50000   0.75000   0.88437   0.00000  Uiso   1.00
Zn1630 Zn    0.50000   0.75000   0.78229   0.00000  Uiso   1.00
Zn1631 Zn    0.75000   0.50000   0.88437   0.00000  Uiso   1.00
Zn1632 Zn    0.75000   0.50000   0.78229   0.00000  Uiso   1.00
loop_
_geom_bond_atom_site_label_1
_geom_bond_atom_site_label_2
_geom_bond_distance
_geom_bond_site_symmetry_2
_ccdc_geom_bond_type
C1     O117    1.300   .     A
C1     O127    1.311   .     A
C1     C30     1.430   .     S
C2     C38     1.517   .     S
C2     C683    1.433   .     S
C2     N249    1.378   .     S
C3     C40     1.507   .     S
C3     C1226   1.433   1_454 S
C3     N114    1.384   .     S
C4     N113    1.395   .     A
C4     C42     1.525   .     S
C4     C600    1.449   .     S
C5     C44     1.529   .     S
C5     N116    1.384   .     A
C5     C1096   1.449   1_554 S
C6     C47     1.517   .     S
C6     N387    1.378   .     A
C6     C551    1.433   .     S
C7     C49     1.507   .     S
C7     C1094   1.433   1_554 S
C7     N388    1.384   .     S
C8     C51     1.525   .     S
C8     C549    1.449   .     S
C8     N115    1.395   .     S
C9     C20     1.373   .     A
C9     H57     1.080   .     S
C9     C28     1.395   .     A
C10    C27     1.394   .     A
C10    C21     1.371   .     A
C10    H68     1.076   .     S
C11    C18     1.373   .     A
C11    C27     1.395   .     A
C11    H79     1.084   .     S
C12    C29     1.425   .     S
C12    O126    1.305   .     A
C12    O125    1.304   .     A
C13    H90     1.083   .     S
C13    C28     1.393   .     A
C13    C19     1.371   .     A
C14    C30     1.403   .     A
C14    H101    1.084   .     S
C14    C25     1.375   .     A
C15    H109    1.079   .     S
C15    C26     1.364   .     A
C15    C29     1.394   .     A
C16    H110    1.082   .     S
C16    C29     1.396   .     A
C16    C22     1.375   .     A
C17    C30     1.392   .     A
C17    H111    1.071   .     S
C17    C24     1.364   .     A
C18    H112    1.080   .     S
C18    C32     1.395   .     A
C19    C31     1.394   .     A
C19    H58     1.076   .     S
C20    H59     1.084   .     S
C20    C31     1.395   .     A
C21    C32     1.393   .     A
C21    H60     1.083   .     S
C22    C35     1.403   .     A
C22    H61     1.084   .     S
C23    O131    1.303   .     A
C23    C28     1.413   .     S
C23    O128    1.300   .     A
C24    H62     1.079   .     S
C24    C33     1.394   .     A
C25    H63     1.082   .     S
C25    C33     1.396   .     A
C26    H64     1.071   .     S
C26    C35     1.392   .     A
C27    C34     1.415   .     S
C31    C55     1.415   .     S
C32    C54     1.413   .     S
C33    C53     1.425   .     S
C34    O129    1.304   .     A
C34    O130    1.299   .     A
C35    C45     1.430   .     S
C36    H70     1.109   .     S
C36    C56     1.529   .     S
C36    C173    1.532   1_455 S
C36    H205    1.074   1_455 S
C37    H65     1.111   .     S
C37    H66     1.111   .     S
C37    H67     1.104   .     S
C37    C172    1.532   .     S
C38    C39     1.526   .     S
C38    H74     1.096   .     S
C38    H211    1.105   .     S
C39    H72     1.110   .     S
C39    H73     1.110   .     S
C39    H71     1.109   .     S
C40    H80     1.111   .     S
C40    C41     1.525   .     S
C40    H81     1.092   .     S
C41    H76     1.110   .     S
C41    H213    1.100   1_455 S
C41    H214    1.109   1_455 S
C42    H86     1.094   .     S
C42    H85     1.100   .     S
C42    C179    1.532   1_455 S
C43    H84     1.109   .     S
C43    H83     1.103   .     S
C43    H82     1.111   .     S
C43    C178    1.532   .     S
C44    C46     1.532   .     S
C44    H92     1.109   .     S
C44    H91     1.074   .     S
C45    O120    1.311   .     A
C45    O132    1.300   .     A
C46    H89     1.104   .     S
C46    H88     1.111   .     S
C46    H87     1.111   .     S
C47    C48     1.526   .     S
C47    H96     1.096   .     S
C47    H97     1.105   .     S
C48    H95     1.110   .     S
C48    H94     1.111   .     S
C48    H93     1.109   .     S
C49    H102    1.111   .     S
C49    H103    1.092   .     S
C49    C50     1.525   .     S
C50    H99     1.100   .     S
C50    H98     1.110   .     S
C50    H100    1.108   .     S
C51    H108    1.094   .     S
C51    C52     1.532   .     S
C51    H107    1.100   .     S
C52    H104    1.111   .     S
C52    H105    1.103   .     S
C52    H106    1.109   .     S
C53    O118    1.304   .     A
C53    O119    1.305   .     A
C54    O121    1.300   .     A
C54    O124    1.303   .     A
C55    O122    1.304   .     A
C55    O123    1.299   .     A
C56    C1092   1.449   1_554 S
C56    N114    1.384   .     S
H69    C172    1.074   .     S
H75    C174    1.105   1_455 S
H77    C177    1.100   .     S
H78    C177    1.109   .     S
N113   Zn133   2.060   .     S
N113   C138    1.378   1_455 S
N114   Zn134   2.060   .     S
N115   C278    1.378   1_545 A
N115   Zn135   2.060   .     S
N116   Zn136   2.060   .     S
N116   C279    1.384   1_545 S
O117   Zn133   1.997   .     S
O118   Zn136   1.997   .     S
O119   Zn135   2.011   .     S
O120   Zn408   2.011   .     S
O121   Zn408   1.995   .     S
O122   Zn135   1.995   .     S
O123   Zn136   1.983   .     S
O124   Zn407   1.983   .     S
O125   Zn270   1.997   .     S
O126   Zn269   2.011   .     S
O127   Zn134   2.011   .     S
O128   Zn270   1.995   .     S
O129   Zn133   1.995   .     S
O130   Zn134   1.983   .     S
O131   Zn269   1.983   .     S
O132   Zn407   1.997   .     S
Zn133  O267    1.983   1_455 S
Zn133  O262    2.011   1_455 S
Zn134  O261    1.997   1_455 S
Zn134  O264    1.995   1_455 S
Zn135  O396    1.983   1_545 S
Zn135  O404    1.997   1_545 S
Zn136  O393    1.995   1_545 S
Zn136  O392    2.011   1_545 S
C137   O253    1.300   .     A
C137   O263    1.311   .     A
C137   C166    1.430   .     S
C138   C174    1.517   .     S
C138   C547    1.433   1_655 S
C138   N113    1.378   1_655 S
C139   C176    1.507   .     S
C139   C1090   1.433   1_554 S
C139   N250    1.384   .     S
C140   N249    1.395   .     A
C140   C178    1.525   .     S
C140   C736    1.449   .     S
C141   C180    1.529   .     S
C141   N252    1.384   .     A
C141   C1232   1.449   1_554 S
C142   C183    1.517   .     S
C142   N523    1.378   .     A
C142   C687    1.433   .     S
C143   C185    1.507   .     S
C143   C1230   1.433   1_554 S
C143   N524    1.384   .     S
C144   C187    1.525   .     S
C144   C685    1.449   .     S
C144   N251    1.395   .     S
C145   C156    1.373   .     A
C145   H193    1.080   .     S
C145   C164    1.395   .     A
C146   C163    1.394   .     A
C146   C157    1.371   .     A
C146   H204    1.076   .     S
C147   C154    1.373   .     A
C147   C163    1.395   .     A
C147   H215    1.084   .     S
C148   C165    1.425   .     S
C148   O262    1.305   .     A
C148   O261    1.304   .     A
C149   H226    1.083   .     S
C149   C164    1.393   .     A
C149   C155    1.371   .     A
C150   C166    1.403   .     A
C150   H237    1.084   .     S
C150   C161    1.375   .     A
C151   H245    1.079   .     S
C151   C162    1.364   .     A
C151   C165    1.394   .     A
C152   H246    1.082   .     S
C152   C165    1.396   .     A
C152   C158    1.375   .     A
C153   C166    1.392   .     A
C153   H247    1.071   .     S
C153   C160    1.364   .     A
C154   H248    1.080   .     S
C154   C168    1.395   .     A
C155   C167    1.394   .     A
C155   H194    1.076   .     S
C156   H195    1.084   .     S
C156   C167    1.395   .     A
C157   C168    1.393   .     A
C157   H196    1.083   .     S
C158   C171    1.403   .     A
C158   H197    1.084   .     S
C159   O267    1.303   .     A
C159   C164    1.413   .     S
C159   O264    1.300   .     A
C160   H198    1.079   .     S
C160   C169    1.394   .     A
C161   H199    1.082   .     S
C161   C169    1.396   .     A
C162   H200    1.071   .     S
C162   C171    1.392   .     A
C163   C170    1.415   .     S
C167   C191    1.415   .     S
C168   C190    1.413   .     S
C169   C189    1.425   .     S
C170   O265    1.304   .     A
C170   O266    1.299   .     A
C171   C181    1.430   .     S
C172   H206    1.109   .     S
C172   C192    1.529   .     S
C173   H201    1.111   .     S
C173   H202    1.111   .     S
C173   H203    1.104   .     S
C173   C36     1.532   1_655 S
C174   C175    1.526   .     S
C174   H210    1.096   .     S
C174   H75     1.105   1_655 S
C175   H208    1.110   .     S
C175   H209    1.110   .     S
C175   H207    1.109   .     S
C176   H216    1.111   .     S
C176   C177    1.525   .     S
C176   H217    1.092   .     S
C177   H212    1.110   .     S
C178   H222    1.094   .     S
C178   H221    1.100   .     S
C179   H220    1.109   .     S
C179   H219    1.103   .     S
C179   H218    1.111   .     S
C179   C42     1.532   1_655 S
C180   C182    1.532   .     S
C180   H228    1.109   .     S
C180   H227    1.074   .     S
C181   O256    1.311   .     A
C181   O268    1.300   .     A
C182   H225    1.104   .     S
C182   H224    1.111   .     S
C182   H223    1.111   .     S
C183   C184    1.526   .     S
C183   H232    1.096   .     S
C183   H233    1.105   .     S
C184   H231    1.110   .     S
C184   H230    1.111   .     S
C184   H229    1.109   .     S
C185   H238    1.111   .     S
C185   H239    1.092   .     S
C185   C186    1.525   .     S
C186   H235    1.100   .     S
C186   H234    1.110   .     S
C186   H236    1.108   .     S
C187   H244    1.094   .     S
C187   C188    1.532   .     S
C187   H243    1.100   .     S
C188   H240    1.111   .     S
C188   H241    1.103   .     S
C188   H242    1.109   .     S
C189   O254    1.304   .     A
C189   O255    1.305   .     A
C190   O257    1.300   .     A
C190   O260    1.303   .     A
C191   O258    1.304   .     A
C191   O259    1.299   .     A
C192   C1228   1.449   1_554 S
C192   N250    1.384   .     S
H205   C36     1.074   1_655 S
H213   C41     1.100   1_655 S
H214   C41     1.109   1_655 S
N249   Zn269   2.060   .     S
N250   Zn270   2.060   .     S
N251   C414    1.378   1_545 A
N251   Zn271   2.060   .     S
N252   Zn272   2.060   .     S
N252   C415    1.384   1_545 S
O253   Zn269   1.997   .     S
O254   Zn272   1.997   .     S
O255   Zn271   2.011   .     S
O256   Zn544   2.011   .     S
O257   Zn544   1.995   .     S
O258   Zn271   1.995   .     S
O259   Zn272   1.983   .     S
O260   Zn543   1.983   .     S
O261   Zn134   1.997   1_655 S
O262   Zn133   2.011   1_655 S
O263   Zn270   2.011   .     S
O264   Zn134   1.995   1_655 S
O265   Zn269   1.995   .     S
O266   Zn270   1.983   .     S
O267   Zn133   1.983   1_655 S
O268   Zn543   1.997   .     S
Zn271  O532    1.983   1_545 S
Zn271  O540    1.997   1_545 S
Zn272  O529    1.995   1_545 S
Zn272  O528    2.011   1_545 S
C273   O389    1.300   .     A
C273   O399    1.311   .     A
C273   C302    1.430   .     S
C274   C310    1.517   .     S
C274   C955    1.433   .     S
C274   N521    1.378   .     S
C275   C312    1.507   .     S
C275   C1498   1.433   1_454 S
C275   N386    1.384   .     S
C276   N385    1.395   .     A
C276   C314    1.525   .     S
C276   C872    1.449   .     S
C277   C316    1.529   .     S
C277   N388    1.384   .     A
C277   C1368   1.449   1_554 S
C278   C319    1.517   .     S
C278   N115    1.378   1_565 A
C278   C823    1.433   .     S
C279   C321    1.507   .     S
C279   C1366   1.433   1_554 S
C279   N116    1.384   1_565 S
C280   C323    1.525   .     S
C280   C821    1.449   .     S
C280   N387    1.395   .     S
C281   C292    1.373   .     A
C281   H329    1.080   .     S
C281   C300    1.395   .     A
C282   C299    1.394   .     A
C282   C293    1.371   .     A
C282   H340    1.076   .     S
C283   C290    1.373   .     A
C283   C299    1.395   .     A
C283   H351    1.084   .     S
C284   C301    1.425   .     S
C284   O398    1.305   .     A
C284   O397    1.304   .     A
C285   H362    1.083   .     S
C285   C300    1.393   .     A
C285   C291    1.371   .     A
C286   C302    1.403   .     A
C286   H373    1.084   .     S
C286   C297    1.375   .     A
C287   H381    1.079   .     S
C287   C298    1.364   .     A
C287   C301    1.394   .     A
C288   H382    1.082   .     S
C288   C301    1.396   .     A
C288   C294    1.375   .     A
C289   C302    1.392   .     A
C289   H383    1.071   .     S
C289   C296    1.364   .     A
C290   H384    1.080   .     S
C290   C304    1.395   .     A
C291   C303    1.394   .     A
C291   H330    1.076   .     S
C292   H331    1.084   .     S
C292   C303    1.395   .     A
C293   C304    1.393   .     A
C293   H332    1.083   .     S
C294   C307    1.403   .     A
C294   H333    1.084   .     S
C295   O403    1.303   .     A
C295   C300    1.413   .     S
C295   O400    1.300   .     A
C296   H334    1.079   .     S
C296   C305    1.394   .     A
C297   H335    1.082   .     S
C297   C305    1.396   .     A
C298   H336    1.071   .     S
C298   C307    1.392   .     A
C299   C306    1.415   .     S
C303   C327    1.415   .     S
C304   C326    1.413   .     S
C305   C325    1.425   .     S
C306   O401    1.304   .     A
C306   O402    1.299   .     A
C307   C317    1.430   .     S
C308   H342    1.109   .     S
C308   C328    1.529   .     S
C308   C445    1.532   1_455 S
C308   H477    1.074   1_455 S
C309   H337    1.111   .     S
C309   H338    1.111   .     S
C309   H339    1.104   .     S
C309   C444    1.532   .     S
C310   C311    1.526   .     S
C310   H346    1.096   .     S
C310   H483    1.105   .     S
C311   H344    1.110   .     S
C311   H345    1.110   .     S
C311   H343    1.109   .     S
C312   H352    1.111   .     S
C312   C313    1.525   .     S
C312   H353    1.092   .     S
C313   H348    1.110   .     S
C313   H485    1.100   1_455 S
C313   H486    1.109   1_455 S
C314   H358    1.094   .     S
C314   H357    1.100   .     S
C314   C451    1.532   1_455 S
C315   H356    1.109   .     S
C315   H355    1.103   .     S
C315   H354    1.111   .     S
C315   C450    1.532   .     S
C316   C318    1.532   .     S
C316   H364    1.109   .     S
C316   H363    1.074   .     S
C317   O392    1.311   .     A
C317   O404    1.300   .     A
C318   H361    1.104   .     S
C318   H360    1.111   .     S
C318   H359    1.111   .     S
C319   C320    1.526   .     S
C319   H368    1.096   .     S
C319   H369    1.105   .     S
C320   H367    1.110   .     S
C320   H366    1.111   .     S
C320   H365    1.109   .     S
C321   H374    1.111   .     S
C321   H375    1.092   .     S
C321   C322    1.525   .     S
C322   H371    1.100   .     S
C322   H370    1.110   .     S
C322   H372    1.108   .     S
C323   H380    1.094   .     S
C323   C324    1.532   .     S
C323   H379    1.100   .     S
C324   H376    1.111   .     S
C324   H377    1.103   .     S
C324   H378    1.109   .     S
C325   O390    1.304   .     A
C325   O391    1.305   .     A
C326   O393    1.300   .     A
C326   O396    1.303   .     A
C327   O394    1.304   .     A
C327   O395    1.299   .     A
C328   C1364   1.449   1_554 S
C328   N386    1.384   .     S
H341   C444    1.074   .     S
H347   C446    1.105   1_455 S
H349   C449    1.100   .     S
H350   C449    1.109   .     S
N385   Zn405   2.060   .     S
N385   C410    1.378   1_455 S
N386   Zn406   2.060   .     S
N387   Zn407   2.060   .     S
N388   Zn408   2.060   .     S
O389   Zn405   1.997   .     S
O390   Zn408   1.997   .     S
O391   Zn407   2.011   .     S
O392   Zn136   2.011   1_565 S
O393   Zn136   1.995   1_565 S
O394   Zn407   1.995   .     S
O395   Zn408   1.983   .     S
O396   Zn135   1.983   1_565 S
O397   Zn542   1.997   .     S
O398   Zn541   2.011   .     S
O399   Zn406   2.011   .     S
O400   Zn542   1.995   .     S
O401   Zn405   1.995   .     S
O402   Zn406   1.983   .     S
O403   Zn541   1.983   .     S
O404   Zn135   1.997   1_565 S
Zn405  O539    1.983   1_455 S
Zn405  O534    2.011   1_455 S
Zn406  O533    1.997   1_455 S
Zn406  O536    1.995   1_455 S
C409   O525    1.300   .     A
C409   O535    1.311   .     A
C409   C438    1.430   .     S
C410   C446    1.517   .     S
C410   C819    1.433   1_655 S
C410   N385    1.378   1_655 S
C411   C448    1.507   .     S
C411   C1362   1.433   1_554 S
C411   N522    1.384   .     S
C412   N521    1.395   .     A
C412   C450    1.525   .     S
C412   C1008   1.449   .     S
C413   C452    1.529   .     S
C413   N524    1.384   .     A
C413   C1504   1.449   1_554 S
C414   C455    1.517   .     S
C414   N251    1.378   1_565 A
C414   C959    1.433   .     S
C415   C457    1.507   .     S
C415   C1502   1.433   1_554 S
C415   N252    1.384   1_565 S
C416   C459    1.525   .     S
C416   C957    1.449   .     S
C416   N523    1.395   .     S
C417   C428    1.373   .     A
C417   H465    1.080   .     S
C417   C436    1.395   .     A
C418   C435    1.394   .     A
C418   C429    1.371   .     A
C418   H476    1.076   .     S
C419   C426    1.373   .     A
C419   C435    1.395   .     A
C419   H487    1.084   .     S
C420   C437    1.425   .     S
C420   O534    1.305   .     A
C420   O533    1.304   .     A
C421   H498    1.083   .     S
C421   C436    1.393   .     A
C421   C427    1.371   .     A
C422   C438    1.403   .     A
C422   H509    1.084   .     S
C422   C433    1.375   .     A
C423   H517    1.079   .     S
C423   C434    1.364   .     A
C423   C437    1.394   .     A
C424   H518    1.082   .     S
C424   C437    1.396   .     A
C424   C430    1.375   .     A
C425   C438    1.392   .     A
C425   H519    1.071   .     S
C425   C432    1.364   .     A
C426   H520    1.080   .     S
C426   C440    1.395   .     A
C427   C439    1.394   .     A
C427   H466    1.076   .     S
C428   H467    1.084   .     S
C428   C439    1.395   .     A
C429   C440    1.393   .     A
C429   H468    1.083   .     S
C430   C443    1.403   .     A
C430   H469    1.084   .     S
C431   O539    1.303   .     A
C431   C436    1.413   .     S
C431   O536    1.300   .     A
C432   H470    1.079   .     S
C432   C441    1.394   .     A
C433   H471    1.082   .     S
C433   C441    1.396   .     A
C434   H472    1.071   .     S
C434   C443    1.392   .     A
C435   C442    1.415   .     S
C439   C463    1.415   .     S
C440   C462    1.413   .     S
C441   C461    1.425   .     S
C442   O537    1.304   .     A
C442   O538    1.299   .     A
C443   C453    1.430   .     S
C444   H478    1.109   .     S
C444   C464    1.529   .     S
C445   H473    1.111   .     S
C445   H474    1.111   .     S
C445   H475    1.104   .     S
C445   C308    1.532   1_655 S
C446   C447    1.526   .     S
C446   H482    1.096   .     S
C446   H347    1.105   1_655 S
C447   H480    1.110   .     S
C447   H481    1.110   .     S
C447   H479    1.109   .     S
C448   H488    1.111   .     S
C448   C449    1.525   .     S
C448   H489    1.092   .     S
C449   H484    1.110   .     S
C450   H494    1.094   .     S
C450   H493    1.100   .     S
C451   H492    1.109   .     S
C451   H491    1.103   .     S
C451   H490    1.111   .     S
C451   C314    1.532   1_655 S
C452   C454    1.532   .     S
C452   H500    1.109   .     S
C452   H499    1.074   .     S
C453   O528    1.311   .     A
C453   O540    1.300   .     A
C454   H497    1.104   .     S
C454   H496    1.111   .     S
C454   H495    1.111   .     S
C455   C456    1.526   .     S
C455   H504    1.096   .     S
C455   H505    1.105   .     S
C456   H503    1.110   .     S
C456   H502    1.111   .     S
C456   H501    1.109   .     S
C457   H510    1.111   .     S
C457   H511    1.092   .     S
C457   C458    1.525   .     S
C458   H507    1.100   .     S
C458   H506    1.110   .     S
C458   H508    1.108   .     S
C459   H516    1.094   .     S
C459   C460    1.532   .     S
C459   H515    1.100   .     S
C460   H512    1.111   .     S
C460   H513    1.103   .     S
C460   H514    1.109   .     S
C461   O526    1.304   .     A
C461   O527    1.305   .     A
C462   O529    1.300   .     A
C462   O532    1.303   .     A
C463   O530    1.304   .     A
C463   O531    1.299   .     A
C464   C1500   1.449   1_554 S
C464   N522    1.384   .     S
H477   C308    1.074   1_655 S
H485   C313    1.100   1_655 S
H486   C313    1.109   1_655 S
N521   Zn541   2.060   .     S
N522   Zn542   2.060   .     S
N523   Zn543   2.060   .     S
N524   Zn544   2.060   .     S
O525   Zn541   1.997   .     S
O526   Zn544   1.997   .     S
O527   Zn543   2.011   .     S
O528   Zn272   2.011   1_565 S
O529   Zn272   1.995   1_565 S
O530   Zn543   1.995   .     S
O531   Zn544   1.983   .     S
O532   Zn271   1.983   1_565 S
O533   Zn406   1.997   1_655 S
O534   Zn405   2.011   1_655 S
O535   Zn542   2.011   .     S
O536   Zn406   1.995   1_655 S
O537   Zn541   1.995   .     S
O538   Zn542   1.983   .     S
O539   Zn405   1.983   1_655 S
O540   Zn271   1.997   1_565 S
C545   O661    1.300   .     A
C545   O671    1.311   .     A
C545   C574    1.430   .     S
C546   C582    1.517   .     S
C546   C1227   1.433   .     S
C546   N793    1.378   .     S
C547   C584    1.507   .     S
C547   C138    1.433   1_455 S
C547   N658    1.384   .     S
C548   N657    1.395   .     A
C548   C586    1.525   .     S
C548   C1144   1.449   .     S
C549   C588    1.529   .     S
C549   N660    1.384   .     A
C550   C591    1.517   .     S
C550   N931    1.378   .     A
C550   C1095   1.433   .     S
C551   C593    1.507   .     S
C551   N932    1.384   .     S
C552   C595    1.525   .     S
C552   C1093   1.449   .     S
C552   N659    1.395   .     S
C553   C564    1.373   .     A
C553   H601    1.080   .     S
C553   C572    1.395   .     A
C554   C571    1.394   .     A
C554   C565    1.371   .     A
C554   H612    1.076   .     S
C555   C562    1.373   .     A
C555   C571    1.395   .     A
C555   H623    1.084   .     S
C556   C573    1.425   .     S
C556   O670    1.305   .     A
C556   O669    1.304   .     A
C557   H634    1.083   .     S
C557   C572    1.393   .     A
C557   C563    1.371   .     A
C558   C574    1.403   .     A
C558   H645    1.084   .     S
C558   C569    1.375   .     A
C559   H653    1.079   .     S
C559   C570    1.364   .     A
C559   C573    1.394   .     A
C560   H654    1.082   .     S
C560   C573    1.396   .     A
C560   C566    1.375   .     A
C561   C574    1.392   .     A
C561   H655    1.071   .     S
C561   C568    1.364   .     A
C562   H656    1.080   .     S
C562   C576    1.395   .     A
C563   C575    1.394   .     A
C563   H602    1.076   .     S
C564   H603    1.084   .     S
C564   C575    1.395   .     A
C565   C576    1.393   .     A
C565   H604    1.083   .     S
C566   C579    1.403   .     A
C566   H605    1.084   .     S
C567   O675    1.303   .     A
C567   C572    1.413   .     S
C567   O672    1.300   .     A
C568   H606    1.079   .     S
C568   C577    1.394   .     A
C569   H607    1.082   .     S
C569   C577    1.396   .     A
C570   H608    1.071   .     S
C570   C579    1.392   .     A
C571   C578    1.415   .     S
C575   C599    1.415   .     S
C576   C598    1.413   .     S
C577   C597    1.425   .     S
C578   O673    1.304   .     A
C578   O674    1.299   .     A
C579   C589    1.430   .     S
C580   H614    1.109   .     S
C580   C600    1.529   .     S
C580   C717    1.532   1_455 S
C580   H749    1.074   1_455 S
C581   H609    1.111   .     S
C581   H610    1.111   .     S
C581   H611    1.104   .     S
C581   C716    1.532   .     S
C582   C583    1.526   .     S
C582   H618    1.096   .     S
C582   H755    1.105   .     S
C583   H616    1.110   .     S
C583   H617    1.110   .     S
C583   H615    1.109   .     S
C584   H624    1.111   .     S
C584   C585    1.525   .     S
C584   H625    1.092   .     S
C585   H620    1.110   .     S
C585   H757    1.100   1_455 S
C585   H758    1.109   1_455 S
C586   H630    1.094   .     S
C586   H629    1.100   .     S
C586   C723    1.532   1_455 S
C587   H628    1.109   .     S
C587   H627    1.103   .     S
C587   H626    1.111   .     S
C587   C722    1.532   .     S
C588   C590    1.532   .     S
C588   H636    1.109   .     S
C588   H635    1.074   .     S
C589   O664    1.311   .     A
C589   O676    1.300   .     A
C590   H633    1.104   .     S
C590   H632    1.111   .     S
C590   H631    1.111   .     S
C591   C592    1.526   .     S
C591   H640    1.096   .     S
C591   H641    1.105   .     S
C592   H639    1.110   .     S
C592   H638    1.111   .     S
C592   H637    1.109   .     S
C593   H646    1.111   .     S
C593   H647    1.092   .     S
C593   C594    1.525   .     S
C594   H643    1.100   .     S
C594   H642    1.110   .     S
C594   H644    1.108   .     S
C595   H652    1.094   .     S
C595   C596    1.532   .     S
C595   H651    1.100   .     S
C596   H648    1.111   .     S
C596   H649    1.103   .     S
C596   H650    1.109   .     S
C597   O662    1.304   .     A
C597   O663    1.305   .     A
C598   O665    1.300   .     A
C598   O668    1.303   .     A
C599   O666    1.304   .     A
C599   O667    1.299   .     A
C600   N658    1.384   .     S
H613   C716    1.074   .     S
H619   C718    1.105   1_455 S
H621   C721    1.100   .     S
H622   C721    1.109   .     S
N657   Zn677   2.060   .     S
N657   C682    1.378   1_455 S
N658   Zn678   2.060   .     S
N659   C822    1.378   1_545 A
N659   Zn679   2.060   .     S
N660   Zn680   2.060   .     S
N660   C823    1.384   1_545 S
O661   Zn677   1.997   .     S
O662   Zn680   1.997   .     S
O663   Zn679   2.011   .     S
O664   Zn952   2.011   .     S
O665   Zn952   1.995   .     S
O666   Zn679   1.995   .     S
O667   Zn680   1.983   .     S
O668   Zn951   1.983   .     S
O669   Zn814   1.997   .     S
O670   Zn813   2.011   .     S
O671   Zn678   2.011   .     S
O672   Zn814   1.995   .     S
O673   Zn677   1.995   .     S
O674   Zn678   1.983   .     S
O675   Zn813   1.983   .     S
O676   Zn951   1.997   .     S
Zn677  O811    1.983   1_455 S
Zn677  O806    2.011   1_455 S
Zn678  O805    1.997   1_455 S
Zn678  O808    1.995   1_455 S
Zn679  O940    1.983   1_545 S
Zn679  O948    1.997   1_545 S
Zn680  O937    1.995   1_545 S
Zn680  O936    2.011   1_545 S
C681   O797    1.300   .     A
C681   O807    1.311   .     A
C681   C710    1.430   .     S
C682   C718    1.517   .     S
C682   C1091   1.433   1_655 S
C682   N657    1.378   1_655 S
C683   C720    1.507   .     S
C683   N794    1.384   .     S
C684   N793    1.395   .     A
C684   C722    1.525   .     S
C684   C1280   1.449   .     S
C685   C724    1.529   .     S
C685   N796    1.384   .     A
C686   C727    1.517   .     S
C686   N1067   1.378   .     A
C686   C1231   1.433   .     S
C687   C729    1.507   .     S
C687   N1068   1.384   .     S
C688   C731    1.525   .     S
C688   C1229   1.449   .     S
C688   N795    1.395   .     S
C689   C700    1.373   .     A
C689   H737    1.080   .     S
C689   C708    1.395   .     A
C690   C707    1.394   .     A
C690   C701    1.371   .     A
C690   H748    1.076   .     S
C691   C698    1.373   .     A
C691   C707    1.395   .     A
C691   H759    1.084   .     S
C692   C709    1.425   .     S
C692   O806    1.305   .     A
C692   O805    1.304   .     A
C693   H770    1.083   .     S
C693   C708    1.393   .     A
C693   C699    1.371   .     A
C694   C710    1.403   .     A
C694   H781    1.084   .     S
C694   C705    1.375   .     A
C695   H789    1.079   .     S
C695   C706    1.364   .     A
C695   C709    1.394   .     A
C696   H790    1.082   .     S
C696   C709    1.396   .     A
C696   C702    1.375   .     A
C697   C710    1.392   .     A
C697   H791    1.071   .     S
C697   C704    1.364   .     A
C698   H792    1.080   .     S
C698   C712    1.395   .     A
C699   C711    1.394   .     A
C699   H738    1.076   .     S
C700   H739    1.084   .     S
C700   C711    1.395   .     A
C701   C712    1.393   .     A
C701   H740    1.083   .     S
C702   C715    1.403   .     A
C702   H741    1.084   .     S
C703   O811    1.303   .     A
C703   C708    1.413   .     S
C703   O808    1.300   .     A
C704   H742    1.079   .     S
C704   C713    1.394   .     A
C705   H743    1.082   .     S
C705   C713    1.396   .     A
C706   H744    1.071   .     S
C706   C715    1.392   .     A
C707   C714    1.415   .     S
C711   C735    1.415   .     S
C712   C734    1.413   .     S
C713   C733    1.425   .     S
C714   O809    1.304   .     A
C714   O810    1.299   .     A
C715   C725    1.430   .     S
C716   H750    1.109   .     S
C716   C736    1.529   .     S
C717   H745    1.111   .     S
C717   H746    1.111   .     S
C717   H747    1.104   .     S
C717   C580    1.532   1_655 S
C718   C719    1.526   .     S
C718   H754    1.096   .     S
C718   H619    1.105   1_655 S
C719   H752    1.110   .     S
C719   H753    1.110   .     S
C719   H751    1.109   .     S
C720   H760    1.111   .     S
C720   C721    1.525   .     S
C720   H761    1.092   .     S
C721   H756    1.110   .     S
C722   H766    1.094   .     S
C722   H765    1.100   .     S
C723   H764    1.109   .     S
C723   H763    1.103   .     S
C723   H762    1.111   .     S
C723   C586    1.532   1_655 S
C724   C726    1.532   .     S
C724   H772    1.109   .     S
C724   H771    1.074   .     S
C725   O800    1.311   .     A
C725   O812    1.300   .     A
C726   H769    1.104   .     S
C726   H768    1.111   .     S
C726   H767    1.111   .     S
C727   C728    1.526   .     S
C727   H776    1.096   .     S
C727   H777    1.105   .     S
C728   H775    1.110   .     S
C728   H774    1.111   .     S
C728   H773    1.109   .     S
C729   H782    1.111   .     S
C729   H783    1.092   .     S
C729   C730    1.525   .     S
C730   H779    1.100   .     S
C730   H778    1.110   .     S
C730   H780    1.108   .     S
C731   H788    1.094   .     S
C731   C732    1.532   .     S
C731   H787    1.100   .     S
C732   H784    1.111   .     S
C732   H785    1.103   .     S
C732   H786    1.109   .     S
C733   O798    1.304   .     A
C733   O799    1.305   .     A
C734   O801    1.300   .     A
C734   O804    1.303   .     A
C735   O802    1.304   .     A
C735   O803    1.299   .     A
C736   N794    1.384   .     S
H749   C580    1.074   1_655 S
H757   C585    1.100   1_655 S
H758   C585    1.109   1_655 S
N793   Zn813   2.060   .     S
N794   Zn814   2.060   .     S
N795   C958    1.378   1_545 A
N795   Zn815   2.060   .     S
N796   Zn816   2.060   .     S
N796   C959    1.384   1_545 S
O797   Zn813   1.997   .     S
O798   Zn816   1.997   .     S
O799   Zn815   2.011   .     S
O800   Zn1088  2.011   .     S
O801   Zn1088  1.995   .     S
O802   Zn815   1.995   .     S
O803   Zn816   1.983   .     S
O804   Zn1087  1.983   .     S
O805   Zn678   1.997   1_655 S
O806   Zn677   2.011   1_655 S
O807   Zn814   2.011   .     S
O808   Zn678   1.995   1_655 S
O809   Zn813   1.995   .     S
O810   Zn814   1.983   .     S
O811   Zn677   1.983   1_655 S
O812   Zn1087  1.997   .     S
Zn815  O1076   1.983   1_545 S
Zn815  O1084   1.997   1_545 S
Zn816  O1073   1.995   1_545 S
Zn816  O1072   2.011   1_545 S
C817   O933    1.300   .     A
C817   O943    1.311   .     A
C817   C846    1.430   .     S
C818   C854    1.517   .     S
C818   C1499   1.433   .     S
C818   N1065   1.378   .     S
C819   C856    1.507   .     S
C819   C410    1.433   1_455 S
C819   N930    1.384   .     S
C820   N929    1.395   .     A
C820   C858    1.525   .     S
C820   C1416   1.449   .     S
C821   C860    1.529   .     S
C821   N932    1.384   .     A
C822   C863    1.517   .     S
C822   N659    1.378   1_565 A
C822   C1367   1.433   .     S
C823   C865    1.507   .     S
C823   N660    1.384   1_565 S
C824   C867    1.525   .     S
C824   C1365   1.449   .     S
C824   N931    1.395   .     S
C825   C836    1.373   .     A
C825   H873    1.080   .     S
C825   C844    1.395   .     A
C826   C843    1.394   .     A
C826   C837    1.371   .     A
C826   H884    1.076   .     S
C827   C834    1.373   .     A
C827   C843    1.395   .     A
C827   H895    1.084   .     S
C828   C845    1.425   .     S
C828   O942    1.305   .     A
C828   O941    1.304   .     A
C829   H906    1.083   .     S
C829   C844    1.393   .     A
C829   C835    1.371   .     A
C830   C846    1.403   .     A
C830   H917    1.084   .     S
C830   C841    1.375   .     A
C831   H925    1.079   .     S
C831   C842    1.364   .     A
C831   C845    1.394   .     A
C832   H926    1.082   .     S
C832   C845    1.396   .     A
C832   C838    1.375   .     A
C833   C846    1.392   .     A
C833   H927    1.071   .     S
C833   C840    1.364   .     A
C834   H928    1.080   .     S
C834   C848    1.395   .     A
C835   C847    1.394   .     A
C835   H874    1.076   .     S
C836   H875    1.084   .     S
C836   C847    1.395   .     A
C837   C848    1.393   .     A
C837   H876    1.083   .     S
C838   C851    1.403   .     A
C838   H877    1.084   .     S
C839   O947    1.303   .     A
C839   C844    1.413   .     S
C839   O944    1.300   .     A
C840   H878    1.079   .     S
C840   C849    1.394   .     A
C841   H879    1.082   .     S
C841   C849    1.396   .     A
C842   H880    1.071   .     S
C842   C851    1.392   .     A
C843   C850    1.415   .     S
C847   C871    1.415   .     S
C848   C870    1.413   .     S
C849   C869    1.425   .     S
C850   O945    1.304   .     A
C850   O946    1.299   .     A
C851   C861    1.430   .     S
C852   H886    1.109   .     S
C852   C872    1.529   .     S
C852   C989    1.532   1_455 S
C852   H1021   1.074   1_455 S
C853   H881    1.111   .     S
C853   H882    1.111   .     S
C853   H883    1.104   .     S
C853   C988    1.532   .     S
C854   C855    1.526   .     S
C854   H890    1.096   .     S
C854   H1027   1.105   .     S
C855   H888    1.110   .     S
C855   H889    1.110   .     S
C855   H887    1.109   .     S
C856   H896    1.111   .     S
C856   C857    1.525   .     S
C856   H897    1.092   .     S
C857   H892    1.110   .     S
C857   H1029   1.100   1_455 S
C857   H1030   1.109   1_455 S
C858   H902    1.094   .     S
C858   H901    1.100   .     S
C858   C995    1.532   1_455 S
C859   H900    1.109   .     S
C859   H899    1.103   .     S
C859   H898    1.111   .     S
C859   C994    1.532   .     S
C860   C862    1.532   .     S
C860   H908    1.109   .     S
C860   H907    1.074   .     S
C861   O936    1.311   .     A
C861   O948    1.300   .     A
C862   H905    1.104   .     S
C862   H904    1.111   .     S
C862   H903    1.111   .     S
C863   C864    1.526   .     S
C863   H912    1.096   .     S
C863   H913    1.105   .     S
C864   H911    1.110   .     S
C864   H910    1.111   .     S
C864   H909    1.109   .     S
C865   H918    1.111   .     S
C865   H919    1.092   .     S
C865   C866    1.525   .     S
C866   H915    1.100   .     S
C866   H914    1.110   .     S
C866   H916    1.108   .     S
C867   H924    1.094   .     S
C867   C868    1.532   .     S
C867   H923    1.100   .     S
C868   H920    1.111   .     S
C868   H921    1.103   .     S
C868   H922    1.109   .     S
C869   O934    1.304   .     A
C869   O935    1.305   .     A
C870   O937    1.300   .     A
C870   O940    1.303   .     A
C871   O938    1.304   .     A
C871   O939    1.299   .     A
C872   N930    1.384   .     S
H885   C988    1.074   .     S
H891   C990    1.105   1_455 S
H893   C993    1.100   .     S
H894   C993    1.109   .     S
N929   Zn949   2.060   .     S
N929   C954    1.378   1_455 S
N930   Zn950   2.060   .     S
N931   Zn951   2.060   .     S
N932   Zn952   2.060   .     S
O933   Zn949   1.997   .     S
O934   Zn952   1.997   .     S
O935   Zn951   2.011   .     S
O936   Zn680   2.011   1_565 S
O937   Zn680   1.995   1_565 S
O938   Zn951   1.995   .     S
O939   Zn952   1.983   .     S
O940   Zn679   1.983   1_565 S
O941   Zn1086  1.997   .     S
O942   Zn1085  2.011   .     S
O943   Zn950   2.011   .     S
O944   Zn1086  1.995   .     S
O945   Zn949   1.995   .     S
O946   Zn950   1.983   .     S
O947   Zn1085  1.983   .     S
O948   Zn679   1.997   1_565 S
Zn949  O1083   1.983   1_455 S
Zn949  O1078   2.011   1_455 S
Zn950  O1077   1.997   1_455 S
Zn950  O1080   1.995   1_455 S
C953   O1069   1.300   .     A
C953   O1079   1.311   .     A
C953   C982    1.430   .     S
C954   C990    1.517   .     S
C954   C1363   1.433   1_655 S
C954   N929    1.378   1_655 S
C955   C992    1.507   .     S
C955   N1066   1.384   .     S
C956   N1065   1.395   .     A
C956   C994    1.525   .     S
C956   C1552   1.449   .     S
C957   C996    1.529   .     S
C957   N1068   1.384   .     A
C958   C999    1.517   .     S
C958   N795    1.378   1_565 A
C958   C1503   1.433   .     S
C959   C1001   1.507   .     S
C959   N796    1.384   1_565 S
C960   C1003   1.525   .     S
C960   C1501   1.449   .     S
C960   N1067   1.395   .     S
C961   C972    1.373   .     A
C961   H1009   1.080   .     S
C961   C980    1.395   .     A
C962   C979    1.394   .     A
C962   C973    1.371   .     A
C962   H1020   1.076   .     S
C963   C970    1.373   .     A
C963   C979    1.395   .     A
C963   H1031   1.084   .     S
C964   C981    1.425   .     S
C964   O1078   1.305   .     A
C964   O1077   1.304   .     A
C965   H1042   1.083   .     S
C965   C980    1.393   .     A
C965   C971    1.371   .     A
C966   C982    1.403   .     A
C966   H1053   1.084   .     S
C966   C977    1.375   .     A
C967   H1061   1.079   .     S
C967   C978    1.364   .     A
C967   C981    1.394   .     A
C968   H1062   1.082   .     S
C968   C981    1.396   .     A
C968   C974    1.375   .     A
C969   C982    1.392   .     A
C969   H1063   1.071   .     S
C969   C976    1.364   .     A
C970   H1064   1.080   .     S
C970   C984    1.395   .     A
C971   C983    1.394   .     A
C971   H1010   1.076   .     S
C972   H1011   1.084   .     S
C972   C983    1.395   .     A
C973   C984    1.393   .     A
C973   H1012   1.083   .     S
C974   C987    1.403   .     A
C974   H1013   1.084   .     S
C975   O1083   1.303   .     A
C975   C980    1.413   .     S
C975   O1080   1.300   .     A
C976   H1014   1.079   .     S
C976   C985    1.394   .     A
C977   H1015   1.082   .     S
C977   C985    1.396   .     A
C978   H1016   1.071   .     S
C978   C987    1.392   .     A
C979   C986    1.415   .     S
C983   C1007   1.415   .     S
C984   C1006   1.413   .     S
C985   C1005   1.425   .     S
C986   O1081   1.304   .     A
C986   O1082   1.299   .     A
C987   C997    1.430   .     S
C988   H1022   1.109   .     S
C988   C1008   1.529   .     S
C989   H1017   1.111   .     S
C989   H1018   1.111   .     S
C989   H1019   1.104   .     S
C989   C852    1.532   1_655 S
C990   C991    1.526   .     S
C990   H1026   1.096   .     S
C990   H891    1.105   1_655 S
C991   H1024   1.110   .     S
C991   H1025   1.110   .     S
C991   H1023   1.109   .     S
C992   H1032   1.111   .     S
C992   C993    1.525   .     S
C992   H1033   1.092   .     S
C993   H1028   1.110   .     S
C994   H1038   1.094   .     S
C994   H1037   1.100   .     S
C995   H1036   1.109   .     S
C995   H1035   1.103   .     S
C995   H1034   1.111   .     S
C995   C858    1.532   1_655 S
C996   C998    1.532   .     S
C996   H1044   1.109   .     S
C996   H1043   1.074   .     S
C997   O1072   1.311   .     A
C997   O1084   1.300   .     A
C998   H1041   1.104   .     S
C998   H1040   1.111   .     S
C998   H1039   1.111   .     S
C999   C1000   1.526   .     S
C999   H1048   1.096   .     S
C999   H1049   1.105   .     S
C1000  H1047   1.110   .     S
C1000  H1046   1.111   .     S
C1000  H1045   1.109   .     S
C1001  H1054   1.111   .     S
C1001  H1055   1.092   .     S
C1001  C1002   1.525   .     S
C1002  H1051   1.100   .     S
C1002  H1050   1.110   .     S
C1002  H1052   1.108   .     S
C1003  H1060   1.094   .     S
C1003  C1004   1.532   .     S
C1003  H1059   1.100   .     S
C1004  H1056   1.111   .     S
C1004  H1057   1.103   .     S
C1004  H1058   1.109   .     S
C1005  O1070   1.304   .     A
C1005  O1071   1.305   .     A
C1006  O1073   1.300   .     A
C1006  O1076   1.303   .     A
C1007  O1074   1.304   .     A
C1007  O1075   1.299   .     A
C1008  N1066   1.384   .     S
H1021  C852    1.074   1_655 S
H1029  C857    1.100   1_655 S
H1030  C857    1.109   1_655 S
N1065  Zn1085  2.060   .     S
N1066  Zn1086  2.060   .     S
N1067  Zn1087  2.060   .     S
N1068  Zn1088  2.060   .     S
O1069  Zn1085  1.997   .     S
O1070  Zn1088  1.997   .     S
O1071  Zn1087  2.011   .     S
O1072  Zn816   2.011   1_565 S
O1073  Zn816   1.995   1_565 S
O1074  Zn1087  1.995   .     S
O1075  Zn1088  1.983   .     S
O1076  Zn815   1.983   1_565 S
O1077  Zn950   1.997   1_655 S
O1078  Zn949   2.011   1_655 S
O1079  Zn1086  2.011   .     S
O1080  Zn950   1.995   1_655 S
O1081  Zn1085  1.995   .     S
O1082  Zn1086  1.983   .     S
O1083  Zn949   1.983   1_655 S
O1084  Zn815   1.997   1_565 S
C1089  O1205   1.300   .     A
C1089  O1215   1.311   .     A
C1089  C1118   1.430   .     S
C1090  C1126   1.517   .     S
C1090  C139    1.433   1_556 S
C1090  N1337   1.378   .     S
C1091  C1128   1.507   .     S
C1091  C682    1.433   1_455 S
C1091  N1202   1.384   .     S
C1092  N1201   1.395   .     A
C1092  C1130   1.525   .     S
C1092  C56     1.449   1_556 S
C1093  C1132   1.529   .     S
C1093  N1204   1.384   .     A
C1094  C1135   1.517   .     S
C1094  N1475   1.378   .     A
C1094  C7      1.433   1_556 S
C1095  C1137   1.507   .     S
C1095  N1476   1.384   .     S
C1096  C1139   1.525   .     S
C1096  C5      1.449   1_556 S
C1096  N1203   1.395   .     S
C1097  C1108   1.373   .     A
C1097  H1145   1.080   .     S
C1097  C1116   1.395   .     A
C1098  C1115   1.394   .     A
C1098  C1109   1.371   .     A
C1098  H1156   1.076   .     S
C1099  C1106   1.373   .     A
C1099  C1115   1.395   .     A
C1099  H1167   1.084   .     S
C1100  C1117   1.425   .     S
C1100  O1214   1.305   .     A
C1100  O1213   1.304   .     A
C1101  H1178   1.083   .     S
C1101  C1116   1.393   .     A
C1101  C1107   1.371   .     A
C1102  C1118   1.403   .     A
C1102  H1189   1.084   .     S
C1102  C1113   1.375   .     A
C1103  H1197   1.079   .     S
C1103  C1114   1.364   .     A
C1103  C1117   1.394   .     A
C1104  H1198   1.082   .     S
C1104  C1117   1.396   .     A
C1104  C1110   1.375   .     A
C1105  C1118   1.392   .     A
C1105  H1199   1.071   .     S
C1105  C1112   1.364   .     A
C1106  H1200   1.080   .     S
C1106  C1120   1.395   .     A
C1107  C1119   1.394   .     A
C1107  H1146   1.076   .     S
C1108  H1147   1.084   .     S
C1108  C1119   1.395   .     A
C1109  C1120   1.393   .     A
C1109  H1148   1.083   .     S
C1110  C1123   1.403   .     A
C1110  H1149   1.084   .     S
C1111  O1219   1.303   .     A
C1111  C1116   1.413   .     S
C1111  O1216   1.300   .     A
C1112  H1150   1.079   .     S
C1112  C1121   1.394   .     A
C1113  H1151   1.082   .     S
C1113  C1121   1.396   .     A
C1114  H1152   1.071   .     S
C1114  C1123   1.392   .     A
C1115  C1122   1.415   .     S
C1119  C1143   1.415   .     S
C1120  C1142   1.413   .     S
C1121  C1141   1.425   .     S
C1122  O1217   1.304   .     A
C1122  O1218   1.299   .     A
C1123  C1133   1.430   .     S
C1124  H1158   1.109   .     S
C1124  C1144   1.529   .     S
C1124  C1261   1.532   1_455 S
C1124  H1293   1.074   1_455 S
C1125  H1153   1.111   .     S
C1125  H1154   1.111   .     S
C1125  H1155   1.104   .     S
C1125  C1260   1.532   .     S
C1126  C1127   1.526   .     S
C1126  H1162   1.096   .     S
C1126  H1299   1.105   .     S
C1127  H1160   1.110   .     S
C1127  H1161   1.110   .     S
C1127  H1159   1.109   .     S
C1128  H1168   1.111   .     S
C1128  C1129   1.525   .     S
C1128  H1169   1.092   .     S
C1129  H1164   1.110   .     S
C1129  H1301   1.100   1_455 S
C1129  H1302   1.109   1_455 S
C1130  H1174   1.094   .     S
C1130  H1173   1.100   .     S
C1130  C1267   1.532   1_455 S
C1131  H1172   1.109   .     S
C1131  H1171   1.103   .     S
C1131  H1170   1.111   .     S
C1131  C1266   1.532   .     S
C1132  C1134   1.532   .     S
C1132  H1180   1.109   .     S
C1132  H1179   1.074   .     S
C1133  O1208   1.311   .     A
C1133  O1220   1.300   .     A
C1134  H1177   1.104   .     S
C1134  H1176   1.111   .     S
C1134  H1175   1.111   .     S
C1135  C1136   1.526   .     S
C1135  H1184   1.096   .     S
C1135  H1185   1.105   .     S
C1136  H1183   1.110   .     S
C1136  H1182   1.111   .     S
C1136  H1181   1.109   .     S
C1137  H1190   1.111   .     S
C1137  H1191   1.092   .     S
C1137  C1138   1.525   .     S
C1138  H1187   1.100   .     S
C1138  H1186   1.110   .     S
C1138  H1188   1.108   .     S
C1139  H1196   1.094   .     S
C1139  C1140   1.532   .     S
C1139  H1195   1.100   .     S
C1140  H1192   1.111   .     S
C1140  H1193   1.103   .     S
C1140  H1194   1.109   .     S
C1141  O1206   1.304   .     A
C1141  O1207   1.305   .     A
C1142  O1209   1.300   .     A
C1142  O1212   1.303   .     A
C1143  O1210   1.304   .     A
C1143  O1211   1.299   .     A
C1144  N1202   1.384   .     S
H1157  C1260   1.074   .     S
H1163  C1262   1.105   1_455 S
H1165  C1265   1.100   .     S
H1166  C1265   1.109   .     S
N1201  Zn1221  2.060   .     S
N1201  C1226   1.378   1_455 S
N1202  Zn1222  2.060   .     S
N1203  C1366   1.378   1_545 A
N1203  Zn1223  2.060   .     S
N1204  Zn1224  2.060   .     S
N1204  C1367   1.384   1_545 S
O1205  Zn1221  1.997   .     S
O1206  Zn1224  1.997   .     S
O1207  Zn1223  2.011   .     S
O1208  Zn1496  2.011   .     S
O1209  Zn1496  1.995   .     S
O1210  Zn1223  1.995   .     S
O1211  Zn1224  1.983   .     S
O1212  Zn1495  1.983   .     S
O1213  Zn1358  1.997   .     S
O1214  Zn1357  2.011   .     S
O1215  Zn1222  2.011   .     S
O1216  Zn1358  1.995   .     S
O1217  Zn1221  1.995   .     S
O1218  Zn1222  1.983   .     S
O1219  Zn1357  1.983   .     S
O1220  Zn1495  1.997   .     S
Zn1221 O1355   1.983   1_455 S
Zn1221 O1350   2.011   1_455 S
Zn1222 O1349   1.997   1_455 S
Zn1222 O1352   1.995   1_455 S
Zn1223 O1484   1.983   1_545 S
Zn1223 O1492   1.997   1_545 S
Zn1224 O1481   1.995   1_545 S
Zn1224 O1480   2.011   1_545 S
C1225  O1341   1.300   .     A
C1225  O1351   1.311   .     A
C1225  C1254   1.430   .     S
C1226  C1262   1.517   .     S
C1226  C3      1.433   1_656 S
C1226  N1201   1.378   1_655 S
C1227  C1264   1.507   .     S
C1227  N1338   1.384   .     S
C1228  N1337   1.395   .     A
C1228  C1266   1.525   .     S
C1228  C192    1.449   1_556 S
C1229  C1268   1.529   .     S
C1229  N1340   1.384   .     A
C1230  C1271   1.517   .     S
C1230  N1611   1.378   .     A
C1230  C143    1.433   1_556 S
C1231  C1273   1.507   .     S
C1231  N1612   1.384   .     S
C1232  C1275   1.525   .     S
C1232  C141    1.449   1_556 S
C1232  N1339   1.395   .     S
C1233  C1244   1.373   .     A
C1233  H1281   1.080   .     S
C1233  C1252   1.395   .     A
C1234  C1251   1.394   .     A
C1234  C1245   1.371   .     A
C1234  H1292   1.076   .     S
C1235  C1242   1.373   .     A
C1235  C1251   1.395   .     A
C1235  H1303   1.084   .     S
C1236  C1253   1.425   .     S
C1236  O1350   1.305   .     A
C1236  O1349   1.304   .     A
C1237  H1314   1.083   .     S
C1237  C1252   1.393   .     A
C1237  C1243   1.371   .     A
C1238  C1254   1.403   .     A
C1238  H1325   1.084   .     S
C1238  C1249   1.375   .     A
C1239  H1333   1.079   .     S
C1239  C1250   1.364   .     A
C1239  C1253   1.394   .     A
C1240  H1334   1.082   .     S
C1240  C1253   1.396   .     A
C1240  C1246   1.375   .     A
C1241  C1254   1.392   .     A
C1241  H1335   1.071   .     S
C1241  C1248   1.364   .     A
C1242  H1336   1.080   .     S
C1242  C1256   1.395   .     A
C1243  C1255   1.394   .     A
C1243  H1282   1.076   .     S
C1244  H1283   1.084   .     S
C1244  C1255   1.395   .     A
C1245  C1256   1.393   .     A
C1245  H1284   1.083   .     S
C1246  C1259   1.403   .     A
C1246  H1285   1.084   .     S
C1247  O1355   1.303   .     A
C1247  C1252   1.413   .     S
C1247  O1352   1.300   .     A
C1248  H1286   1.079   .     S
C1248  C1257   1.394   .     A
C1249  H1287   1.082   .     S
C1249  C1257   1.396   .     A
C1250  H1288   1.071   .     S
C1250  C1259   1.392   .     A
C1251  C1258   1.415   .     S
C1255  C1279   1.415   .     S
C1256  C1278   1.413   .     S
C1257  C1277   1.425   .     S
C1258  O1353   1.304   .     A
C1258  O1354   1.299   .     A
C1259  C1269   1.430   .     S
C1260  H1294   1.109   .     S
C1260  C1280   1.529   .     S
C1261  H1289   1.111   .     S
C1261  H1290   1.111   .     S
C1261  H1291   1.104   .     S
C1261  C1124   1.532   1_655 S
C1262  C1263   1.526   .     S
C1262  H1298   1.096   .     S
C1262  H1163   1.105   1_655 S
C1263  H1296   1.110   .     S
C1263  H1297   1.110   .     S
C1263  H1295   1.109   .     S
C1264  H1304   1.111   .     S
C1264  C1265   1.525   .     S
C1264  H1305   1.092   .     S
C1265  H1300   1.110   .     S
C1266  H1310   1.094   .     S
C1266  H1309   1.100   .     S
C1267  H1308   1.109   .     S
C1267  H1307   1.103   .     S
C1267  H1306   1.111   .     S
C1267  C1130   1.532   1_655 S
C1268  C1270   1.532   .     S
C1268  H1316   1.109   .     S
C1268  H1315   1.074   .     S
C1269  O1344   1.311   .     A
C1269  O1356   1.300   .     A
C1270  H1313   1.104   .     S
C1270  H1312   1.111   .     S
C1270  H1311   1.111   .     S
C1271  C1272   1.526   .     S
C1271  H1320   1.096   .     S
C1271  H1321   1.105   .     S
C1272  H1319   1.110   .     S
C1272  H1318   1.111   .     S
C1272  H1317   1.109   .     S
C1273  H1326   1.111   .     S
C1273  H1327   1.092   .     S
C1273  C1274   1.525   .     S
C1274  H1323   1.100   .     S
C1274  H1322   1.110   .     S
C1274  H1324   1.108   .     S
C1275  H1332   1.094   .     S
C1275  C1276   1.532   .     S
C1275  H1331   1.100   .     S
C1276  H1328   1.111   .     S
C1276  H1329   1.103   .     S
C1276  H1330   1.109   .     S
C1277  O1342   1.304   .     A
C1277  O1343   1.305   .     A
C1278  O1345   1.300   .     A
C1278  O1348   1.303   .     A
C1279  O1346   1.304   .     A
C1279  O1347   1.299   .     A
C1280  N1338   1.384   .     S
H1293  C1124   1.074   1_655 S
H1301  C1129   1.100   1_655 S
H1302  C1129   1.109   1_655 S
N1337  Zn1357  2.060   .     S
N1338  Zn1358  2.060   .     S
N1339  C1502   1.378   1_545 A
N1339  Zn1359  2.060   .     S
N1340  Zn1360  2.060   .     S
N1340  C1503   1.384   1_545 S
O1341  Zn1357  1.997   .     S
O1342  Zn1360  1.997   .     S
O1343  Zn1359  2.011   .     S
O1344  Zn1632  2.011   .     S
O1345  Zn1632  1.995   .     S
O1346  Zn1359  1.995   .     S
O1347  Zn1360  1.983   .     S
O1348  Zn1631  1.983   .     S
O1349  Zn1222  1.997   1_655 S
O1350  Zn1221  2.011   1_655 S
O1351  Zn1358  2.011   .     S
O1352  Zn1222  1.995   1_655 S
O1353  Zn1357  1.995   .     S
O1354  Zn1358  1.983   .     S
O1355  Zn1221  1.983   1_655 S
O1356  Zn1631  1.997   .     S
Zn1359 O1620   1.983   1_545 S
Zn1359 O1628   1.997   1_545 S
Zn1360 O1617   1.995   1_545 S
Zn1360 O1616   2.011   1_545 S
C1361  O1477   1.300   .     A
C1361  O1487   1.311   .     A
C1361  C1390   1.430   .     S
C1362  C1398   1.517   .     S
C1362  C411    1.433   1_556 S
C1362  N1609   1.378   .     S
C1363  C1400   1.507   .     S
C1363  C954    1.433   1_455 S
C1363  N1474   1.384   .     S
C1364  N1473   1.395   .     A
C1364  C1402   1.525   .     S
C1364  C328    1.449   1_556 S
C1365  C1404   1.529   .     S
C1365  N1476   1.384   .     A
C1366  C1407   1.517   .     S
C1366  N1203   1.378   1_565 A
C1366  C279    1.433   1_556 S
C1367  C1409   1.507   .     S
C1367  N1204   1.384   1_565 S
C1368  C1411   1.525   .     S
C1368  C277    1.449   1_556 S
C1368  N1475   1.395   .     S
C1369  C1380   1.373   .     A
C1369  H1417   1.080   .     S
C1369  C1388   1.395   .     A
C1370  C1387   1.394   .     A
C1370  C1381   1.371   .     A
C1370  H1428   1.076   .     S
C1371  C1378   1.373   .     A
C1371  C1387   1.395   .     A
C1371  H1439   1.084   .     S
C1372  C1389   1.425   .     S
C1372  O1486   1.305   .     A
C1372  O1485   1.304   .     A
C1373  H1450   1.083   .     S
C1373  C1388   1.393   .     A
C1373  C1379   1.371   .     A
C1374  C1390   1.403   .     A
C1374  H1461   1.084   .     S
C1374  C1385   1.375   .     A
C1375  H1469   1.079   .     S
C1375  C1386   1.364   .     A
C1375  C1389   1.394   .     A
C1376  H1470   1.082   .     S
C1376  C1389   1.396   .     A
C1376  C1382   1.375   .     A
C1377  C1390   1.392   .     A
C1377  H1471   1.071   .     S
C1377  C1384   1.364   .     A
C1378  H1472   1.080   .     S
C1378  C1392   1.395   .     A
C1379  C1391   1.394   .     A
C1379  H1418   1.076   .     S
C1380  H1419   1.084   .     S
C1380  C1391   1.395   .     A
C1381  C1392   1.393   .     A
C1381  H1420   1.083   .     S
C1382  C1395   1.403   .     A
C1382  H1421   1.084   .     S
C1383  O1491   1.303   .     A
C1383  C1388   1.413   .     S
C1383  O1488   1.300   .     A
C1384  H1422   1.079   .     S
C1384  C1393   1.394   .     A
C1385  H1423   1.082   .     S
C1385  C1393   1.396   .     A
C1386  H1424   1.071   .     S
C1386  C1395   1.392   .     A
C1387  C1394   1.415   .     S
C1391  C1415   1.415   .     S
C1392  C1414   1.413   .     S
C1393  C1413   1.425   .     S
C1394  O1489   1.304   .     A
C1394  O1490   1.299   .     A
C1395  C1405   1.430   .     S
C1396  H1430   1.109   .     S
C1396  C1416   1.529   .     S
C1396  C1533   1.532   1_455 S
C1396  H1565   1.074   1_455 S
C1397  H1425   1.111   .     S
C1397  H1426   1.111   .     S
C1397  H1427   1.104   .     S
C1397  C1532   1.532   .     S
C1398  C1399   1.526   .     S
C1398  H1434   1.096   .     S
C1398  H1571   1.105   .     S
C1399  H1432   1.110   .     S
C1399  H1433   1.110   .     S
C1399  H1431   1.109   .     S
C1400  H1440   1.111   .     S
C1400  C1401   1.525   .     S
C1400  H1441   1.092   .     S
C1401  H1436   1.110   .     S
C1401  H1573   1.100   1_455 S
C1401  H1574   1.109   1_455 S
C1402  H1446   1.094   .     S
C1402  H1445   1.100   .     S
C1402  C1539   1.532   1_455 S
C1403  H1444   1.109   .     S
C1403  H1443   1.103   .     S
C1403  H1442   1.111   .     S
C1403  C1538   1.532   .     S
C1404  C1406   1.532   .     S
C1404  H1452   1.109   .     S
C1404  H1451   1.074   .     S
C1405  O1480   1.311   .     A
C1405  O1492   1.300   .     A
C1406  H1449   1.104   .     S
C1406  H1448   1.111   .     S
C1406  H1447   1.111   .     S
C1407  C1408   1.526   .     S
C1407  H1456   1.096   .     S
C1407  H1457   1.105   .     S
C1408  H1455   1.110   .     S
C1408  H1454   1.111   .     S
C1408  H1453   1.109   .     S
C1409  H1462   1.111   .     S
C1409  H1463   1.092   .     S
C1409  C1410   1.525   .     S
C1410  H1459   1.100   .     S
C1410  H1458   1.110   .     S
C1410  H1460   1.108   .     S
C1411  H1468   1.094   .     S
C1411  C1412   1.532   .     S
C1411  H1467   1.100   .     S
C1412  H1464   1.111   .     S
C1412  H1465   1.103   .     S
C1412  H1466   1.109   .     S
C1413  O1478   1.304   .     A
C1413  O1479   1.305   .     A
C1414  O1481   1.300   .     A
C1414  O1484   1.303   .     A
C1415  O1482   1.304   .     A
C1415  O1483   1.299   .     A
C1416  N1474   1.384   .     S
H1429  C1532   1.074   .     S
H1435  C1534   1.105   1_455 S
H1437  C1537   1.100   .     S
H1438  C1537   1.109   .     S
N1473  Zn1493  2.060   .     S
N1473  C1498   1.378   1_455 S
N1474  Zn1494  2.060   .     S
N1475  Zn1495  2.060   .     S
N1476  Zn1496  2.060   .     S
O1477  Zn1493  1.997   .     S
O1478  Zn1496  1.997   .     S
O1479  Zn1495  2.011   .     S
O1480  Zn1224  2.011   1_565 S
O1481  Zn1224  1.995   1_565 S
O1482  Zn1495  1.995   .     S
O1483  Zn1496  1.983   .     S
O1484  Zn1223  1.983   1_565 S
O1485  Zn1630  1.997   .     S
O1486  Zn1629  2.011   .     S
O1487  Zn1494  2.011   .     S
O1488  Zn1630  1.995   .     S
O1489  Zn1493  1.995   .     S
O1490  Zn1494  1.983   .     S
O1491  Zn1629  1.983   .     S
O1492  Zn1223  1.997   1_565 S
Zn1493 O1627   1.983   1_455 S
Zn1493 O1622   2.011   1_455 S
Zn1494 O1621   1.997   1_455 S
Zn1494 O1624   1.995   1_455 S
C1497  O1613   1.300   .     A
C1497  O1623   1.311   .     A
C1497  C1526   1.430   .     S
C1498  C1534   1.517   .     S
C1498  C275    1.433   1_656 S
C1498  N1473   1.378   1_655 S
C1499  C1536   1.507   .     S
C1499  N1610   1.384   .     S
C1500  N1609   1.395   .     A
C1500  C1538   1.525   .     S
C1500  C464    1.449   1_556 S
C1501  C1540   1.529   .     S
C1501  N1612   1.384   .     A
C1502  C1543   1.517   .     S
C1502  N1339   1.378   1_565 A
C1502  C415    1.433   1_556 S
C1503  C1545   1.507   .     S
C1503  N1340   1.384   1_565 S
C1504  C1547   1.525   .     S
C1504  C413    1.449   1_556 S
C1504  N1611   1.395   .     S
C1505  C1516   1.373   .     A
C1505  H1553   1.080   .     S
C1505  C1524   1.395   .     A
C1506  C1523   1.394   .     A
C1506  C1517   1.371   .     A
C1506  H1564   1.076   .     S
C1507  C1514   1.373   .     A
C1507  C1523   1.395   .     A
C1507  H1575   1.084   .     S
C1508  C1525   1.425   .     S
C1508  O1622   1.305   .     A
C1508  O1621   1.304   .     A
C1509  H1586   1.083   .     S
C1509  C1524   1.393   .     A
C1509  C1515   1.371   .     A
C1510  C1526   1.403   .     A
C1510  H1597   1.084   .     S
C1510  C1521   1.375   .     A
C1511  H1605   1.079   .     S
C1511  C1522   1.364   .     A
C1511  C1525   1.394   .     A
C1512  H1606   1.082   .     S
C1512  C1525   1.396   .     A
C1512  C1518   1.375   .     A
C1513  C1526   1.392   .     A
C1513  H1607   1.071   .     S
C1513  C1520   1.364   .     A
C1514  H1608   1.080   .     S
C1514  C1528   1.395   .     A
C1515  C1527   1.394   .     A
C1515  H1554   1.076   .     S
C1516  H1555   1.084   .     S
C1516  C1527   1.395   .     A
C1517  C1528   1.393   .     A
C1517  H1556   1.083   .     S
C1518  C1531   1.403   .     A
C1518  H1557   1.084   .     S
C1519  O1627   1.303   .     A
C1519  C1524   1.413   .     S
C1519  O1624   1.300   .     A
C1520  H1558   1.079   .     S
C1520  C1529   1.394   .     A
C1521  H1559   1.082   .     S
C1521  C1529   1.396   .     A
C1522  H1560   1.071   .     S
C1522  C1531   1.392   .     A
C1523  C1530   1.415   .     S
C1527  C1551   1.415   .     S
C1528  C1550   1.413   .     S
C1529  C1549   1.425   .     S
C1530  O1625   1.304   .     A
C1530  O1626   1.299   .     A
C1531  C1541   1.430   .     S
C1532  H1566   1.109   .     S
C1532  C1552   1.529   .     S
C1533  H1561   1.111   .     S
C1533  H1562   1.111   .     S
C1533  H1563   1.104   .     S
C1533  C1396   1.532   1_655 S
C1534  C1535   1.526   .     S
C1534  H1570   1.096   .     S
C1534  H1435   1.105   1_655 S
C1535  H1568   1.110   .     S
C1535  H1569   1.110   .     S
C1535  H1567   1.109   .     S
C1536  H1576   1.111   .     S
C1536  C1537   1.525   .     S
C1536  H1577   1.092   .     S
C1537  H1572   1.110   .     S
C1538  H1582   1.094   .     S
C1538  H1581   1.100   .     S
C1539  H1580   1.109   .     S
C1539  H1579   1.103   .     S
C1539  H1578   1.111   .     S
C1539  C1402   1.532   1_655 S
C1540  C1542   1.532   .     S
C1540  H1588   1.109   .     S
C1540  H1587   1.074   .     S
C1541  O1616   1.311   .     A
C1541  O1628   1.300   .     A
C1542  H1585   1.104   .     S
C1542  H1584   1.111   .     S
C1542  H1583   1.111   .     S
C1543  C1544   1.526   .     S
C1543  H1592   1.096   .     S
C1543  H1593   1.105   .     S
C1544  H1591   1.110   .     S
C1544  H1590   1.111   .     S
C1544  H1589   1.109   .     S
C1545  H1598   1.111   .     S
C1545  H1599   1.092   .     S
C1545  C1546   1.525   .     S
C1546  H1595   1.100   .     S
C1546  H1594   1.110   .     S
C1546  H1596   1.108   .     S
C1547  H1604   1.094   .     S
C1547  C1548   1.532   .     S
C1547  H1603   1.100   .     S
C1548  H1600   1.111   .     S
C1548  H1601   1.103   .     S
C1548  H1602   1.109   .     S
C1549  O1614   1.304   .     A
C1549  O1615   1.305   .     A
C1550  O1617   1.300   .     A
C1550  O1620   1.303   .     A
C1551  O1618   1.304   .     A
C1551  O1619   1.299   .     A
C1552  N1610   1.384   .     S
H1565  C1396   1.074   1_655 S
H1573  C1401   1.100   1_655 S
H1574  C1401   1.109   1_655 S
N1609  Zn1629  2.060   .     S
N1610  Zn1630  2.060   .     S
N1611  Zn1631  2.060   .     S
N1612  Zn1632  2.060   .     S
O1613  Zn1629  1.997   .     S
O1614  Zn1632  1.997   .     S
O1615  Zn1631  2.011   .     S
O1616  Zn1360  2.011   1_565 S
O1617  Zn1360  1.995   1_565 S
O1618  Zn1631  1.995   .     S
O1619  Zn1632  1.983   .     S
O1620  Zn1359  1.983   1_565 S
O1621  Zn1494  1.997   1_655 S
O1622  Zn1493  2.011   1_655 S
O1623  Zn1630  2.011   .     S
O1624  Zn1494  1.995   1_655 S
O1625  Zn1629  1.995   .     S
O1626  Zn1630  1.983   .     S
O1627  Zn1493  1.983   1_655 S
O1628  Zn1359  1.997   1_565 S
