data_str_m2_o1_o17_pcu_sym.225
_audit_creation_date              2020-01-03
_audit_creation_method            'Materials Studio'
_symmetry_space_group_name_H-M    'P1'
_symmetry_Int_Tables_number       1
_symmetry_cell_setting            triclinic
loop_
_symmetry_equiv_pos_as_xyz
  x,y,z
_cell_length_a                    32.4651
_cell_length_b                    29.3798
_cell_length_c                    29.7055
_cell_angle_alpha                 89.9483
_cell_angle_beta                  97.6786
_cell_angle_gamma                 89.7306
loop_
_atom_site_label
_atom_site_type_symbol
_atom_site_fract_x
_atom_site_fract_y
_atom_site_fract_z
_atom_site_U_iso_or_equiv
_atom_site_adp_type
_atom_site_occupancy
C1     C     0.08792   0.16703   0.25313   0.00000  Uiso   1.00
C2     C     0.24510   0.16678   0.24580   0.00000  Uiso   1.00
C3     C     0.09085   0.16288   0.01282   0.00000  Uiso   1.00
C4     C     0.24237   0.16373   0.48715   0.00000  Uiso   1.00
C5     C     0.02118   0.12723   0.25677   0.00000  Uiso   1.00
C6     C     0.31074   0.20955   0.24070   0.00000  Uiso   1.00
C7     C     0.31209   0.12664   0.24276   0.00000  Uiso   1.00
C8     C     0.02064   0.21018   0.25033   0.00000  Uiso   1.00
C9     C     0.28946   0.16762   0.24085   0.00000  Uiso   1.00
C10    C     0.04303   0.16840   0.25559   0.00000  Uiso   1.00
C11    C     0.14492   0.02478   0.21391   0.00000  Uiso   1.00
C12    C     0.18845   0.30830   0.28558   0.00000  Uiso   1.00
C13    C     0.18839   0.02452   0.28611   0.00000  Uiso   1.00
C14    C     0.14494   0.30857   0.21441   0.00000  Uiso   1.00
C15    C     0.16611   0.16653   0.16482   0.00000  Uiso   1.00
C16    C     0.16712   0.16648   0.33517   0.00000  Uiso   1.00
C17    C     0.20440   0.16424   0.41170   0.00000  Uiso   1.00
C18    C     0.12883   0.16390   0.08829   0.00000  Uiso   1.00
C19    C     0.16687   0.16551   0.38325   0.00000  Uiso   1.00
C20    C     0.16634   0.16565   0.11673   0.00000  Uiso   1.00
C21    C     0.12902   0.16469   0.40021   0.00000  Uiso   1.00
C22    C     0.20419   0.16528   0.09976   0.00000  Uiso   1.00
C23    C     0.12796   0.16409   0.44714   0.00000  Uiso   1.00
C24    C     0.20526   0.16462   0.05283   0.00000  Uiso   1.00
C25    C     0.16640   0.16434   0.47642   0.00000  Uiso   1.00
C26    C     0.16681   0.16438   0.02356   0.00000  Uiso   1.00
C27    C     0.20455   0.16415   0.45844   0.00000  Uiso   1.00
C28    C     0.12866   0.16377   0.04154   0.00000  Uiso   1.00
C29    C     0.08984   0.16295   0.46559   0.00000  Uiso   1.00
C30    C     0.24339   0.16384   0.03437   0.00000  Uiso   1.00
Cu31   Cu    0.16667   0.21355   0.25000   0.00000  Uiso   1.00
Cu32   Cu    0.16667   0.11978   0.25000   0.00000  Uiso   1.00
H33    H     0.23333   0.16382   0.39724   0.00000  Uiso   1.00
H34    H     0.09992   0.16308   0.10276   0.00000  Uiso   1.00
H35    H     0.10088   0.16461   0.37616   0.00000  Uiso   1.00
H36    H     0.23233   0.16551   0.12380   0.00000  Uiso   1.00
H37    H     0.06193   0.16218   0.02736   0.00000  Uiso   1.00
H38    H     0.27129   0.16336   0.47259   0.00000  Uiso   1.00
N39    N     0.16667   0.28402   0.25000   0.00000  Uiso   1.00
N40    N     0.16667   0.04931   0.25000   0.00000  Uiso   1.00
O41    O     0.10655   0.20625   0.24999   0.00000  Uiso   1.00
O42    O     0.22679   0.12709   0.25000   0.00000  Uiso   1.00
O43    O     0.22679   0.20625   0.25000   0.00000  Uiso   1.00
O44    O     0.10655   0.12709   0.24999   0.00000  Uiso   1.00
O45    O     0.16666   0.20627   0.18513   0.00000  Uiso   1.00
O46    O     0.16668   0.12707   0.31487   0.00000  Uiso   1.00
O47    O     0.16668   0.20627   0.31487   0.00000  Uiso   1.00
O48    O     0.16666   0.12707   0.18513   0.00000  Uiso   1.00
C49    C     0.04787   0.16021   0.43623   0.00000  Uiso   1.00
C50    C     0.03409   0.20665   0.41546   0.00000  Uiso   1.00
C51    C     0.32999   0.20174   0.37884   0.00000  Uiso   1.00
H52    H     0.00495   0.18057   0.35037   0.00000  Uiso   1.00
H53    H     0.30384   0.18555   0.39325   0.00000  Uiso   1.00
H54    H     0.31985   0.23583   0.36531   0.00000  Uiso   1.00
H55    H     0.02567   0.22947   0.44266   0.00000  Uiso   1.00
H56    H     0.05962   0.22306   0.40009   0.00000  Uiso   1.00
H57    H     0.04907   0.13404   0.40944   0.00000  Uiso   1.00
H58    H     0.02365   0.14833   0.45668   0.00000  Uiso   1.00
C59    C     0.28543   0.16154   0.06367   0.00000  Uiso   1.00
C60    C     0.29852   0.20818   0.08391   0.00000  Uiso   1.00
C61    C     0.00418   0.20401   0.11864   0.00000  Uiso   1.00
H62    H     0.33148   0.18181   0.14733   0.00000  Uiso   1.00
H63    H     0.03006   0.18927   0.10243   0.00000  Uiso   1.00
H64    H     0.01349   0.23818   0.13226   0.00000  Uiso   1.00
H65    H     0.30493   0.23148   0.05616   0.00000  Uiso   1.00
H66    H     0.27336   0.22368   0.10083   0.00000  Uiso   1.00
H67    H     0.28473   0.13557   0.09078   0.00000  Uiso   1.00
H68    H     0.30974   0.14969   0.04323   0.00000  Uiso   1.00
Br69   Br    0.04541   0.07367   0.28786   0.00000  Uiso   1.00
Br70   Br    0.28286   0.26609   0.22015   0.00000  Uiso   1.00
Br71   Br    0.28895   0.07153   0.21449   0.00000  Uiso   1.00
Br72   Br    0.04628   0.26941   0.26239   0.00000  Uiso   1.00
C73    C     0.12286   0.04872   0.17013   0.00000  Uiso   1.00
C74    C     0.08302   0.07642   0.17351   0.00000  Uiso   1.00
C75    C     0.04896   0.06996   0.13301   0.00000  Uiso   1.00
H76    H     0.06084   0.07915   0.10083   0.00000  Uiso   1.00
H77    H     0.03818   0.03409   0.13121   0.00000  Uiso   1.00
H78    H     0.02203   0.09233   0.13707   0.00000  Uiso   1.00
H79    H     0.06983   0.06585   0.20415   0.00000  Uiso   1.00
H80    H     0.09022   0.11313   0.17367   0.00000  Uiso   1.00
H81    H     0.14524   0.06503   0.15070   0.00000  Uiso   1.00
H82    H     0.11205   0.02530   0.14335   0.00000  Uiso   1.00
C83    C     0.21528   0.28296   0.32427   0.00000  Uiso   1.00
C84    C     0.19651   0.28240   0.37024   0.00000  Uiso   1.00
C85    C     0.23053   0.27777   0.41086   0.00000  Uiso   1.00
H86    H     0.24992   0.24722   0.40698   0.00000  Uiso   1.00
H87    H     0.25085   0.30818   0.41391   0.00000  Uiso   1.00
H88    H     0.21623   0.27430   0.44261   0.00000  Uiso   1.00
H89    H     0.17716   0.31283   0.37478   0.00000  Uiso   1.00
H90    H     0.17416   0.25505   0.37277   0.00000  Uiso   1.00
H91    H     0.22403   0.24854   0.31518   0.00000  Uiso   1.00
H92    H     0.24660   0.29879   0.32887   0.00000  Uiso   1.00
C93    C     0.21010   0.04823   0.33003   0.00000  Uiso   1.00
C94    C     0.24971   0.07608   0.32702   0.00000  Uiso   1.00
C95    C     0.28335   0.06999   0.36806   0.00000  Uiso   1.00
H96    H     0.27087   0.07925   0.39990   0.00000  Uiso   1.00
H97    H     0.29465   0.03420   0.37034   0.00000  Uiso   1.00
H98    H     0.31009   0.09248   0.36427   0.00000  Uiso   1.00
H99    H     0.26344   0.06534   0.29681   0.00000  Uiso   1.00
H100   H     0.24217   0.11278   0.32634   0.00000  Uiso   1.00
H101   H     0.18742   0.06437   0.34935   0.00000  Uiso   1.00
H102   H     0.22117   0.02458   0.35661   0.00000  Uiso   1.00
C103   C     0.11842   0.28353   0.17555   0.00000  Uiso   1.00
C104   C     0.13768   0.28304   0.12986   0.00000  Uiso   1.00
C105   C     0.10404   0.27836   0.08894   0.00000  Uiso   1.00
H106   H     0.08500   0.24770   0.09262   0.00000  Uiso   1.00
H107   H     0.08333   0.30868   0.08568   0.00000  Uiso   1.00
H108   H     0.11871   0.27506   0.05739   0.00000  Uiso   1.00
H109   H     0.15667   0.31359   0.12546   0.00000  Uiso   1.00
H110   H     0.16047   0.25580   0.12769   0.00000  Uiso   1.00
H111   H     0.10959   0.24921   0.18465   0.00000  Uiso   1.00
H112   H     0.08705   0.29956   0.17062   0.00000  Uiso   1.00
C113   C     0.42125   0.16703   0.25313   0.00000  Uiso   1.00
C114   C     0.57844   0.16678   0.24580   0.00000  Uiso   1.00
C115   C     0.42418   0.16288   0.01282   0.00000  Uiso   1.00
C116   C     0.57570   0.16373   0.48715   0.00000  Uiso   1.00
C117   C     0.35451   0.12723   0.25677   0.00000  Uiso   1.00
C118   C     0.64407   0.20955   0.24070   0.00000  Uiso   1.00
C119   C     0.64542   0.12664   0.24276   0.00000  Uiso   1.00
C120   C     0.35397   0.21018   0.25033   0.00000  Uiso   1.00
C121   C     0.62280   0.16762   0.24085   0.00000  Uiso   1.00
C122   C     0.37636   0.16840   0.25559   0.00000  Uiso   1.00
C123   C     0.47826   0.02478   0.21391   0.00000  Uiso   1.00
C124   C     0.52178   0.30830   0.28558   0.00000  Uiso   1.00
C125   C     0.52172   0.02452   0.28611   0.00000  Uiso   1.00
C126   C     0.47827   0.30857   0.21441   0.00000  Uiso   1.00
C127   C     0.49944   0.16653   0.16482   0.00000  Uiso   1.00
C128   C     0.50046   0.16648   0.33517   0.00000  Uiso   1.00
C129   C     0.53774   0.16424   0.41170   0.00000  Uiso   1.00
C130   C     0.46216   0.16390   0.08829   0.00000  Uiso   1.00
C131   C     0.50021   0.16551   0.38325   0.00000  Uiso   1.00
C132   C     0.49967   0.16565   0.11673   0.00000  Uiso   1.00
C133   C     0.46235   0.16469   0.40021   0.00000  Uiso   1.00
C134   C     0.53753   0.16528   0.09976   0.00000  Uiso   1.00
C135   C     0.46129   0.16409   0.44714   0.00000  Uiso   1.00
C136   C     0.53859   0.16462   0.05283   0.00000  Uiso   1.00
C137   C     0.49973   0.16434   0.47642   0.00000  Uiso   1.00
C138   C     0.50014   0.16438   0.02356   0.00000  Uiso   1.00
C139   C     0.53789   0.16415   0.45844   0.00000  Uiso   1.00
C140   C     0.46199   0.16377   0.04154   0.00000  Uiso   1.00
C141   C     0.42317   0.16295   0.46559   0.00000  Uiso   1.00
C142   C     0.57672   0.16384   0.03437   0.00000  Uiso   1.00
Cu143  Cu    0.50000   0.21355   0.25000   0.00000  Uiso   1.00
Cu144  Cu    0.50000   0.11978   0.25000   0.00000  Uiso   1.00
H145   H     0.56666   0.16382   0.39724   0.00000  Uiso   1.00
H146   H     0.43325   0.16308   0.10276   0.00000  Uiso   1.00
H147   H     0.43421   0.16461   0.37616   0.00000  Uiso   1.00
H148   H     0.56566   0.16551   0.12380   0.00000  Uiso   1.00
H149   H     0.39527   0.16218   0.02736   0.00000  Uiso   1.00
H150   H     0.60463   0.16336   0.47259   0.00000  Uiso   1.00
N151   N     0.50000   0.28402   0.25000   0.00000  Uiso   1.00
N152   N     0.50000   0.04931   0.25000   0.00000  Uiso   1.00
O153   O     0.43988   0.20625   0.24999   0.00000  Uiso   1.00
O154   O     0.56012   0.12709   0.25000   0.00000  Uiso   1.00
O155   O     0.56012   0.20625   0.25000   0.00000  Uiso   1.00
O156   O     0.43988   0.12709   0.24999   0.00000  Uiso   1.00
O157   O     0.49999   0.20627   0.18513   0.00000  Uiso   1.00
O158   O     0.50001   0.12707   0.31487   0.00000  Uiso   1.00
O159   O     0.50001   0.20627   0.31487   0.00000  Uiso   1.00
O160   O     0.49999   0.12707   0.18513   0.00000  Uiso   1.00
C161   C     0.38120   0.16021   0.43623   0.00000  Uiso   1.00
C162   C     0.36743   0.20665   0.41546   0.00000  Uiso   1.00
C163   C     0.66333   0.20174   0.37884   0.00000  Uiso   1.00
H164   H     0.33828   0.18057   0.35037   0.00000  Uiso   1.00
H165   H     0.63717   0.18555   0.39325   0.00000  Uiso   1.00
H166   H     0.65319   0.23583   0.36531   0.00000  Uiso   1.00
H167   H     0.35900   0.22947   0.44266   0.00000  Uiso   1.00
H168   H     0.39295   0.22306   0.40009   0.00000  Uiso   1.00
H169   H     0.38240   0.13404   0.40944   0.00000  Uiso   1.00
H170   H     0.35699   0.14833   0.45668   0.00000  Uiso   1.00
C171   C     0.61876   0.16154   0.06367   0.00000  Uiso   1.00
C172   C     0.63186   0.20818   0.08391   0.00000  Uiso   1.00
C173   C     0.33751   0.20401   0.11864   0.00000  Uiso   1.00
H174   H     0.66482   0.18181   0.14733   0.00000  Uiso   1.00
H175   H     0.36339   0.18927   0.10243   0.00000  Uiso   1.00
H176   H     0.34683   0.23818   0.13226   0.00000  Uiso   1.00
H177   H     0.63827   0.23148   0.05616   0.00000  Uiso   1.00
H178   H     0.60669   0.22368   0.10083   0.00000  Uiso   1.00
H179   H     0.61807   0.13557   0.09078   0.00000  Uiso   1.00
H180   H     0.64307   0.14969   0.04323   0.00000  Uiso   1.00
Br181  Br    0.37875   0.07367   0.28786   0.00000  Uiso   1.00
Br182  Br    0.61619   0.26609   0.22015   0.00000  Uiso   1.00
Br183  Br    0.62228   0.07153   0.21449   0.00000  Uiso   1.00
Br184  Br    0.37961   0.26941   0.26239   0.00000  Uiso   1.00
C185   C     0.45620   0.04872   0.17013   0.00000  Uiso   1.00
C186   C     0.41635   0.07642   0.17351   0.00000  Uiso   1.00
C187   C     0.38230   0.06996   0.13301   0.00000  Uiso   1.00
H188   H     0.39418   0.07915   0.10083   0.00000  Uiso   1.00
H189   H     0.37151   0.03409   0.13121   0.00000  Uiso   1.00
H190   H     0.35537   0.09233   0.13707   0.00000  Uiso   1.00
H191   H     0.40316   0.06585   0.20415   0.00000  Uiso   1.00
H192   H     0.42355   0.11313   0.17367   0.00000  Uiso   1.00
H193   H     0.47857   0.06503   0.15070   0.00000  Uiso   1.00
H194   H     0.44538   0.02530   0.14335   0.00000  Uiso   1.00
C195   C     0.54862   0.28296   0.32427   0.00000  Uiso   1.00
C196   C     0.52984   0.28240   0.37024   0.00000  Uiso   1.00
C197   C     0.56386   0.27777   0.41086   0.00000  Uiso   1.00
H198   H     0.58325   0.24722   0.40698   0.00000  Uiso   1.00
H199   H     0.58418   0.30818   0.41391   0.00000  Uiso   1.00
H200   H     0.54956   0.27430   0.44261   0.00000  Uiso   1.00
H201   H     0.51049   0.31283   0.37478   0.00000  Uiso   1.00
H202   H     0.50749   0.25505   0.37277   0.00000  Uiso   1.00
H203   H     0.55736   0.24854   0.31518   0.00000  Uiso   1.00
H204   H     0.57994   0.29879   0.32887   0.00000  Uiso   1.00
C205   C     0.54343   0.04823   0.33003   0.00000  Uiso   1.00
C206   C     0.58304   0.07608   0.32702   0.00000  Uiso   1.00
C207   C     0.61669   0.06999   0.36806   0.00000  Uiso   1.00
H208   H     0.60421   0.07925   0.39990   0.00000  Uiso   1.00
H209   H     0.62798   0.03420   0.37034   0.00000  Uiso   1.00
H210   H     0.64342   0.09248   0.36427   0.00000  Uiso   1.00
H211   H     0.59677   0.06534   0.29681   0.00000  Uiso   1.00
H212   H     0.57550   0.11278   0.32634   0.00000  Uiso   1.00
H213   H     0.52075   0.06437   0.34935   0.00000  Uiso   1.00
H214   H     0.55451   0.02458   0.35661   0.00000  Uiso   1.00
C215   C     0.45176   0.28353   0.17555   0.00000  Uiso   1.00
C216   C     0.47101   0.28304   0.12986   0.00000  Uiso   1.00
C217   C     0.43738   0.27836   0.08894   0.00000  Uiso   1.00
H218   H     0.41834   0.24770   0.09262   0.00000  Uiso   1.00
H219   H     0.41666   0.30868   0.08568   0.00000  Uiso   1.00
H220   H     0.45204   0.27506   0.05739   0.00000  Uiso   1.00
H221   H     0.49000   0.31359   0.12546   0.00000  Uiso   1.00
H222   H     0.49380   0.25580   0.12769   0.00000  Uiso   1.00
H223   H     0.44293   0.24921   0.18465   0.00000  Uiso   1.00
H224   H     0.42039   0.29956   0.17062   0.00000  Uiso   1.00
C225   C     0.75458   0.16703   0.25313   0.00000  Uiso   1.00
C226   C     0.91177   0.16678   0.24580   0.00000  Uiso   1.00
C227   C     0.75752   0.16288   0.01282   0.00000  Uiso   1.00
C228   C     0.90903   0.16373   0.48715   0.00000  Uiso   1.00
C229   C     0.68784   0.12723   0.25677   0.00000  Uiso   1.00
C230   C     0.97741   0.20955   0.24070   0.00000  Uiso   1.00
C231   C     0.97875   0.12664   0.24276   0.00000  Uiso   1.00
C232   C     0.68730   0.21018   0.25033   0.00000  Uiso   1.00
C233   C     0.95613   0.16762   0.24085   0.00000  Uiso   1.00
C234   C     0.70969   0.16840   0.25559   0.00000  Uiso   1.00
C235   C     0.81159   0.02478   0.21391   0.00000  Uiso   1.00
C236   C     0.85512   0.30830   0.28558   0.00000  Uiso   1.00
C237   C     0.85505   0.02452   0.28611   0.00000  Uiso   1.00
C238   C     0.81161   0.30857   0.21441   0.00000  Uiso   1.00
C239   C     0.83277   0.16653   0.16482   0.00000  Uiso   1.00
C240   C     0.83379   0.16648   0.33517   0.00000  Uiso   1.00
C241   C     0.87107   0.16424   0.41170   0.00000  Uiso   1.00
C242   C     0.79549   0.16390   0.08829   0.00000  Uiso   1.00
C243   C     0.83354   0.16551   0.38325   0.00000  Uiso   1.00
C244   C     0.83300   0.16565   0.11673   0.00000  Uiso   1.00
C245   C     0.79569   0.16469   0.40021   0.00000  Uiso   1.00
C246   C     0.87086   0.16528   0.09976   0.00000  Uiso   1.00
C247   C     0.79463   0.16409   0.44714   0.00000  Uiso   1.00
C248   C     0.87192   0.16462   0.05283   0.00000  Uiso   1.00
C249   C     0.83307   0.16434   0.47642   0.00000  Uiso   1.00
C250   C     0.83347   0.16438   0.02356   0.00000  Uiso   1.00
C251   C     0.87122   0.16415   0.45844   0.00000  Uiso   1.00
C252   C     0.79533   0.16377   0.04154   0.00000  Uiso   1.00
C253   C     0.75650   0.16295   0.46559   0.00000  Uiso   1.00
C254   C     0.91005   0.16384   0.03437   0.00000  Uiso   1.00
Cu255  Cu    0.83333   0.21355   0.25000   0.00000  Uiso   1.00
Cu256  Cu    0.83333   0.11978   0.25000   0.00000  Uiso   1.00
H257   H     0.90000   0.16382   0.39724   0.00000  Uiso   1.00
H258   H     0.76659   0.16308   0.10276   0.00000  Uiso   1.00
H259   H     0.76755   0.16461   0.37616   0.00000  Uiso   1.00
H260   H     0.89900   0.16551   0.12380   0.00000  Uiso   1.00
H261   H     0.72860   0.16218   0.02736   0.00000  Uiso   1.00
H262   H     0.93796   0.16336   0.47259   0.00000  Uiso   1.00
N263   N     0.83333   0.28402   0.25000   0.00000  Uiso   1.00
N264   N     0.83333   0.04931   0.25000   0.00000  Uiso   1.00
O265   O     0.77321   0.20625   0.24999   0.00000  Uiso   1.00
O266   O     0.89345   0.12709   0.25000   0.00000  Uiso   1.00
O267   O     0.89345   0.20625   0.25000   0.00000  Uiso   1.00
O268   O     0.77321   0.12709   0.24999   0.00000  Uiso   1.00
O269   O     0.83332   0.20627   0.18513   0.00000  Uiso   1.00
O270   O     0.83334   0.12707   0.31487   0.00000  Uiso   1.00
O271   O     0.83334   0.20627   0.31487   0.00000  Uiso   1.00
O272   O     0.83332   0.12707   0.18513   0.00000  Uiso   1.00
C273   C     0.71453   0.16021   0.43623   0.00000  Uiso   1.00
C274   C     0.70076   0.20665   0.41546   0.00000  Uiso   1.00
C275   C     0.99666   0.20174   0.37884   0.00000  Uiso   1.00
H276   H     0.67162   0.18057   0.35037   0.00000  Uiso   1.00
H277   H     0.97051   0.18555   0.39325   0.00000  Uiso   1.00
H278   H     0.98652   0.23583   0.36531   0.00000  Uiso   1.00
H279   H     0.69233   0.22947   0.44266   0.00000  Uiso   1.00
H280   H     0.72629   0.22306   0.40009   0.00000  Uiso   1.00
H281   H     0.71573   0.13404   0.40944   0.00000  Uiso   1.00
H282   H     0.69032   0.14833   0.45668   0.00000  Uiso   1.00
C283   C     0.95209   0.16154   0.06367   0.00000  Uiso   1.00
C284   C     0.96519   0.20818   0.08391   0.00000  Uiso   1.00
C285   C     0.67084   0.20401   0.11864   0.00000  Uiso   1.00
H286   H     0.99815   0.18181   0.14733   0.00000  Uiso   1.00
H287   H     0.69673   0.18927   0.10243   0.00000  Uiso   1.00
H288   H     0.68016   0.23818   0.13226   0.00000  Uiso   1.00
H289   H     0.97160   0.23148   0.05616   0.00000  Uiso   1.00
H290   H     0.94003   0.22368   0.10083   0.00000  Uiso   1.00
H291   H     0.95140   0.13557   0.09078   0.00000  Uiso   1.00
H292   H     0.97640   0.14969   0.04323   0.00000  Uiso   1.00
Br293  Br    0.71208   0.07367   0.28786   0.00000  Uiso   1.00
Br294  Br    0.94953   0.26609   0.22015   0.00000  Uiso   1.00
Br295  Br    0.95561   0.07153   0.21449   0.00000  Uiso   1.00
Br296  Br    0.71294   0.26941   0.26239   0.00000  Uiso   1.00
C297   C     0.78953   0.04872   0.17013   0.00000  Uiso   1.00
C298   C     0.74968   0.07642   0.17351   0.00000  Uiso   1.00
C299   C     0.71563   0.06996   0.13301   0.00000  Uiso   1.00
H300   H     0.72751   0.07915   0.10083   0.00000  Uiso   1.00
H301   H     0.70484   0.03409   0.13121   0.00000  Uiso   1.00
H302   H     0.68870   0.09233   0.13707   0.00000  Uiso   1.00
H303   H     0.73649   0.06585   0.20415   0.00000  Uiso   1.00
H304   H     0.75688   0.11313   0.17367   0.00000  Uiso   1.00
H305   H     0.81190   0.06503   0.15070   0.00000  Uiso   1.00
H306   H     0.77872   0.02530   0.14335   0.00000  Uiso   1.00
C307   C     0.88195   0.28296   0.32427   0.00000  Uiso   1.00
C308   C     0.86317   0.28240   0.37024   0.00000  Uiso   1.00
C309   C     0.89720   0.27777   0.41086   0.00000  Uiso   1.00
H310   H     0.91659   0.24722   0.40698   0.00000  Uiso   1.00
H311   H     0.91751   0.30818   0.41391   0.00000  Uiso   1.00
H312   H     0.88289   0.27430   0.44261   0.00000  Uiso   1.00
H313   H     0.84383   0.31283   0.37478   0.00000  Uiso   1.00
H314   H     0.84083   0.25505   0.37277   0.00000  Uiso   1.00
H315   H     0.89070   0.24854   0.31518   0.00000  Uiso   1.00
H316   H     0.91327   0.29879   0.32887   0.00000  Uiso   1.00
C317   C     0.87676   0.04823   0.33003   0.00000  Uiso   1.00
C318   C     0.91637   0.07608   0.32702   0.00000  Uiso   1.00
C319   C     0.95002   0.06999   0.36806   0.00000  Uiso   1.00
H320   H     0.93754   0.07925   0.39990   0.00000  Uiso   1.00
H321   H     0.96131   0.03420   0.37034   0.00000  Uiso   1.00
H322   H     0.97675   0.09248   0.36427   0.00000  Uiso   1.00
H323   H     0.93011   0.06534   0.29681   0.00000  Uiso   1.00
H324   H     0.90883   0.11278   0.32634   0.00000  Uiso   1.00
H325   H     0.85408   0.06437   0.34935   0.00000  Uiso   1.00
H326   H     0.88784   0.02458   0.35661   0.00000  Uiso   1.00
C327   C     0.78509   0.28353   0.17555   0.00000  Uiso   1.00
C328   C     0.80434   0.28304   0.12986   0.00000  Uiso   1.00
C329   C     0.77071   0.27836   0.08894   0.00000  Uiso   1.00
H330   H     0.75167   0.24770   0.09262   0.00000  Uiso   1.00
H331   H     0.75000   0.30868   0.08568   0.00000  Uiso   1.00
H332   H     0.78537   0.27506   0.05739   0.00000  Uiso   1.00
H333   H     0.82333   0.31359   0.12546   0.00000  Uiso   1.00
H334   H     0.82714   0.25580   0.12769   0.00000  Uiso   1.00
H335   H     0.77626   0.24921   0.18465   0.00000  Uiso   1.00
H336   H     0.75372   0.29956   0.17062   0.00000  Uiso   1.00
C337   C     0.08792   0.50037   0.25313   0.00000  Uiso   1.00
C338   C     0.24510   0.50011   0.24580   0.00000  Uiso   1.00
C339   C     0.09085   0.49621   0.01282   0.00000  Uiso   1.00
C340   C     0.24237   0.49706   0.48715   0.00000  Uiso   1.00
C341   C     0.02118   0.46057   0.25677   0.00000  Uiso   1.00
C342   C     0.31074   0.54289   0.24070   0.00000  Uiso   1.00
C343   C     0.31209   0.45997   0.24276   0.00000  Uiso   1.00
C344   C     0.02064   0.54351   0.25033   0.00000  Uiso   1.00
C345   C     0.28946   0.50095   0.24085   0.00000  Uiso   1.00
C346   C     0.04303   0.50173   0.25559   0.00000  Uiso   1.00
C347   C     0.14492   0.35811   0.21391   0.00000  Uiso   1.00
C348   C     0.18845   0.64163   0.28558   0.00000  Uiso   1.00
C349   C     0.18839   0.35785   0.28611   0.00000  Uiso   1.00
C350   C     0.14494   0.64190   0.21441   0.00000  Uiso   1.00
C351   C     0.16611   0.49986   0.16482   0.00000  Uiso   1.00
C352   C     0.16712   0.49981   0.33517   0.00000  Uiso   1.00
C353   C     0.20440   0.49758   0.41170   0.00000  Uiso   1.00
C354   C     0.12883   0.49723   0.08829   0.00000  Uiso   1.00
C355   C     0.16687   0.49884   0.38325   0.00000  Uiso   1.00
C356   C     0.16634   0.49899   0.11673   0.00000  Uiso   1.00
C357   C     0.12902   0.49802   0.40021   0.00000  Uiso   1.00
C358   C     0.20419   0.49862   0.09976   0.00000  Uiso   1.00
C359   C     0.12796   0.49743   0.44714   0.00000  Uiso   1.00
C360   C     0.20526   0.49795   0.05283   0.00000  Uiso   1.00
C361   C     0.16640   0.49767   0.47642   0.00000  Uiso   1.00
C362   C     0.16681   0.49772   0.02356   0.00000  Uiso   1.00
C363   C     0.20455   0.49748   0.45844   0.00000  Uiso   1.00
C364   C     0.12866   0.49710   0.04154   0.00000  Uiso   1.00
C365   C     0.08984   0.49629   0.46559   0.00000  Uiso   1.00
C366   C     0.24339   0.49718   0.03437   0.00000  Uiso   1.00
Cu367  Cu    0.16667   0.54689   0.25000   0.00000  Uiso   1.00
Cu368  Cu    0.16667   0.45311   0.25000   0.00000  Uiso   1.00
H369   H     0.23333   0.49715   0.39724   0.00000  Uiso   1.00
H370   H     0.09992   0.49642   0.10276   0.00000  Uiso   1.00
H371   H     0.10088   0.49794   0.37616   0.00000  Uiso   1.00
H372   H     0.23233   0.49884   0.12380   0.00000  Uiso   1.00
H373   H     0.06193   0.49551   0.02736   0.00000  Uiso   1.00
H374   H     0.27129   0.49669   0.47259   0.00000  Uiso   1.00
N375   N     0.16667   0.61736   0.25000   0.00000  Uiso   1.00
N376   N     0.16667   0.38264   0.25000   0.00000  Uiso   1.00
O377   O     0.10655   0.53958   0.24999   0.00000  Uiso   1.00
O378   O     0.22679   0.46042   0.25000   0.00000  Uiso   1.00
O379   O     0.22679   0.53958   0.25000   0.00000  Uiso   1.00
O380   O     0.10655   0.46042   0.24999   0.00000  Uiso   1.00
O381   O     0.16666   0.53960   0.18513   0.00000  Uiso   1.00
O382   O     0.16668   0.46040   0.31487   0.00000  Uiso   1.00
O383   O     0.16668   0.53960   0.31487   0.00000  Uiso   1.00
O384   O     0.16666   0.46040   0.18513   0.00000  Uiso   1.00
C385   C     0.04787   0.49355   0.43623   0.00000  Uiso   1.00
C386   C     0.03409   0.53998   0.41546   0.00000  Uiso   1.00
C387   C     0.32999   0.53507   0.37884   0.00000  Uiso   1.00
H388   H     0.00495   0.51390   0.35037   0.00000  Uiso   1.00
H389   H     0.30384   0.51889   0.39325   0.00000  Uiso   1.00
H390   H     0.31985   0.56916   0.36531   0.00000  Uiso   1.00
H391   H     0.02567   0.56280   0.44266   0.00000  Uiso   1.00
H392   H     0.05962   0.55639   0.40009   0.00000  Uiso   1.00
H393   H     0.04907   0.46738   0.40944   0.00000  Uiso   1.00
H394   H     0.02365   0.48167   0.45668   0.00000  Uiso   1.00
C395   C     0.28543   0.49488   0.06367   0.00000  Uiso   1.00
C396   C     0.29852   0.54152   0.08391   0.00000  Uiso   1.00
C397   C     0.00418   0.53735   0.11864   0.00000  Uiso   1.00
H398   H     0.33148   0.51515   0.14733   0.00000  Uiso   1.00
H399   H     0.03006   0.52261   0.10243   0.00000  Uiso   1.00
H400   H     0.01349   0.57151   0.13226   0.00000  Uiso   1.00
H401   H     0.30493   0.56481   0.05616   0.00000  Uiso   1.00
H402   H     0.27336   0.55701   0.10083   0.00000  Uiso   1.00
H403   H     0.28473   0.46890   0.09078   0.00000  Uiso   1.00
H404   H     0.30974   0.48303   0.04323   0.00000  Uiso   1.00
Br405  Br    0.04541   0.40700   0.28786   0.00000  Uiso   1.00
Br406  Br    0.28286   0.59943   0.22015   0.00000  Uiso   1.00
Br407  Br    0.28895   0.40487   0.21449   0.00000  Uiso   1.00
Br408  Br    0.04628   0.60274   0.26239   0.00000  Uiso   1.00
C409   C     0.12286   0.38206   0.17013   0.00000  Uiso   1.00
C410   C     0.08302   0.40975   0.17351   0.00000  Uiso   1.00
C411   C     0.04896   0.40329   0.13301   0.00000  Uiso   1.00
H412   H     0.06084   0.41248   0.10083   0.00000  Uiso   1.00
H413   H     0.03818   0.36743   0.13121   0.00000  Uiso   1.00
H414   H     0.02203   0.42566   0.13707   0.00000  Uiso   1.00
H415   H     0.06983   0.39918   0.20415   0.00000  Uiso   1.00
H416   H     0.09022   0.44646   0.17367   0.00000  Uiso   1.00
H417   H     0.14524   0.39837   0.15070   0.00000  Uiso   1.00
H418   H     0.11205   0.35863   0.14335   0.00000  Uiso   1.00
C419   C     0.21528   0.61629   0.32427   0.00000  Uiso   1.00
C420   C     0.19651   0.61573   0.37024   0.00000  Uiso   1.00
C421   C     0.23053   0.61110   0.41086   0.00000  Uiso   1.00
H422   H     0.24992   0.58055   0.40698   0.00000  Uiso   1.00
H423   H     0.25085   0.64151   0.41391   0.00000  Uiso   1.00
H424   H     0.21623   0.60763   0.44261   0.00000  Uiso   1.00
H425   H     0.17716   0.64616   0.37478   0.00000  Uiso   1.00
H426   H     0.17416   0.58838   0.37277   0.00000  Uiso   1.00
H427   H     0.22403   0.58188   0.31518   0.00000  Uiso   1.00
H428   H     0.24660   0.63213   0.32887   0.00000  Uiso   1.00
C429   C     0.21010   0.38156   0.33003   0.00000  Uiso   1.00
C430   C     0.24971   0.40942   0.32702   0.00000  Uiso   1.00
C431   C     0.28335   0.40333   0.36806   0.00000  Uiso   1.00
H432   H     0.27087   0.41259   0.39990   0.00000  Uiso   1.00
H433   H     0.29465   0.36754   0.37034   0.00000  Uiso   1.00
H434   H     0.31009   0.42582   0.36427   0.00000  Uiso   1.00
H435   H     0.26344   0.39867   0.29681   0.00000  Uiso   1.00
H436   H     0.24217   0.44611   0.32634   0.00000  Uiso   1.00
H437   H     0.18742   0.39770   0.34935   0.00000  Uiso   1.00
H438   H     0.22117   0.35791   0.35661   0.00000  Uiso   1.00
C439   C     0.11842   0.61687   0.17555   0.00000  Uiso   1.00
C440   C     0.13768   0.61638   0.12986   0.00000  Uiso   1.00
C441   C     0.10404   0.61170   0.08894   0.00000  Uiso   1.00
H442   H     0.08500   0.58104   0.09262   0.00000  Uiso   1.00
H443   H     0.08333   0.64201   0.08568   0.00000  Uiso   1.00
H444   H     0.11871   0.60840   0.05739   0.00000  Uiso   1.00
H445   H     0.15667   0.64693   0.12546   0.00000  Uiso   1.00
H446   H     0.16047   0.58914   0.12769   0.00000  Uiso   1.00
H447   H     0.10959   0.58254   0.18465   0.00000  Uiso   1.00
H448   H     0.08705   0.63290   0.17062   0.00000  Uiso   1.00
C449   C     0.42125   0.50037   0.25313   0.00000  Uiso   1.00
C450   C     0.57844   0.50011   0.24580   0.00000  Uiso   1.00
C451   C     0.42418   0.49621   0.01282   0.00000  Uiso   1.00
C452   C     0.57570   0.49706   0.48715   0.00000  Uiso   1.00
C453   C     0.35451   0.46057   0.25677   0.00000  Uiso   1.00
C454   C     0.64407   0.54289   0.24070   0.00000  Uiso   1.00
C455   C     0.64542   0.45997   0.24276   0.00000  Uiso   1.00
C456   C     0.35397   0.54351   0.25033   0.00000  Uiso   1.00
C457   C     0.62280   0.50095   0.24085   0.00000  Uiso   1.00
C458   C     0.37636   0.50173   0.25559   0.00000  Uiso   1.00
C459   C     0.47826   0.35811   0.21391   0.00000  Uiso   1.00
C460   C     0.52178   0.64163   0.28558   0.00000  Uiso   1.00
C461   C     0.52172   0.35785   0.28611   0.00000  Uiso   1.00
C462   C     0.47827   0.64190   0.21441   0.00000  Uiso   1.00
C463   C     0.49944   0.49986   0.16482   0.00000  Uiso   1.00
C464   C     0.50046   0.49981   0.33517   0.00000  Uiso   1.00
C465   C     0.53774   0.49758   0.41170   0.00000  Uiso   1.00
C466   C     0.46216   0.49723   0.08829   0.00000  Uiso   1.00
C467   C     0.50021   0.49884   0.38325   0.00000  Uiso   1.00
C468   C     0.49967   0.49899   0.11673   0.00000  Uiso   1.00
C469   C     0.46235   0.49802   0.40021   0.00000  Uiso   1.00
C470   C     0.53753   0.49862   0.09976   0.00000  Uiso   1.00
C471   C     0.46129   0.49743   0.44714   0.00000  Uiso   1.00
C472   C     0.53859   0.49795   0.05283   0.00000  Uiso   1.00
C473   C     0.49973   0.49767   0.47642   0.00000  Uiso   1.00
C474   C     0.50014   0.49772   0.02356   0.00000  Uiso   1.00
C475   C     0.53789   0.49748   0.45844   0.00000  Uiso   1.00
C476   C     0.46199   0.49710   0.04154   0.00000  Uiso   1.00
C477   C     0.42317   0.49629   0.46559   0.00000  Uiso   1.00
C478   C     0.57672   0.49718   0.03437   0.00000  Uiso   1.00
Cu479  Cu    0.50000   0.54689   0.25000   0.00000  Uiso   1.00
Cu480  Cu    0.50000   0.45311   0.25000   0.00000  Uiso   1.00
H481   H     0.56666   0.49715   0.39724   0.00000  Uiso   1.00
H482   H     0.43325   0.49642   0.10276   0.00000  Uiso   1.00
H483   H     0.43421   0.49794   0.37616   0.00000  Uiso   1.00
H484   H     0.56566   0.49884   0.12380   0.00000  Uiso   1.00
H485   H     0.39527   0.49551   0.02736   0.00000  Uiso   1.00
H486   H     0.60463   0.49669   0.47259   0.00000  Uiso   1.00
N487   N     0.50000   0.61736   0.25000   0.00000  Uiso   1.00
N488   N     0.50000   0.38264   0.25000   0.00000  Uiso   1.00
O489   O     0.43988   0.53958   0.24999   0.00000  Uiso   1.00
O490   O     0.56012   0.46042   0.25000   0.00000  Uiso   1.00
O491   O     0.56012   0.53958   0.25000   0.00000  Uiso   1.00
O492   O     0.43988   0.46042   0.24999   0.00000  Uiso   1.00
O493   O     0.49999   0.53960   0.18513   0.00000  Uiso   1.00
O494   O     0.50001   0.46040   0.31487   0.00000  Uiso   1.00
O495   O     0.50001   0.53960   0.31487   0.00000  Uiso   1.00
O496   O     0.49999   0.46040   0.18513   0.00000  Uiso   1.00
C497   C     0.38120   0.49355   0.43623   0.00000  Uiso   1.00
C498   C     0.36743   0.53998   0.41546   0.00000  Uiso   1.00
C499   C     0.66333   0.53507   0.37884   0.00000  Uiso   1.00
H500   H     0.33828   0.51390   0.35037   0.00000  Uiso   1.00
H501   H     0.63717   0.51889   0.39325   0.00000  Uiso   1.00
H502   H     0.65319   0.56916   0.36531   0.00000  Uiso   1.00
H503   H     0.35900   0.56280   0.44266   0.00000  Uiso   1.00
H504   H     0.39295   0.55639   0.40009   0.00000  Uiso   1.00
H505   H     0.38240   0.46738   0.40944   0.00000  Uiso   1.00
H506   H     0.35699   0.48167   0.45668   0.00000  Uiso   1.00
C507   C     0.61876   0.49488   0.06367   0.00000  Uiso   1.00
C508   C     0.63186   0.54152   0.08391   0.00000  Uiso   1.00
C509   C     0.33751   0.53735   0.11864   0.00000  Uiso   1.00
H510   H     0.66482   0.51515   0.14733   0.00000  Uiso   1.00
H511   H     0.36339   0.52261   0.10243   0.00000  Uiso   1.00
H512   H     0.34683   0.57151   0.13226   0.00000  Uiso   1.00
H513   H     0.63827   0.56481   0.05616   0.00000  Uiso   1.00
H514   H     0.60669   0.55701   0.10083   0.00000  Uiso   1.00
H515   H     0.61807   0.46890   0.09078   0.00000  Uiso   1.00
H516   H     0.64307   0.48303   0.04323   0.00000  Uiso   1.00
Br517  Br    0.37875   0.40700   0.28786   0.00000  Uiso   1.00
Br518  Br    0.61619   0.59943   0.22015   0.00000  Uiso   1.00
Br519  Br    0.62228   0.40487   0.21449   0.00000  Uiso   1.00
Br520  Br    0.37961   0.60274   0.26239   0.00000  Uiso   1.00
C521   C     0.45620   0.38206   0.17013   0.00000  Uiso   1.00
C522   C     0.41635   0.40975   0.17351   0.00000  Uiso   1.00
C523   C     0.38230   0.40329   0.13301   0.00000  Uiso   1.00
H524   H     0.39418   0.41248   0.10083   0.00000  Uiso   1.00
H525   H     0.37151   0.36743   0.13121   0.00000  Uiso   1.00
H526   H     0.35537   0.42566   0.13707   0.00000  Uiso   1.00
H527   H     0.40316   0.39918   0.20415   0.00000  Uiso   1.00
H528   H     0.42355   0.44646   0.17367   0.00000  Uiso   1.00
H529   H     0.47857   0.39837   0.15070   0.00000  Uiso   1.00
H530   H     0.44538   0.35863   0.14335   0.00000  Uiso   1.00
C531   C     0.54862   0.61629   0.32427   0.00000  Uiso   1.00
C532   C     0.52984   0.61573   0.37024   0.00000  Uiso   1.00
C533   C     0.56386   0.61110   0.41086   0.00000  Uiso   1.00
H534   H     0.58325   0.58055   0.40698   0.00000  Uiso   1.00
H535   H     0.58418   0.64151   0.41391   0.00000  Uiso   1.00
H536   H     0.54956   0.60763   0.44261   0.00000  Uiso   1.00
H537   H     0.51049   0.64616   0.37478   0.00000  Uiso   1.00
H538   H     0.50749   0.58838   0.37277   0.00000  Uiso   1.00
H539   H     0.55736   0.58188   0.31518   0.00000  Uiso   1.00
H540   H     0.57994   0.63213   0.32887   0.00000  Uiso   1.00
C541   C     0.54343   0.38156   0.33003   0.00000  Uiso   1.00
C542   C     0.58304   0.40942   0.32702   0.00000  Uiso   1.00
C543   C     0.61669   0.40333   0.36806   0.00000  Uiso   1.00
H544   H     0.60421   0.41259   0.39990   0.00000  Uiso   1.00
H545   H     0.62798   0.36754   0.37034   0.00000  Uiso   1.00
H546   H     0.64342   0.42582   0.36427   0.00000  Uiso   1.00
H547   H     0.59677   0.39867   0.29681   0.00000  Uiso   1.00
H548   H     0.57550   0.44611   0.32634   0.00000  Uiso   1.00
H549   H     0.52075   0.39770   0.34935   0.00000  Uiso   1.00
H550   H     0.55451   0.35791   0.35661   0.00000  Uiso   1.00
C551   C     0.45176   0.61687   0.17555   0.00000  Uiso   1.00
C552   C     0.47101   0.61638   0.12986   0.00000  Uiso   1.00
C553   C     0.43738   0.61170   0.08894   0.00000  Uiso   1.00
H554   H     0.41834   0.58104   0.09262   0.00000  Uiso   1.00
H555   H     0.41666   0.64201   0.08568   0.00000  Uiso   1.00
H556   H     0.45204   0.60840   0.05739   0.00000  Uiso   1.00
H557   H     0.49000   0.64693   0.12546   0.00000  Uiso   1.00
H558   H     0.49380   0.58914   0.12769   0.00000  Uiso   1.00
H559   H     0.44293   0.58254   0.18465   0.00000  Uiso   1.00
H560   H     0.42039   0.63290   0.17062   0.00000  Uiso   1.00
C561   C     0.75458   0.50037   0.25313   0.00000  Uiso   1.00
C562   C     0.91177   0.50011   0.24580   0.00000  Uiso   1.00
C563   C     0.75752   0.49621   0.01282   0.00000  Uiso   1.00
C564   C     0.90903   0.49706   0.48715   0.00000  Uiso   1.00
C565   C     0.68784   0.46057   0.25677   0.00000  Uiso   1.00
C566   C     0.97741   0.54289   0.24070   0.00000  Uiso   1.00
C567   C     0.97875   0.45997   0.24276   0.00000  Uiso   1.00
C568   C     0.68730   0.54351   0.25033   0.00000  Uiso   1.00
C569   C     0.95613   0.50095   0.24085   0.00000  Uiso   1.00
C570   C     0.70969   0.50173   0.25559   0.00000  Uiso   1.00
C571   C     0.81159   0.35811   0.21391   0.00000  Uiso   1.00
C572   C     0.85512   0.64163   0.28558   0.00000  Uiso   1.00
C573   C     0.85505   0.35785   0.28611   0.00000  Uiso   1.00
C574   C     0.81161   0.64190   0.21441   0.00000  Uiso   1.00
C575   C     0.83277   0.49986   0.16482   0.00000  Uiso   1.00
C576   C     0.83379   0.49981   0.33517   0.00000  Uiso   1.00
C577   C     0.87107   0.49758   0.41170   0.00000  Uiso   1.00
C578   C     0.79549   0.49723   0.08829   0.00000  Uiso   1.00
C579   C     0.83354   0.49884   0.38325   0.00000  Uiso   1.00
C580   C     0.83300   0.49899   0.11673   0.00000  Uiso   1.00
C581   C     0.79569   0.49802   0.40021   0.00000  Uiso   1.00
C582   C     0.87086   0.49862   0.09976   0.00000  Uiso   1.00
C583   C     0.79463   0.49743   0.44714   0.00000  Uiso   1.00
C584   C     0.87192   0.49795   0.05283   0.00000  Uiso   1.00
C585   C     0.83307   0.49767   0.47642   0.00000  Uiso   1.00
C586   C     0.83347   0.49772   0.02356   0.00000  Uiso   1.00
C587   C     0.87122   0.49748   0.45844   0.00000  Uiso   1.00
C588   C     0.79533   0.49710   0.04154   0.00000  Uiso   1.00
C589   C     0.75650   0.49629   0.46559   0.00000  Uiso   1.00
C590   C     0.91005   0.49718   0.03437   0.00000  Uiso   1.00
Cu591  Cu    0.83333   0.54689   0.25000   0.00000  Uiso   1.00
Cu592  Cu    0.83333   0.45311   0.25000   0.00000  Uiso   1.00
H593   H     0.90000   0.49715   0.39724   0.00000  Uiso   1.00
H594   H     0.76659   0.49642   0.10276   0.00000  Uiso   1.00
H595   H     0.76755   0.49794   0.37616   0.00000  Uiso   1.00
H596   H     0.89900   0.49884   0.12380   0.00000  Uiso   1.00
H597   H     0.72860   0.49551   0.02736   0.00000  Uiso   1.00
H598   H     0.93796   0.49669   0.47259   0.00000  Uiso   1.00
N599   N     0.83333   0.61736   0.25000   0.00000  Uiso   1.00
N600   N     0.83333   0.38264   0.25000   0.00000  Uiso   1.00
O601   O     0.77321   0.53958   0.24999   0.00000  Uiso   1.00
O602   O     0.89345   0.46042   0.25000   0.00000  Uiso   1.00
O603   O     0.89345   0.53958   0.25000   0.00000  Uiso   1.00
O604   O     0.77321   0.46042   0.24999   0.00000  Uiso   1.00
O605   O     0.83332   0.53960   0.18513   0.00000  Uiso   1.00
O606   O     0.83334   0.46040   0.31487   0.00000  Uiso   1.00
O607   O     0.83334   0.53960   0.31487   0.00000  Uiso   1.00
O608   O     0.83332   0.46040   0.18513   0.00000  Uiso   1.00
C609   C     0.71453   0.49355   0.43623   0.00000  Uiso   1.00
C610   C     0.70076   0.53998   0.41546   0.00000  Uiso   1.00
C611   C     0.99666   0.53507   0.37884   0.00000  Uiso   1.00
H612   H     0.67162   0.51390   0.35037   0.00000  Uiso   1.00
H613   H     0.97051   0.51889   0.39325   0.00000  Uiso   1.00
H614   H     0.98652   0.56916   0.36531   0.00000  Uiso   1.00
H615   H     0.69233   0.56280   0.44266   0.00000  Uiso   1.00
H616   H     0.72629   0.55639   0.40009   0.00000  Uiso   1.00
H617   H     0.71573   0.46738   0.40944   0.00000  Uiso   1.00
H618   H     0.69032   0.48167   0.45668   0.00000  Uiso   1.00
C619   C     0.95209   0.49488   0.06367   0.00000  Uiso   1.00
C620   C     0.96519   0.54152   0.08391   0.00000  Uiso   1.00
C621   C     0.67084   0.53735   0.11864   0.00000  Uiso   1.00
H622   H     0.99815   0.51515   0.14733   0.00000  Uiso   1.00
H623   H     0.69673   0.52261   0.10243   0.00000  Uiso   1.00
H624   H     0.68016   0.57151   0.13226   0.00000  Uiso   1.00
H625   H     0.97160   0.56481   0.05616   0.00000  Uiso   1.00
H626   H     0.94003   0.55701   0.10083   0.00000  Uiso   1.00
H627   H     0.95140   0.46890   0.09078   0.00000  Uiso   1.00
H628   H     0.97640   0.48303   0.04323   0.00000  Uiso   1.00
Br629  Br    0.71208   0.40700   0.28786   0.00000  Uiso   1.00
Br630  Br    0.94953   0.59943   0.22015   0.00000  Uiso   1.00
Br631  Br    0.95561   0.40487   0.21449   0.00000  Uiso   1.00
Br632  Br    0.71294   0.60274   0.26239   0.00000  Uiso   1.00
C633   C     0.78953   0.38206   0.17013   0.00000  Uiso   1.00
C634   C     0.74968   0.40975   0.17351   0.00000  Uiso   1.00
C635   C     0.71563   0.40329   0.13301   0.00000  Uiso   1.00
H636   H     0.72751   0.41248   0.10083   0.00000  Uiso   1.00
H637   H     0.70484   0.36743   0.13121   0.00000  Uiso   1.00
H638   H     0.68870   0.42566   0.13707   0.00000  Uiso   1.00
H639   H     0.73649   0.39918   0.20415   0.00000  Uiso   1.00
H640   H     0.75688   0.44646   0.17367   0.00000  Uiso   1.00
H641   H     0.81190   0.39837   0.15070   0.00000  Uiso   1.00
H642   H     0.77872   0.35863   0.14335   0.00000  Uiso   1.00
C643   C     0.88195   0.61629   0.32427   0.00000  Uiso   1.00
C644   C     0.86317   0.61573   0.37024   0.00000  Uiso   1.00
C645   C     0.89720   0.61110   0.41086   0.00000  Uiso   1.00
H646   H     0.91659   0.58055   0.40698   0.00000  Uiso   1.00
H647   H     0.91751   0.64151   0.41391   0.00000  Uiso   1.00
H648   H     0.88289   0.60763   0.44261   0.00000  Uiso   1.00
H649   H     0.84383   0.64616   0.37478   0.00000  Uiso   1.00
H650   H     0.84083   0.58838   0.37277   0.00000  Uiso   1.00
H651   H     0.89070   0.58188   0.31518   0.00000  Uiso   1.00
H652   H     0.91327   0.63213   0.32887   0.00000  Uiso   1.00
C653   C     0.87676   0.38156   0.33003   0.00000  Uiso   1.00
C654   C     0.91637   0.40942   0.32702   0.00000  Uiso   1.00
C655   C     0.95002   0.40333   0.36806   0.00000  Uiso   1.00
H656   H     0.93754   0.41259   0.39990   0.00000  Uiso   1.00
H657   H     0.96131   0.36754   0.37034   0.00000  Uiso   1.00
H658   H     0.97675   0.42582   0.36427   0.00000  Uiso   1.00
H659   H     0.93011   0.39867   0.29681   0.00000  Uiso   1.00
H660   H     0.90883   0.44611   0.32634   0.00000  Uiso   1.00
H661   H     0.85408   0.39770   0.34935   0.00000  Uiso   1.00
H662   H     0.88784   0.35791   0.35661   0.00000  Uiso   1.00
C663   C     0.78509   0.61687   0.17555   0.00000  Uiso   1.00
C664   C     0.80434   0.61638   0.12986   0.00000  Uiso   1.00
C665   C     0.77071   0.61170   0.08894   0.00000  Uiso   1.00
H666   H     0.75167   0.58104   0.09262   0.00000  Uiso   1.00
H667   H     0.75000   0.64201   0.08568   0.00000  Uiso   1.00
H668   H     0.78537   0.60840   0.05739   0.00000  Uiso   1.00
H669   H     0.82333   0.64693   0.12546   0.00000  Uiso   1.00
H670   H     0.82714   0.58914   0.12769   0.00000  Uiso   1.00
H671   H     0.77626   0.58254   0.18465   0.00000  Uiso   1.00
H672   H     0.75372   0.63290   0.17062   0.00000  Uiso   1.00
C673   C     0.08792   0.83370   0.25313   0.00000  Uiso   1.00
C674   C     0.24510   0.83345   0.24580   0.00000  Uiso   1.00
C675   C     0.09085   0.82955   0.01282   0.00000  Uiso   1.00
C676   C     0.24237   0.83040   0.48715   0.00000  Uiso   1.00
C677   C     0.02118   0.79390   0.25677   0.00000  Uiso   1.00
C678   C     0.31074   0.87622   0.24070   0.00000  Uiso   1.00
C679   C     0.31209   0.79330   0.24276   0.00000  Uiso   1.00
C680   C     0.02064   0.87684   0.25033   0.00000  Uiso   1.00
C681   C     0.28946   0.83429   0.24085   0.00000  Uiso   1.00
C682   C     0.04303   0.83507   0.25559   0.00000  Uiso   1.00
C683   C     0.14492   0.69144   0.21391   0.00000  Uiso   1.00
C684   C     0.18845   0.97496   0.28558   0.00000  Uiso   1.00
C685   C     0.18839   0.69119   0.28611   0.00000  Uiso   1.00
C686   C     0.14494   0.97524   0.21441   0.00000  Uiso   1.00
C687   C     0.16611   0.83319   0.16482   0.00000  Uiso   1.00
C688   C     0.16712   0.83315   0.33517   0.00000  Uiso   1.00
C689   C     0.20440   0.83091   0.41170   0.00000  Uiso   1.00
C690   C     0.12883   0.83056   0.08829   0.00000  Uiso   1.00
C691   C     0.16687   0.83217   0.38325   0.00000  Uiso   1.00
C692   C     0.16634   0.83232   0.11673   0.00000  Uiso   1.00
C693   C     0.12902   0.83136   0.40021   0.00000  Uiso   1.00
C694   C     0.20419   0.83195   0.09976   0.00000  Uiso   1.00
C695   C     0.12796   0.83076   0.44714   0.00000  Uiso   1.00
C696   C     0.20526   0.83128   0.05283   0.00000  Uiso   1.00
C697   C     0.16640   0.83101   0.47642   0.00000  Uiso   1.00
C698   C     0.16681   0.83105   0.02356   0.00000  Uiso   1.00
C699   C     0.20455   0.83081   0.45844   0.00000  Uiso   1.00
C700   C     0.12866   0.83043   0.04154   0.00000  Uiso   1.00
C701   C     0.08984   0.82962   0.46559   0.00000  Uiso   1.00
C702   C     0.24339   0.83051   0.03437   0.00000  Uiso   1.00
Cu703  Cu    0.16667   0.88022   0.25000   0.00000  Uiso   1.00
Cu704  Cu    0.16667   0.78645   0.25000   0.00000  Uiso   1.00
H705   H     0.23333   0.83049   0.39724   0.00000  Uiso   1.00
H706   H     0.09992   0.82975   0.10276   0.00000  Uiso   1.00
H707   H     0.10088   0.83127   0.37616   0.00000  Uiso   1.00
H708   H     0.23233   0.83218   0.12380   0.00000  Uiso   1.00
H709   H     0.06193   0.82884   0.02736   0.00000  Uiso   1.00
H710   H     0.27129   0.83003   0.47259   0.00000  Uiso   1.00
N711   N     0.16667   0.95069   0.25000   0.00000  Uiso   1.00
N712   N     0.16667   0.71598   0.25000   0.00000  Uiso   1.00
O713   O     0.10655   0.87291   0.24999   0.00000  Uiso   1.00
O714   O     0.22679   0.79375   0.25000   0.00000  Uiso   1.00
O715   O     0.22679   0.87291   0.25000   0.00000  Uiso   1.00
O716   O     0.10655   0.79375   0.24999   0.00000  Uiso   1.00
O717   O     0.16666   0.87293   0.18513   0.00000  Uiso   1.00
O718   O     0.16668   0.79373   0.31487   0.00000  Uiso   1.00
O719   O     0.16668   0.87293   0.31487   0.00000  Uiso   1.00
O720   O     0.16666   0.79373   0.18513   0.00000  Uiso   1.00
C721   C     0.04787   0.82688   0.43623   0.00000  Uiso   1.00
C722   C     0.03409   0.87331   0.41546   0.00000  Uiso   1.00
C723   C     0.32999   0.86841   0.37884   0.00000  Uiso   1.00
H724   H     0.00495   0.84723   0.35037   0.00000  Uiso   1.00
H725   H     0.30384   0.85222   0.39325   0.00000  Uiso   1.00
H726   H     0.31985   0.90250   0.36531   0.00000  Uiso   1.00
H727   H     0.02567   0.89613   0.44266   0.00000  Uiso   1.00
H728   H     0.05962   0.88972   0.40009   0.00000  Uiso   1.00
H729   H     0.04907   0.80071   0.40944   0.00000  Uiso   1.00
H730   H     0.02365   0.81500   0.45668   0.00000  Uiso   1.00
C731   C     0.28543   0.82821   0.06367   0.00000  Uiso   1.00
C732   C     0.29852   0.87485   0.08391   0.00000  Uiso   1.00
C733   C     0.00418   0.87068   0.11864   0.00000  Uiso   1.00
H734   H     0.33148   0.84848   0.14733   0.00000  Uiso   1.00
H735   H     0.03006   0.85594   0.10243   0.00000  Uiso   1.00
H736   H     0.01349   0.90485   0.13226   0.00000  Uiso   1.00
H737   H     0.30493   0.89814   0.05616   0.00000  Uiso   1.00
H738   H     0.27336   0.89035   0.10083   0.00000  Uiso   1.00
H739   H     0.28473   0.80224   0.09078   0.00000  Uiso   1.00
H740   H     0.30974   0.81636   0.04323   0.00000  Uiso   1.00
Br741  Br    0.04541   0.74033   0.28786   0.00000  Uiso   1.00
Br742  Br    0.28286   0.93276   0.22015   0.00000  Uiso   1.00
Br743  Br    0.28895   0.73820   0.21449   0.00000  Uiso   1.00
Br744  Br    0.04628   0.93608   0.26239   0.00000  Uiso   1.00
C745   C     0.12286   0.71539   0.17013   0.00000  Uiso   1.00
C746   C     0.08302   0.74308   0.17351   0.00000  Uiso   1.00
C747   C     0.04896   0.73662   0.13301   0.00000  Uiso   1.00
H748   H     0.06084   0.74582   0.10083   0.00000  Uiso   1.00
H749   H     0.03818   0.70076   0.13121   0.00000  Uiso   1.00
H750   H     0.02203   0.75899   0.13707   0.00000  Uiso   1.00
H751   H     0.06983   0.73252   0.20415   0.00000  Uiso   1.00
H752   H     0.09022   0.77980   0.17367   0.00000  Uiso   1.00
H753   H     0.14524   0.73170   0.15070   0.00000  Uiso   1.00
H754   H     0.11205   0.69197   0.14335   0.00000  Uiso   1.00
C755   C     0.21528   0.94963   0.32427   0.00000  Uiso   1.00
C756   C     0.19651   0.94906   0.37024   0.00000  Uiso   1.00
C757   C     0.23053   0.94444   0.41086   0.00000  Uiso   1.00
H758   H     0.24992   0.91388   0.40698   0.00000  Uiso   1.00
H759   H     0.25085   0.97484   0.41391   0.00000  Uiso   1.00
H760   H     0.21623   0.94096   0.44261   0.00000  Uiso   1.00
H761   H     0.17716   0.97949   0.37478   0.00000  Uiso   1.00
H762   H     0.17416   0.92171   0.37277   0.00000  Uiso   1.00
H763   H     0.22403   0.91521   0.31518   0.00000  Uiso   1.00
H764   H     0.24660   0.96546   0.32887   0.00000  Uiso   1.00
C765   C     0.21010   0.71489   0.33003   0.00000  Uiso   1.00
C766   C     0.24971   0.74275   0.32702   0.00000  Uiso   1.00
C767   C     0.28335   0.73666   0.36806   0.00000  Uiso   1.00
H768   H     0.27087   0.74592   0.39990   0.00000  Uiso   1.00
H769   H     0.29465   0.70087   0.37034   0.00000  Uiso   1.00
H770   H     0.31009   0.75915   0.36427   0.00000  Uiso   1.00
H771   H     0.26344   0.73201   0.29681   0.00000  Uiso   1.00
H772   H     0.24217   0.77944   0.32634   0.00000  Uiso   1.00
H773   H     0.18742   0.73103   0.34935   0.00000  Uiso   1.00
H774   H     0.22117   0.69125   0.35661   0.00000  Uiso   1.00
C775   C     0.11842   0.95020   0.17555   0.00000  Uiso   1.00
C776   C     0.13768   0.94971   0.12986   0.00000  Uiso   1.00
C777   C     0.10404   0.94503   0.08894   0.00000  Uiso   1.00
H778   H     0.08500   0.91437   0.09262   0.00000  Uiso   1.00
H779   H     0.08333   0.97535   0.08568   0.00000  Uiso   1.00
H780   H     0.11871   0.94173   0.05739   0.00000  Uiso   1.00
H781   H     0.15667   0.98026   0.12546   0.00000  Uiso   1.00
H782   H     0.16047   0.92247   0.12769   0.00000  Uiso   1.00
H783   H     0.10959   0.91587   0.18465   0.00000  Uiso   1.00
H784   H     0.08705   0.96623   0.17062   0.00000  Uiso   1.00
C785   C     0.42125   0.83370   0.25313   0.00000  Uiso   1.00
C786   C     0.57844   0.83345   0.24580   0.00000  Uiso   1.00
C787   C     0.42418   0.82955   0.01282   0.00000  Uiso   1.00
C788   C     0.57570   0.83040   0.48715   0.00000  Uiso   1.00
C789   C     0.35451   0.79390   0.25677   0.00000  Uiso   1.00
C790   C     0.64407   0.87622   0.24070   0.00000  Uiso   1.00
C791   C     0.64542   0.79330   0.24276   0.00000  Uiso   1.00
C792   C     0.35397   0.87684   0.25033   0.00000  Uiso   1.00
C793   C     0.62280   0.83429   0.24085   0.00000  Uiso   1.00
C794   C     0.37636   0.83507   0.25559   0.00000  Uiso   1.00
C795   C     0.47826   0.69144   0.21391   0.00000  Uiso   1.00
C796   C     0.52178   0.97496   0.28558   0.00000  Uiso   1.00
C797   C     0.52172   0.69119   0.28611   0.00000  Uiso   1.00
C798   C     0.47827   0.97524   0.21441   0.00000  Uiso   1.00
C799   C     0.49944   0.83319   0.16482   0.00000  Uiso   1.00
C800   C     0.50046   0.83315   0.33517   0.00000  Uiso   1.00
C801   C     0.53774   0.83091   0.41170   0.00000  Uiso   1.00
C802   C     0.46216   0.83056   0.08829   0.00000  Uiso   1.00
C803   C     0.50021   0.83217   0.38325   0.00000  Uiso   1.00
C804   C     0.49967   0.83232   0.11673   0.00000  Uiso   1.00
C805   C     0.46235   0.83136   0.40021   0.00000  Uiso   1.00
C806   C     0.53753   0.83195   0.09976   0.00000  Uiso   1.00
C807   C     0.46129   0.83076   0.44714   0.00000  Uiso   1.00
C808   C     0.53859   0.83128   0.05283   0.00000  Uiso   1.00
C809   C     0.49973   0.83101   0.47642   0.00000  Uiso   1.00
C810   C     0.50014   0.83105   0.02356   0.00000  Uiso   1.00
C811   C     0.53789   0.83081   0.45844   0.00000  Uiso   1.00
C812   C     0.46199   0.83043   0.04154   0.00000  Uiso   1.00
C813   C     0.42317   0.82962   0.46559   0.00000  Uiso   1.00
C814   C     0.57672   0.83051   0.03437   0.00000  Uiso   1.00
Cu815  Cu    0.50000   0.88022   0.25000   0.00000  Uiso   1.00
Cu816  Cu    0.50000   0.78645   0.25000   0.00000  Uiso   1.00
H817   H     0.56666   0.83049   0.39724   0.00000  Uiso   1.00
H818   H     0.43325   0.82975   0.10276   0.00000  Uiso   1.00
H819   H     0.43421   0.83127   0.37616   0.00000  Uiso   1.00
H820   H     0.56566   0.83218   0.12380   0.00000  Uiso   1.00
H821   H     0.39527   0.82884   0.02736   0.00000  Uiso   1.00
H822   H     0.60463   0.83003   0.47259   0.00000  Uiso   1.00
N823   N     0.50000   0.95069   0.25000   0.00000  Uiso   1.00
N824   N     0.50000   0.71598   0.25000   0.00000  Uiso   1.00
O825   O     0.43988   0.87291   0.24999   0.00000  Uiso   1.00
O826   O     0.56012   0.79375   0.25000   0.00000  Uiso   1.00
O827   O     0.56012   0.87291   0.25000   0.00000  Uiso   1.00
O828   O     0.43988   0.79375   0.24999   0.00000  Uiso   1.00
O829   O     0.49999   0.87293   0.18513   0.00000  Uiso   1.00
O830   O     0.50001   0.79373   0.31487   0.00000  Uiso   1.00
O831   O     0.50001   0.87293   0.31487   0.00000  Uiso   1.00
O832   O     0.49999   0.79373   0.18513   0.00000  Uiso   1.00
C833   C     0.38120   0.82688   0.43623   0.00000  Uiso   1.00
C834   C     0.36743   0.87331   0.41546   0.00000  Uiso   1.00
C835   C     0.66333   0.86841   0.37884   0.00000  Uiso   1.00
H836   H     0.33828   0.84723   0.35037   0.00000  Uiso   1.00
H837   H     0.63717   0.85222   0.39325   0.00000  Uiso   1.00
H838   H     0.65319   0.90250   0.36531   0.00000  Uiso   1.00
H839   H     0.35900   0.89613   0.44266   0.00000  Uiso   1.00
H840   H     0.39295   0.88972   0.40009   0.00000  Uiso   1.00
H841   H     0.38240   0.80071   0.40944   0.00000  Uiso   1.00
H842   H     0.35699   0.81500   0.45668   0.00000  Uiso   1.00
C843   C     0.61876   0.82821   0.06367   0.00000  Uiso   1.00
C844   C     0.63186   0.87485   0.08391   0.00000  Uiso   1.00
C845   C     0.33751   0.87068   0.11864   0.00000  Uiso   1.00
H846   H     0.66482   0.84848   0.14733   0.00000  Uiso   1.00
H847   H     0.36339   0.85594   0.10243   0.00000  Uiso   1.00
H848   H     0.34683   0.90485   0.13226   0.00000  Uiso   1.00
H849   H     0.63827   0.89814   0.05616   0.00000  Uiso   1.00
H850   H     0.60669   0.89035   0.10083   0.00000  Uiso   1.00
H851   H     0.61807   0.80224   0.09078   0.00000  Uiso   1.00
H852   H     0.64307   0.81636   0.04323   0.00000  Uiso   1.00
Br853  Br    0.37875   0.74033   0.28786   0.00000  Uiso   1.00
Br854  Br    0.61619   0.93276   0.22015   0.00000  Uiso   1.00
Br855  Br    0.62228   0.73820   0.21449   0.00000  Uiso   1.00
Br856  Br    0.37961   0.93608   0.26239   0.00000  Uiso   1.00
C857   C     0.45620   0.71539   0.17013   0.00000  Uiso   1.00
C858   C     0.41635   0.74308   0.17351   0.00000  Uiso   1.00
C859   C     0.38230   0.73662   0.13301   0.00000  Uiso   1.00
H860   H     0.39418   0.74582   0.10083   0.00000  Uiso   1.00
H861   H     0.37151   0.70076   0.13121   0.00000  Uiso   1.00
H862   H     0.35537   0.75899   0.13707   0.00000  Uiso   1.00
H863   H     0.40316   0.73252   0.20415   0.00000  Uiso   1.00
H864   H     0.42355   0.77980   0.17367   0.00000  Uiso   1.00
H865   H     0.47857   0.73170   0.15070   0.00000  Uiso   1.00
H866   H     0.44538   0.69197   0.14335   0.00000  Uiso   1.00
C867   C     0.54862   0.94963   0.32427   0.00000  Uiso   1.00
C868   C     0.52984   0.94906   0.37024   0.00000  Uiso   1.00
C869   C     0.56386   0.94444   0.41086   0.00000  Uiso   1.00
H870   H     0.58325   0.91388   0.40698   0.00000  Uiso   1.00
H871   H     0.58418   0.97484   0.41391   0.00000  Uiso   1.00
H872   H     0.54956   0.94096   0.44261   0.00000  Uiso   1.00
H873   H     0.51049   0.97949   0.37478   0.00000  Uiso   1.00
H874   H     0.50749   0.92171   0.37277   0.00000  Uiso   1.00
H875   H     0.55736   0.91521   0.31518   0.00000  Uiso   1.00
H876   H     0.57994   0.96546   0.32887   0.00000  Uiso   1.00
C877   C     0.54343   0.71489   0.33003   0.00000  Uiso   1.00
C878   C     0.58304   0.74275   0.32702   0.00000  Uiso   1.00
C879   C     0.61669   0.73666   0.36806   0.00000  Uiso   1.00
H880   H     0.60421   0.74592   0.39990   0.00000  Uiso   1.00
H881   H     0.62798   0.70087   0.37034   0.00000  Uiso   1.00
H882   H     0.64342   0.75915   0.36427   0.00000  Uiso   1.00
H883   H     0.59677   0.73201   0.29681   0.00000  Uiso   1.00
H884   H     0.57550   0.77944   0.32634   0.00000  Uiso   1.00
H885   H     0.52075   0.73103   0.34935   0.00000  Uiso   1.00
H886   H     0.55451   0.69125   0.35661   0.00000  Uiso   1.00
C887   C     0.45176   0.95020   0.17555   0.00000  Uiso   1.00
C888   C     0.47101   0.94971   0.12986   0.00000  Uiso   1.00
C889   C     0.43738   0.94503   0.08894   0.00000  Uiso   1.00
H890   H     0.41834   0.91437   0.09262   0.00000  Uiso   1.00
H891   H     0.41666   0.97535   0.08568   0.00000  Uiso   1.00
H892   H     0.45204   0.94173   0.05739   0.00000  Uiso   1.00
H893   H     0.49000   0.98026   0.12546   0.00000  Uiso   1.00
H894   H     0.49380   0.92247   0.12769   0.00000  Uiso   1.00
H895   H     0.44293   0.91587   0.18465   0.00000  Uiso   1.00
H896   H     0.42039   0.96623   0.17062   0.00000  Uiso   1.00
C897   C     0.75458   0.83370   0.25313   0.00000  Uiso   1.00
C898   C     0.91177   0.83345   0.24580   0.00000  Uiso   1.00
C899   C     0.75752   0.82955   0.01282   0.00000  Uiso   1.00
C900   C     0.90903   0.83040   0.48715   0.00000  Uiso   1.00
C901   C     0.68784   0.79390   0.25677   0.00000  Uiso   1.00
C902   C     0.97741   0.87622   0.24070   0.00000  Uiso   1.00
C903   C     0.97875   0.79330   0.24276   0.00000  Uiso   1.00
C904   C     0.68730   0.87684   0.25033   0.00000  Uiso   1.00
C905   C     0.95613   0.83429   0.24085   0.00000  Uiso   1.00
C906   C     0.70969   0.83507   0.25559   0.00000  Uiso   1.00
C907   C     0.81159   0.69144   0.21391   0.00000  Uiso   1.00
C908   C     0.85512   0.97496   0.28558   0.00000  Uiso   1.00
C909   C     0.85505   0.69119   0.28611   0.00000  Uiso   1.00
C910   C     0.81161   0.97524   0.21441   0.00000  Uiso   1.00
C911   C     0.83277   0.83319   0.16482   0.00000  Uiso   1.00
C912   C     0.83379   0.83315   0.33517   0.00000  Uiso   1.00
C913   C     0.87107   0.83091   0.41170   0.00000  Uiso   1.00
C914   C     0.79549   0.83056   0.08829   0.00000  Uiso   1.00
C915   C     0.83354   0.83217   0.38325   0.00000  Uiso   1.00
C916   C     0.83300   0.83232   0.11673   0.00000  Uiso   1.00
C917   C     0.79569   0.83136   0.40021   0.00000  Uiso   1.00
C918   C     0.87086   0.83195   0.09976   0.00000  Uiso   1.00
C919   C     0.79463   0.83076   0.44714   0.00000  Uiso   1.00
C920   C     0.87192   0.83128   0.05283   0.00000  Uiso   1.00
C921   C     0.83307   0.83101   0.47642   0.00000  Uiso   1.00
C922   C     0.83347   0.83105   0.02356   0.00000  Uiso   1.00
C923   C     0.87122   0.83081   0.45844   0.00000  Uiso   1.00
C924   C     0.79533   0.83043   0.04154   0.00000  Uiso   1.00
C925   C     0.75650   0.82962   0.46559   0.00000  Uiso   1.00
C926   C     0.91005   0.83051   0.03437   0.00000  Uiso   1.00
Cu927  Cu    0.83333   0.88022   0.25000   0.00000  Uiso   1.00
Cu928  Cu    0.83333   0.78645   0.25000   0.00000  Uiso   1.00
H929   H     0.90000   0.83049   0.39724   0.00000  Uiso   1.00
H930   H     0.76659   0.82975   0.10276   0.00000  Uiso   1.00
H931   H     0.76755   0.83127   0.37616   0.00000  Uiso   1.00
H932   H     0.89900   0.83218   0.12380   0.00000  Uiso   1.00
H933   H     0.72860   0.82884   0.02736   0.00000  Uiso   1.00
H934   H     0.93796   0.83003   0.47259   0.00000  Uiso   1.00
N935   N     0.83333   0.95069   0.25000   0.00000  Uiso   1.00
N936   N     0.83333   0.71598   0.25000   0.00000  Uiso   1.00
O937   O     0.77321   0.87291   0.24999   0.00000  Uiso   1.00
O938   O     0.89345   0.79375   0.25000   0.00000  Uiso   1.00
O939   O     0.89345   0.87291   0.25000   0.00000  Uiso   1.00
O940   O     0.77321   0.79375   0.24999   0.00000  Uiso   1.00
O941   O     0.83332   0.87293   0.18513   0.00000  Uiso   1.00
O942   O     0.83334   0.79373   0.31487   0.00000  Uiso   1.00
O943   O     0.83334   0.87293   0.31487   0.00000  Uiso   1.00
O944   O     0.83332   0.79373   0.18513   0.00000  Uiso   1.00
C945   C     0.71453   0.82688   0.43623   0.00000  Uiso   1.00
C946   C     0.70076   0.87331   0.41546   0.00000  Uiso   1.00
C947   C     0.99666   0.86841   0.37884   0.00000  Uiso   1.00
H948   H     0.67162   0.84723   0.35037   0.00000  Uiso   1.00
H949   H     0.97051   0.85222   0.39325   0.00000  Uiso   1.00
H950   H     0.98652   0.90250   0.36531   0.00000  Uiso   1.00
H951   H     0.69233   0.89613   0.44266   0.00000  Uiso   1.00
H952   H     0.72629   0.88972   0.40009   0.00000  Uiso   1.00
H953   H     0.71573   0.80071   0.40944   0.00000  Uiso   1.00
H954   H     0.69032   0.81500   0.45668   0.00000  Uiso   1.00
C955   C     0.95209   0.82821   0.06367   0.00000  Uiso   1.00
C956   C     0.96519   0.87485   0.08391   0.00000  Uiso   1.00
C957   C     0.67084   0.87068   0.11864   0.00000  Uiso   1.00
H958   H     0.99815   0.84848   0.14733   0.00000  Uiso   1.00
H959   H     0.69673   0.85594   0.10243   0.00000  Uiso   1.00
H960   H     0.68016   0.90485   0.13226   0.00000  Uiso   1.00
H961   H     0.97160   0.89814   0.05616   0.00000  Uiso   1.00
H962   H     0.94003   0.89035   0.10083   0.00000  Uiso   1.00
H963   H     0.95140   0.80224   0.09078   0.00000  Uiso   1.00
H964   H     0.97640   0.81636   0.04323   0.00000  Uiso   1.00
Br965  Br    0.71208   0.74033   0.28786   0.00000  Uiso   1.00
Br966  Br    0.94953   0.93276   0.22015   0.00000  Uiso   1.00
Br967  Br    0.95561   0.73820   0.21449   0.00000  Uiso   1.00
Br968  Br    0.71294   0.93608   0.26239   0.00000  Uiso   1.00
C969   C     0.78953   0.71539   0.17013   0.00000  Uiso   1.00
C970   C     0.74968   0.74308   0.17351   0.00000  Uiso   1.00
C971   C     0.71563   0.73662   0.13301   0.00000  Uiso   1.00
H972   H     0.72751   0.74582   0.10083   0.00000  Uiso   1.00
H973   H     0.70484   0.70076   0.13121   0.00000  Uiso   1.00
H974   H     0.68870   0.75899   0.13707   0.00000  Uiso   1.00
H975   H     0.73649   0.73252   0.20415   0.00000  Uiso   1.00
H976   H     0.75688   0.77980   0.17367   0.00000  Uiso   1.00
H977   H     0.81190   0.73170   0.15070   0.00000  Uiso   1.00
H978   H     0.77872   0.69197   0.14335   0.00000  Uiso   1.00
C979   C     0.88195   0.94963   0.32427   0.00000  Uiso   1.00
C980   C     0.86317   0.94906   0.37024   0.00000  Uiso   1.00
C981   C     0.89720   0.94444   0.41086   0.00000  Uiso   1.00
H982   H     0.91659   0.91388   0.40698   0.00000  Uiso   1.00
H983   H     0.91751   0.97484   0.41391   0.00000  Uiso   1.00
H984   H     0.88289   0.94096   0.44261   0.00000  Uiso   1.00
H985   H     0.84383   0.97949   0.37478   0.00000  Uiso   1.00
H986   H     0.84083   0.92171   0.37277   0.00000  Uiso   1.00
H987   H     0.89070   0.91521   0.31518   0.00000  Uiso   1.00
H988   H     0.91327   0.96546   0.32887   0.00000  Uiso   1.00
C989   C     0.87676   0.71489   0.33003   0.00000  Uiso   1.00
C990   C     0.91637   0.74275   0.32702   0.00000  Uiso   1.00
C991   C     0.95002   0.73666   0.36806   0.00000  Uiso   1.00
H992   H     0.93754   0.74592   0.39990   0.00000  Uiso   1.00
H993   H     0.96131   0.70087   0.37034   0.00000  Uiso   1.00
H994   H     0.97675   0.75915   0.36427   0.00000  Uiso   1.00
H995   H     0.93011   0.73201   0.29681   0.00000  Uiso   1.00
H996   H     0.90883   0.77944   0.32634   0.00000  Uiso   1.00
H997   H     0.85408   0.73103   0.34935   0.00000  Uiso   1.00
H998   H     0.88784   0.69125   0.35661   0.00000  Uiso   1.00
C999   C     0.78509   0.95020   0.17555   0.00000  Uiso   1.00
C1000  C     0.80434   0.94971   0.12986   0.00000  Uiso   1.00
C1001  C     0.77071   0.94503   0.08894   0.00000  Uiso   1.00
H1002  H     0.75167   0.91437   0.09262   0.00000  Uiso   1.00
H1003  H     0.75000   0.97535   0.08568   0.00000  Uiso   1.00
H1004  H     0.78537   0.94173   0.05739   0.00000  Uiso   1.00
H1005  H     0.82333   0.98026   0.12546   0.00000  Uiso   1.00
H1006  H     0.82714   0.92247   0.12769   0.00000  Uiso   1.00
H1007  H     0.77626   0.91587   0.18465   0.00000  Uiso   1.00
H1008  H     0.75372   0.96623   0.17062   0.00000  Uiso   1.00
C1009  C     0.08792   0.16703   0.75313   0.00000  Uiso   1.00
C1010  C     0.24510   0.16678   0.74580   0.00000  Uiso   1.00
C1011  C     0.09085   0.16288   0.51282   0.00000  Uiso   1.00
C1012  C     0.24237   0.16373   0.98715   0.00000  Uiso   1.00
C1013  C     0.02118   0.12723   0.75677   0.00000  Uiso   1.00
C1014  C     0.31074   0.20955   0.74070   0.00000  Uiso   1.00
C1015  C     0.31209   0.12664   0.74276   0.00000  Uiso   1.00
C1016  C     0.02064   0.21018   0.75033   0.00000  Uiso   1.00
C1017  C     0.28946   0.16762   0.74085   0.00000  Uiso   1.00
C1018  C     0.04303   0.16840   0.75559   0.00000  Uiso   1.00
C1019  C     0.14492   0.02478   0.71391   0.00000  Uiso   1.00
C1020  C     0.18845   0.30830   0.78558   0.00000  Uiso   1.00
C1021  C     0.18839   0.02452   0.78611   0.00000  Uiso   1.00
C1022  C     0.14494   0.30857   0.71441   0.00000  Uiso   1.00
C1023  C     0.16611   0.16653   0.66482   0.00000  Uiso   1.00
C1024  C     0.16712   0.16648   0.83517   0.00000  Uiso   1.00
C1025  C     0.20440   0.16424   0.91170   0.00000  Uiso   1.00
C1026  C     0.12883   0.16390   0.58829   0.00000  Uiso   1.00
C1027  C     0.16687   0.16551   0.88325   0.00000  Uiso   1.00
C1028  C     0.16634   0.16565   0.61673   0.00000  Uiso   1.00
C1029  C     0.12902   0.16469   0.90021   0.00000  Uiso   1.00
C1030  C     0.20419   0.16528   0.59976   0.00000  Uiso   1.00
C1031  C     0.12796   0.16409   0.94714   0.00000  Uiso   1.00
C1032  C     0.20526   0.16462   0.55283   0.00000  Uiso   1.00
C1033  C     0.16640   0.16434   0.97642   0.00000  Uiso   1.00
C1034  C     0.16681   0.16438   0.52356   0.00000  Uiso   1.00
C1035  C     0.20455   0.16415   0.95844   0.00000  Uiso   1.00
C1036  C     0.12866   0.16377   0.54154   0.00000  Uiso   1.00
C1037  C     0.08984   0.16295   0.96559   0.00000  Uiso   1.00
C1038  C     0.24339   0.16384   0.53437   0.00000  Uiso   1.00
Cu1039 Cu    0.16667   0.21355   0.75000   0.00000  Uiso   1.00
Cu1040 Cu    0.16667   0.11978   0.75000   0.00000  Uiso   1.00
H1041  H     0.23333   0.16382   0.89724   0.00000  Uiso   1.00
H1042  H     0.09992   0.16308   0.60276   0.00000  Uiso   1.00
H1043  H     0.10088   0.16461   0.87616   0.00000  Uiso   1.00
H1044  H     0.23233   0.16551   0.62380   0.00000  Uiso   1.00
H1045  H     0.06193   0.16218   0.52736   0.00000  Uiso   1.00
H1046  H     0.27129   0.16336   0.97259   0.00000  Uiso   1.00
N1047  N     0.16667   0.28402   0.75000   0.00000  Uiso   1.00
N1048  N     0.16667   0.04931   0.75000   0.00000  Uiso   1.00
O1049  O     0.10655   0.20625   0.74999   0.00000  Uiso   1.00
O1050  O     0.22679   0.12709   0.75000   0.00000  Uiso   1.00
O1051  O     0.22679   0.20625   0.75000   0.00000  Uiso   1.00
O1052  O     0.10655   0.12709   0.74999   0.00000  Uiso   1.00
O1053  O     0.16666   0.20627   0.68513   0.00000  Uiso   1.00
O1054  O     0.16668   0.12707   0.81487   0.00000  Uiso   1.00
O1055  O     0.16668   0.20627   0.81487   0.00000  Uiso   1.00
O1056  O     0.16666   0.12707   0.68513   0.00000  Uiso   1.00
C1057  C     0.04787   0.16021   0.93623   0.00000  Uiso   1.00
C1058  C     0.03409   0.20665   0.91546   0.00000  Uiso   1.00
C1059  C     0.32999   0.20174   0.87884   0.00000  Uiso   1.00
H1060  H     0.00495   0.18057   0.85037   0.00000  Uiso   1.00
H1061  H     0.30384   0.18555   0.89325   0.00000  Uiso   1.00
H1062  H     0.31985   0.23583   0.86531   0.00000  Uiso   1.00
H1063  H     0.02567   0.22947   0.94266   0.00000  Uiso   1.00
H1064  H     0.05962   0.22306   0.90009   0.00000  Uiso   1.00
H1065  H     0.04907   0.13404   0.90944   0.00000  Uiso   1.00
H1066  H     0.02365   0.14833   0.95668   0.00000  Uiso   1.00
C1067  C     0.28543   0.16154   0.56367   0.00000  Uiso   1.00
C1068  C     0.29852   0.20818   0.58391   0.00000  Uiso   1.00
C1069  C     0.00418   0.20401   0.61864   0.00000  Uiso   1.00
H1070  H     0.33148   0.18181   0.64733   0.00000  Uiso   1.00
H1071  H     0.03006   0.18927   0.60243   0.00000  Uiso   1.00
H1072  H     0.01349   0.23818   0.63226   0.00000  Uiso   1.00
H1073  H     0.30493   0.23148   0.55616   0.00000  Uiso   1.00
H1074  H     0.27336   0.22368   0.60083   0.00000  Uiso   1.00
H1075  H     0.28473   0.13557   0.59078   0.00000  Uiso   1.00
H1076  H     0.30974   0.14969   0.54323   0.00000  Uiso   1.00
Br1077 Br    0.04541   0.07367   0.78786   0.00000  Uiso   1.00
Br1078 Br    0.28286   0.26609   0.72015   0.00000  Uiso   1.00
Br1079 Br    0.28895   0.07153   0.71449   0.00000  Uiso   1.00
Br1080 Br    0.04628   0.26941   0.76239   0.00000  Uiso   1.00
C1081  C     0.12286   0.04872   0.67013   0.00000  Uiso   1.00
C1082  C     0.08302   0.07642   0.67351   0.00000  Uiso   1.00
C1083  C     0.04896   0.06996   0.63301   0.00000  Uiso   1.00
H1084  H     0.06084   0.07915   0.60083   0.00000  Uiso   1.00
H1085  H     0.03818   0.03409   0.63121   0.00000  Uiso   1.00
H1086  H     0.02203   0.09233   0.63707   0.00000  Uiso   1.00
H1087  H     0.06983   0.06585   0.70415   0.00000  Uiso   1.00
H1088  H     0.09022   0.11313   0.67367   0.00000  Uiso   1.00
H1089  H     0.14524   0.06503   0.65070   0.00000  Uiso   1.00
H1090  H     0.11205   0.02530   0.64335   0.00000  Uiso   1.00
C1091  C     0.21528   0.28296   0.82427   0.00000  Uiso   1.00
C1092  C     0.19651   0.28240   0.87024   0.00000  Uiso   1.00
C1093  C     0.23053   0.27777   0.91086   0.00000  Uiso   1.00
H1094  H     0.24992   0.24722   0.90698   0.00000  Uiso   1.00
H1095  H     0.25085   0.30818   0.91391   0.00000  Uiso   1.00
H1096  H     0.21623   0.27430   0.94261   0.00000  Uiso   1.00
H1097  H     0.17716   0.31283   0.87478   0.00000  Uiso   1.00
H1098  H     0.17416   0.25505   0.87277   0.00000  Uiso   1.00
H1099  H     0.22403   0.24854   0.81518   0.00000  Uiso   1.00
H1100  H     0.24660   0.29879   0.82887   0.00000  Uiso   1.00
C1101  C     0.21010   0.04823   0.83003   0.00000  Uiso   1.00
C1102  C     0.24971   0.07608   0.82702   0.00000  Uiso   1.00
C1103  C     0.28335   0.06999   0.86806   0.00000  Uiso   1.00
H1104  H     0.27087   0.07925   0.89990   0.00000  Uiso   1.00
H1105  H     0.29465   0.03420   0.87034   0.00000  Uiso   1.00
H1106  H     0.31009   0.09248   0.86427   0.00000  Uiso   1.00
H1107  H     0.26344   0.06534   0.79681   0.00000  Uiso   1.00
H1108  H     0.24217   0.11278   0.82634   0.00000  Uiso   1.00
H1109  H     0.18742   0.06437   0.84935   0.00000  Uiso   1.00
H1110  H     0.22117   0.02458   0.85661   0.00000  Uiso   1.00
C1111  C     0.11842   0.28353   0.67555   0.00000  Uiso   1.00
C1112  C     0.13768   0.28304   0.62986   0.00000  Uiso   1.00
C1113  C     0.10404   0.27836   0.58894   0.00000  Uiso   1.00
H1114  H     0.08500   0.24770   0.59262   0.00000  Uiso   1.00
H1115  H     0.08333   0.30868   0.58568   0.00000  Uiso   1.00
H1116  H     0.11871   0.27506   0.55739   0.00000  Uiso   1.00
H1117  H     0.15667   0.31359   0.62546   0.00000  Uiso   1.00
H1118  H     0.16047   0.25580   0.62769   0.00000  Uiso   1.00
H1119  H     0.10959   0.24921   0.68465   0.00000  Uiso   1.00
H1120  H     0.08705   0.29956   0.67062   0.00000  Uiso   1.00
C1121  C     0.42125   0.16703   0.75313   0.00000  Uiso   1.00
C1122  C     0.57844   0.16678   0.74580   0.00000  Uiso   1.00
C1123  C     0.42418   0.16288   0.51282   0.00000  Uiso   1.00
C1124  C     0.57570   0.16373   0.98715   0.00000  Uiso   1.00
C1125  C     0.35451   0.12723   0.75677   0.00000  Uiso   1.00
C1126  C     0.64407   0.20955   0.74070   0.00000  Uiso   1.00
C1127  C     0.64542   0.12664   0.74276   0.00000  Uiso   1.00
C1128  C     0.35397   0.21018   0.75033   0.00000  Uiso   1.00
C1129  C     0.62280   0.16762   0.74085   0.00000  Uiso   1.00
C1130  C     0.37636   0.16840   0.75559   0.00000  Uiso   1.00
C1131  C     0.47826   0.02478   0.71391   0.00000  Uiso   1.00
C1132  C     0.52178   0.30830   0.78558   0.00000  Uiso   1.00
C1133  C     0.52172   0.02452   0.78611   0.00000  Uiso   1.00
C1134  C     0.47827   0.30857   0.71441   0.00000  Uiso   1.00
C1135  C     0.49944   0.16653   0.66482   0.00000  Uiso   1.00
C1136  C     0.50046   0.16648   0.83517   0.00000  Uiso   1.00
C1137  C     0.53774   0.16424   0.91170   0.00000  Uiso   1.00
C1138  C     0.46216   0.16390   0.58829   0.00000  Uiso   1.00
C1139  C     0.50021   0.16551   0.88325   0.00000  Uiso   1.00
C1140  C     0.49967   0.16565   0.61673   0.00000  Uiso   1.00
C1141  C     0.46235   0.16469   0.90021   0.00000  Uiso   1.00
C1142  C     0.53753   0.16528   0.59976   0.00000  Uiso   1.00
C1143  C     0.46129   0.16409   0.94714   0.00000  Uiso   1.00
C1144  C     0.53859   0.16462   0.55283   0.00000  Uiso   1.00
C1145  C     0.49973   0.16434   0.97642   0.00000  Uiso   1.00
C1146  C     0.50014   0.16438   0.52356   0.00000  Uiso   1.00
C1147  C     0.53789   0.16415   0.95844   0.00000  Uiso   1.00
C1148  C     0.46199   0.16377   0.54154   0.00000  Uiso   1.00
C1149  C     0.42317   0.16295   0.96559   0.00000  Uiso   1.00
C1150  C     0.57672   0.16384   0.53437   0.00000  Uiso   1.00
Cu1151 Cu    0.50000   0.21355   0.75000   0.00000  Uiso   1.00
Cu1152 Cu    0.50000   0.11978   0.75000   0.00000  Uiso   1.00
H1153  H     0.56666   0.16382   0.89724   0.00000  Uiso   1.00
H1154  H     0.43325   0.16308   0.60276   0.00000  Uiso   1.00
H1155  H     0.43421   0.16461   0.87616   0.00000  Uiso   1.00
H1156  H     0.56566   0.16551   0.62380   0.00000  Uiso   1.00
H1157  H     0.39527   0.16218   0.52736   0.00000  Uiso   1.00
H1158  H     0.60463   0.16336   0.97259   0.00000  Uiso   1.00
N1159  N     0.50000   0.28402   0.75000   0.00000  Uiso   1.00
N1160  N     0.50000   0.04931   0.75000   0.00000  Uiso   1.00
O1161  O     0.43988   0.20625   0.74999   0.00000  Uiso   1.00
O1162  O     0.56012   0.12709   0.75000   0.00000  Uiso   1.00
O1163  O     0.56012   0.20625   0.75000   0.00000  Uiso   1.00
O1164  O     0.43988   0.12709   0.74999   0.00000  Uiso   1.00
O1165  O     0.49999   0.20627   0.68513   0.00000  Uiso   1.00
O1166  O     0.50001   0.12707   0.81487   0.00000  Uiso   1.00
O1167  O     0.50001   0.20627   0.81487   0.00000  Uiso   1.00
O1168  O     0.49999   0.12707   0.68513   0.00000  Uiso   1.00
C1169  C     0.38120   0.16021   0.93623   0.00000  Uiso   1.00
C1170  C     0.36743   0.20665   0.91546   0.00000  Uiso   1.00
C1171  C     0.66333   0.20174   0.87884   0.00000  Uiso   1.00
H1172  H     0.33828   0.18057   0.85037   0.00000  Uiso   1.00
H1173  H     0.63717   0.18555   0.89325   0.00000  Uiso   1.00
H1174  H     0.65319   0.23583   0.86531   0.00000  Uiso   1.00
H1175  H     0.35900   0.22947   0.94266   0.00000  Uiso   1.00
H1176  H     0.39295   0.22306   0.90009   0.00000  Uiso   1.00
H1177  H     0.38240   0.13404   0.90944   0.00000  Uiso   1.00
H1178  H     0.35699   0.14833   0.95668   0.00000  Uiso   1.00
C1179  C     0.61876   0.16154   0.56367   0.00000  Uiso   1.00
C1180  C     0.63186   0.20818   0.58391   0.00000  Uiso   1.00
C1181  C     0.33751   0.20401   0.61864   0.00000  Uiso   1.00
H1182  H     0.66482   0.18181   0.64733   0.00000  Uiso   1.00
H1183  H     0.36339   0.18927   0.60243   0.00000  Uiso   1.00
H1184  H     0.34683   0.23818   0.63226   0.00000  Uiso   1.00
H1185  H     0.63827   0.23148   0.55616   0.00000  Uiso   1.00
H1186  H     0.60669   0.22368   0.60083   0.00000  Uiso   1.00
H1187  H     0.61807   0.13557   0.59078   0.00000  Uiso   1.00
H1188  H     0.64307   0.14969   0.54323   0.00000  Uiso   1.00
Br1189 Br    0.37875   0.07367   0.78786   0.00000  Uiso   1.00
Br1190 Br    0.61619   0.26609   0.72015   0.00000  Uiso   1.00
Br1191 Br    0.62228   0.07153   0.71449   0.00000  Uiso   1.00
Br1192 Br    0.37961   0.26941   0.76239   0.00000  Uiso   1.00
C1193  C     0.45620   0.04872   0.67013   0.00000  Uiso   1.00
C1194  C     0.41635   0.07642   0.67351   0.00000  Uiso   1.00
C1195  C     0.38230   0.06996   0.63301   0.00000  Uiso   1.00
H1196  H     0.39418   0.07915   0.60083   0.00000  Uiso   1.00
H1197  H     0.37151   0.03409   0.63121   0.00000  Uiso   1.00
H1198  H     0.35537   0.09233   0.63707   0.00000  Uiso   1.00
H1199  H     0.40316   0.06585   0.70415   0.00000  Uiso   1.00
H1200  H     0.42355   0.11313   0.67367   0.00000  Uiso   1.00
H1201  H     0.47857   0.06503   0.65070   0.00000  Uiso   1.00
H1202  H     0.44538   0.02530   0.64335   0.00000  Uiso   1.00
C1203  C     0.54862   0.28296   0.82427   0.00000  Uiso   1.00
C1204  C     0.52984   0.28240   0.87024   0.00000  Uiso   1.00
C1205  C     0.56386   0.27777   0.91086   0.00000  Uiso   1.00
H1206  H     0.58325   0.24722   0.90698   0.00000  Uiso   1.00
H1207  H     0.58418   0.30818   0.91391   0.00000  Uiso   1.00
H1208  H     0.54956   0.27430   0.94261   0.00000  Uiso   1.00
H1209  H     0.51049   0.31283   0.87478   0.00000  Uiso   1.00
H1210  H     0.50749   0.25505   0.87277   0.00000  Uiso   1.00
H1211  H     0.55736   0.24854   0.81518   0.00000  Uiso   1.00
H1212  H     0.57994   0.29879   0.82887   0.00000  Uiso   1.00
C1213  C     0.54343   0.04823   0.83003   0.00000  Uiso   1.00
C1214  C     0.58304   0.07608   0.82702   0.00000  Uiso   1.00
C1215  C     0.61669   0.06999   0.86806   0.00000  Uiso   1.00
H1216  H     0.60421   0.07925   0.89990   0.00000  Uiso   1.00
H1217  H     0.62798   0.03420   0.87034   0.00000  Uiso   1.00
H1218  H     0.64342   0.09248   0.86427   0.00000  Uiso   1.00
H1219  H     0.59677   0.06534   0.79681   0.00000  Uiso   1.00
H1220  H     0.57550   0.11278   0.82634   0.00000  Uiso   1.00
H1221  H     0.52075   0.06437   0.84935   0.00000  Uiso   1.00
H1222  H     0.55451   0.02458   0.85661   0.00000  Uiso   1.00
C1223  C     0.45176   0.28353   0.67555   0.00000  Uiso   1.00
C1224  C     0.47101   0.28304   0.62986   0.00000  Uiso   1.00
C1225  C     0.43738   0.27836   0.58894   0.00000  Uiso   1.00
H1226  H     0.41834   0.24770   0.59262   0.00000  Uiso   1.00
H1227  H     0.41666   0.30868   0.58568   0.00000  Uiso   1.00
H1228  H     0.45204   0.27506   0.55739   0.00000  Uiso   1.00
H1229  H     0.49000   0.31359   0.62546   0.00000  Uiso   1.00
H1230  H     0.49380   0.25580   0.62769   0.00000  Uiso   1.00
H1231  H     0.44293   0.24921   0.68465   0.00000  Uiso   1.00
H1232  H     0.42039   0.29956   0.67062   0.00000  Uiso   1.00
C1233  C     0.75458   0.16703   0.75313   0.00000  Uiso   1.00
C1234  C     0.91177   0.16678   0.74580   0.00000  Uiso   1.00
C1235  C     0.75752   0.16288   0.51282   0.00000  Uiso   1.00
C1236  C     0.90903   0.16373   0.98715   0.00000  Uiso   1.00
C1237  C     0.68784   0.12723   0.75677   0.00000  Uiso   1.00
C1238  C     0.97741   0.20955   0.74070   0.00000  Uiso   1.00
C1239  C     0.97875   0.12664   0.74276   0.00000  Uiso   1.00
C1240  C     0.68730   0.21018   0.75033   0.00000  Uiso   1.00
C1241  C     0.95613   0.16762   0.74085   0.00000  Uiso   1.00
C1242  C     0.70969   0.16840   0.75559   0.00000  Uiso   1.00
C1243  C     0.81159   0.02478   0.71391   0.00000  Uiso   1.00
C1244  C     0.85512   0.30830   0.78558   0.00000  Uiso   1.00
C1245  C     0.85505   0.02452   0.78611   0.00000  Uiso   1.00
C1246  C     0.81161   0.30857   0.71441   0.00000  Uiso   1.00
C1247  C     0.83277   0.16653   0.66482   0.00000  Uiso   1.00
C1248  C     0.83379   0.16648   0.83517   0.00000  Uiso   1.00
C1249  C     0.87107   0.16424   0.91170   0.00000  Uiso   1.00
C1250  C     0.79549   0.16390   0.58829   0.00000  Uiso   1.00
C1251  C     0.83354   0.16551   0.88325   0.00000  Uiso   1.00
C1252  C     0.83300   0.16565   0.61673   0.00000  Uiso   1.00
C1253  C     0.79569   0.16469   0.90021   0.00000  Uiso   1.00
C1254  C     0.87086   0.16528   0.59976   0.00000  Uiso   1.00
C1255  C     0.79463   0.16409   0.94714   0.00000  Uiso   1.00
C1256  C     0.87192   0.16462   0.55283   0.00000  Uiso   1.00
C1257  C     0.83307   0.16434   0.97642   0.00000  Uiso   1.00
C1258  C     0.83347   0.16438   0.52356   0.00000  Uiso   1.00
C1259  C     0.87122   0.16415   0.95844   0.00000  Uiso   1.00
C1260  C     0.79533   0.16377   0.54154   0.00000  Uiso   1.00
C1261  C     0.75650   0.16295   0.96559   0.00000  Uiso   1.00
C1262  C     0.91005   0.16384   0.53437   0.00000  Uiso   1.00
Cu1263 Cu    0.83333   0.21355   0.75000   0.00000  Uiso   1.00
Cu1264 Cu    0.83333   0.11978   0.75000   0.00000  Uiso   1.00
H1265  H     0.90000   0.16382   0.89724   0.00000  Uiso   1.00
H1266  H     0.76659   0.16308   0.60276   0.00000  Uiso   1.00
H1267  H     0.76755   0.16461   0.87616   0.00000  Uiso   1.00
H1268  H     0.89900   0.16551   0.62380   0.00000  Uiso   1.00
H1269  H     0.72860   0.16218   0.52736   0.00000  Uiso   1.00
H1270  H     0.93796   0.16336   0.97259   0.00000  Uiso   1.00
N1271  N     0.83333   0.28402   0.75000   0.00000  Uiso   1.00
N1272  N     0.83333   0.04931   0.75000   0.00000  Uiso   1.00
O1273  O     0.77321   0.20625   0.74999   0.00000  Uiso   1.00
O1274  O     0.89345   0.12709   0.75000   0.00000  Uiso   1.00
O1275  O     0.89345   0.20625   0.75000   0.00000  Uiso   1.00
O1276  O     0.77321   0.12709   0.74999   0.00000  Uiso   1.00
O1277  O     0.83332   0.20627   0.68513   0.00000  Uiso   1.00
O1278  O     0.83334   0.12707   0.81487   0.00000  Uiso   1.00
O1279  O     0.83334   0.20627   0.81487   0.00000  Uiso   1.00
O1280  O     0.83332   0.12707   0.68513   0.00000  Uiso   1.00
C1281  C     0.71453   0.16021   0.93623   0.00000  Uiso   1.00
C1282  C     0.70076   0.20665   0.91546   0.00000  Uiso   1.00
C1283  C     0.99666   0.20174   0.87884   0.00000  Uiso   1.00
H1284  H     0.67162   0.18057   0.85037   0.00000  Uiso   1.00
H1285  H     0.97051   0.18555   0.89325   0.00000  Uiso   1.00
H1286  H     0.98652   0.23583   0.86531   0.00000  Uiso   1.00
H1287  H     0.69233   0.22947   0.94266   0.00000  Uiso   1.00
H1288  H     0.72629   0.22306   0.90009   0.00000  Uiso   1.00
H1289  H     0.71573   0.13404   0.90944   0.00000  Uiso   1.00
H1290  H     0.69032   0.14833   0.95668   0.00000  Uiso   1.00
C1291  C     0.95209   0.16154   0.56367   0.00000  Uiso   1.00
C1292  C     0.96519   0.20818   0.58391   0.00000  Uiso   1.00
C1293  C     0.67084   0.20401   0.61864   0.00000  Uiso   1.00
H1294  H     0.99815   0.18181   0.64733   0.00000  Uiso   1.00
H1295  H     0.69673   0.18927   0.60243   0.00000  Uiso   1.00
H1296  H     0.68016   0.23818   0.63226   0.00000  Uiso   1.00
H1297  H     0.97160   0.23148   0.55616   0.00000  Uiso   1.00
H1298  H     0.94003   0.22368   0.60083   0.00000  Uiso   1.00
H1299  H     0.95140   0.13557   0.59078   0.00000  Uiso   1.00
H1300  H     0.97640   0.14969   0.54323   0.00000  Uiso   1.00
Br1301 Br    0.71208   0.07367   0.78786   0.00000  Uiso   1.00
Br1302 Br    0.94953   0.26609   0.72015   0.00000  Uiso   1.00
Br1303 Br    0.95561   0.07153   0.71449   0.00000  Uiso   1.00
Br1304 Br    0.71294   0.26941   0.76239   0.00000  Uiso   1.00
C1305  C     0.78953   0.04872   0.67013   0.00000  Uiso   1.00
C1306  C     0.74968   0.07642   0.67351   0.00000  Uiso   1.00
C1307  C     0.71563   0.06996   0.63301   0.00000  Uiso   1.00
H1308  H     0.72751   0.07915   0.60083   0.00000  Uiso   1.00
H1309  H     0.70484   0.03409   0.63121   0.00000  Uiso   1.00
H1310  H     0.68870   0.09233   0.63707   0.00000  Uiso   1.00
H1311  H     0.73649   0.06585   0.70415   0.00000  Uiso   1.00
H1312  H     0.75688   0.11313   0.67367   0.00000  Uiso   1.00
H1313  H     0.81190   0.06503   0.65070   0.00000  Uiso   1.00
H1314  H     0.77872   0.02530   0.64335   0.00000  Uiso   1.00
C1315  C     0.88195   0.28296   0.82427   0.00000  Uiso   1.00
C1316  C     0.86317   0.28240   0.87024   0.00000  Uiso   1.00
C1317  C     0.89720   0.27777   0.91086   0.00000  Uiso   1.00
H1318  H     0.91659   0.24722   0.90698   0.00000  Uiso   1.00
H1319  H     0.91751   0.30818   0.91391   0.00000  Uiso   1.00
H1320  H     0.88289   0.27430   0.94261   0.00000  Uiso   1.00
H1321  H     0.84383   0.31283   0.87478   0.00000  Uiso   1.00
H1322  H     0.84083   0.25505   0.87277   0.00000  Uiso   1.00
H1323  H     0.89070   0.24854   0.81518   0.00000  Uiso   1.00
H1324  H     0.91327   0.29879   0.82887   0.00000  Uiso   1.00
C1325  C     0.87676   0.04823   0.83003   0.00000  Uiso   1.00
C1326  C     0.91637   0.07608   0.82702   0.00000  Uiso   1.00
C1327  C     0.95002   0.06999   0.86806   0.00000  Uiso   1.00
H1328  H     0.93754   0.07925   0.89990   0.00000  Uiso   1.00
H1329  H     0.96131   0.03420   0.87034   0.00000  Uiso   1.00
H1330  H     0.97675   0.09248   0.86427   0.00000  Uiso   1.00
H1331  H     0.93011   0.06534   0.79681   0.00000  Uiso   1.00
H1332  H     0.90883   0.11278   0.82634   0.00000  Uiso   1.00
H1333  H     0.85408   0.06437   0.84935   0.00000  Uiso   1.00
H1334  H     0.88784   0.02458   0.85661   0.00000  Uiso   1.00
C1335  C     0.78509   0.28353   0.67555   0.00000  Uiso   1.00
C1336  C     0.80434   0.28304   0.62986   0.00000  Uiso   1.00
C1337  C     0.77071   0.27836   0.58894   0.00000  Uiso   1.00
H1338  H     0.75167   0.24770   0.59262   0.00000  Uiso   1.00
H1339  H     0.75000   0.30868   0.58568   0.00000  Uiso   1.00
H1340  H     0.78537   0.27506   0.55739   0.00000  Uiso   1.00
H1341  H     0.82333   0.31359   0.62546   0.00000  Uiso   1.00
H1342  H     0.82714   0.25580   0.62769   0.00000  Uiso   1.00
H1343  H     0.77626   0.24921   0.68465   0.00000  Uiso   1.00
H1344  H     0.75372   0.29956   0.67062   0.00000  Uiso   1.00
C1345  C     0.08792   0.50037   0.75313   0.00000  Uiso   1.00
C1346  C     0.24510   0.50011   0.74580   0.00000  Uiso   1.00
C1347  C     0.09085   0.49621   0.51282   0.00000  Uiso   1.00
C1348  C     0.24237   0.49706   0.98715   0.00000  Uiso   1.00
C1349  C     0.02118   0.46057   0.75677   0.00000  Uiso   1.00
C1350  C     0.31074   0.54289   0.74070   0.00000  Uiso   1.00
C1351  C     0.31209   0.45997   0.74276   0.00000  Uiso   1.00
C1352  C     0.02064   0.54351   0.75033   0.00000  Uiso   1.00
C1353  C     0.28946   0.50095   0.74085   0.00000  Uiso   1.00
C1354  C     0.04303   0.50173   0.75559   0.00000  Uiso   1.00
C1355  C     0.14492   0.35811   0.71391   0.00000  Uiso   1.00
C1356  C     0.18845   0.64163   0.78558   0.00000  Uiso   1.00
C1357  C     0.18839   0.35785   0.78611   0.00000  Uiso   1.00
C1358  C     0.14494   0.64190   0.71441   0.00000  Uiso   1.00
C1359  C     0.16611   0.49986   0.66482   0.00000  Uiso   1.00
C1360  C     0.16712   0.49981   0.83517   0.00000  Uiso   1.00
C1361  C     0.20440   0.49758   0.91170   0.00000  Uiso   1.00
C1362  C     0.12883   0.49723   0.58829   0.00000  Uiso   1.00
C1363  C     0.16687   0.49884   0.88325   0.00000  Uiso   1.00
C1364  C     0.16634   0.49899   0.61673   0.00000  Uiso   1.00
C1365  C     0.12902   0.49802   0.90021   0.00000  Uiso   1.00
C1366  C     0.20419   0.49862   0.59976   0.00000  Uiso   1.00
C1367  C     0.12796   0.49743   0.94714   0.00000  Uiso   1.00
C1368  C     0.20526   0.49795   0.55283   0.00000  Uiso   1.00
C1369  C     0.16640   0.49767   0.97642   0.00000  Uiso   1.00
C1370  C     0.16681   0.49772   0.52356   0.00000  Uiso   1.00
C1371  C     0.20455   0.49748   0.95844   0.00000  Uiso   1.00
C1372  C     0.12866   0.49710   0.54154   0.00000  Uiso   1.00
C1373  C     0.08984   0.49629   0.96559   0.00000  Uiso   1.00
C1374  C     0.24339   0.49718   0.53437   0.00000  Uiso   1.00
Cu1375 Cu    0.16667   0.54689   0.75000   0.00000  Uiso   1.00
Cu1376 Cu    0.16667   0.45311   0.75000   0.00000  Uiso   1.00
H1377  H     0.23333   0.49715   0.89724   0.00000  Uiso   1.00
H1378  H     0.09992   0.49642   0.60276   0.00000  Uiso   1.00
H1379  H     0.10088   0.49794   0.87616   0.00000  Uiso   1.00
H1380  H     0.23233   0.49884   0.62380   0.00000  Uiso   1.00
H1381  H     0.06193   0.49551   0.52736   0.00000  Uiso   1.00
H1382  H     0.27129   0.49669   0.97259   0.00000  Uiso   1.00
N1383  N     0.16667   0.61736   0.75000   0.00000  Uiso   1.00
N1384  N     0.16667   0.38264   0.75000   0.00000  Uiso   1.00
O1385  O     0.10655   0.53958   0.74999   0.00000  Uiso   1.00
O1386  O     0.22679   0.46042   0.75000   0.00000  Uiso   1.00
O1387  O     0.22679   0.53958   0.75000   0.00000  Uiso   1.00
O1388  O     0.10655   0.46042   0.74999   0.00000  Uiso   1.00
O1389  O     0.16666   0.53960   0.68513   0.00000  Uiso   1.00
O1390  O     0.16668   0.46040   0.81487   0.00000  Uiso   1.00
O1391  O     0.16668   0.53960   0.81487   0.00000  Uiso   1.00
O1392  O     0.16666   0.46040   0.68513   0.00000  Uiso   1.00
C1393  C     0.04787   0.49355   0.93623   0.00000  Uiso   1.00
C1394  C     0.03409   0.53998   0.91546   0.00000  Uiso   1.00
C1395  C     0.32999   0.53507   0.87884   0.00000  Uiso   1.00
H1396  H     0.00495   0.51390   0.85037   0.00000  Uiso   1.00
H1397  H     0.30384   0.51889   0.89325   0.00000  Uiso   1.00
H1398  H     0.31985   0.56916   0.86531   0.00000  Uiso   1.00
H1399  H     0.02567   0.56280   0.94266   0.00000  Uiso   1.00
H1400  H     0.05962   0.55639   0.90009   0.00000  Uiso   1.00
H1401  H     0.04907   0.46738   0.90944   0.00000  Uiso   1.00
H1402  H     0.02365   0.48167   0.95668   0.00000  Uiso   1.00
C1403  C     0.28543   0.49488   0.56367   0.00000  Uiso   1.00
C1404  C     0.29852   0.54152   0.58391   0.00000  Uiso   1.00
C1405  C     0.00418   0.53735   0.61864   0.00000  Uiso   1.00
H1406  H     0.33148   0.51515   0.64733   0.00000  Uiso   1.00
H1407  H     0.03006   0.52261   0.60243   0.00000  Uiso   1.00
H1408  H     0.01349   0.57151   0.63226   0.00000  Uiso   1.00
H1409  H     0.30493   0.56481   0.55616   0.00000  Uiso   1.00
H1410  H     0.27336   0.55701   0.60083   0.00000  Uiso   1.00
H1411  H     0.28473   0.46890   0.59078   0.00000  Uiso   1.00
H1412  H     0.30974   0.48303   0.54323   0.00000  Uiso   1.00
Br1413 Br    0.04541   0.40700   0.78786   0.00000  Uiso   1.00
Br1414 Br    0.28286   0.59943   0.72015   0.00000  Uiso   1.00
Br1415 Br    0.28895   0.40487   0.71449   0.00000  Uiso   1.00
Br1416 Br    0.04628   0.60274   0.76239   0.00000  Uiso   1.00
C1417  C     0.12286   0.38206   0.67013   0.00000  Uiso   1.00
C1418  C     0.08302   0.40975   0.67351   0.00000  Uiso   1.00
C1419  C     0.04896   0.40329   0.63301   0.00000  Uiso   1.00
H1420  H     0.06084   0.41248   0.60083   0.00000  Uiso   1.00
H1421  H     0.03818   0.36743   0.63121   0.00000  Uiso   1.00
H1422  H     0.02203   0.42566   0.63707   0.00000  Uiso   1.00
H1423  H     0.06983   0.39918   0.70415   0.00000  Uiso   1.00
H1424  H     0.09022   0.44646   0.67367   0.00000  Uiso   1.00
H1425  H     0.14524   0.39837   0.65070   0.00000  Uiso   1.00
H1426  H     0.11205   0.35863   0.64335   0.00000  Uiso   1.00
C1427  C     0.21528   0.61629   0.82427   0.00000  Uiso   1.00
C1428  C     0.19651   0.61573   0.87024   0.00000  Uiso   1.00
C1429  C     0.23053   0.61110   0.91086   0.00000  Uiso   1.00
H1430  H     0.24992   0.58055   0.90698   0.00000  Uiso   1.00
H1431  H     0.25085   0.64151   0.91391   0.00000  Uiso   1.00
H1432  H     0.21623   0.60763   0.94261   0.00000  Uiso   1.00
H1433  H     0.17716   0.64616   0.87478   0.00000  Uiso   1.00
H1434  H     0.17416   0.58838   0.87277   0.00000  Uiso   1.00
H1435  H     0.22403   0.58188   0.81518   0.00000  Uiso   1.00
H1436  H     0.24660   0.63213   0.82887   0.00000  Uiso   1.00
C1437  C     0.21010   0.38156   0.83003   0.00000  Uiso   1.00
C1438  C     0.24971   0.40942   0.82702   0.00000  Uiso   1.00
C1439  C     0.28335   0.40333   0.86806   0.00000  Uiso   1.00
H1440  H     0.27087   0.41259   0.89990   0.00000  Uiso   1.00
H1441  H     0.29465   0.36754   0.87034   0.00000  Uiso   1.00
H1442  H     0.31009   0.42582   0.86427   0.00000  Uiso   1.00
H1443  H     0.26344   0.39867   0.79681   0.00000  Uiso   1.00
H1444  H     0.24217   0.44611   0.82634   0.00000  Uiso   1.00
H1445  H     0.18742   0.39770   0.84935   0.00000  Uiso   1.00
H1446  H     0.22117   0.35791   0.85661   0.00000  Uiso   1.00
C1447  C     0.11842   0.61687   0.67555   0.00000  Uiso   1.00
C1448  C     0.13768   0.61638   0.62986   0.00000  Uiso   1.00
C1449  C     0.10404   0.61170   0.58894   0.00000  Uiso   1.00
H1450  H     0.08500   0.58104   0.59262   0.00000  Uiso   1.00
H1451  H     0.08333   0.64201   0.58568   0.00000  Uiso   1.00
H1452  H     0.11871   0.60840   0.55739   0.00000  Uiso   1.00
H1453  H     0.15667   0.64693   0.62546   0.00000  Uiso   1.00
H1454  H     0.16047   0.58914   0.62769   0.00000  Uiso   1.00
H1455  H     0.10959   0.58254   0.68465   0.00000  Uiso   1.00
H1456  H     0.08705   0.63290   0.67062   0.00000  Uiso   1.00
C1457  C     0.42125   0.50037   0.75313   0.00000  Uiso   1.00
C1458  C     0.57844   0.50011   0.74580   0.00000  Uiso   1.00
C1459  C     0.42418   0.49621   0.51282   0.00000  Uiso   1.00
C1460  C     0.57570   0.49706   0.98715   0.00000  Uiso   1.00
C1461  C     0.35451   0.46057   0.75677   0.00000  Uiso   1.00
C1462  C     0.64407   0.54289   0.74070   0.00000  Uiso   1.00
C1463  C     0.64542   0.45997   0.74276   0.00000  Uiso   1.00
C1464  C     0.35397   0.54351   0.75033   0.00000  Uiso   1.00
C1465  C     0.62280   0.50095   0.74085   0.00000  Uiso   1.00
C1466  C     0.37636   0.50173   0.75559   0.00000  Uiso   1.00
C1467  C     0.47826   0.35811   0.71391   0.00000  Uiso   1.00
C1468  C     0.52178   0.64163   0.78558   0.00000  Uiso   1.00
C1469  C     0.52172   0.35785   0.78611   0.00000  Uiso   1.00
C1470  C     0.47827   0.64190   0.71441   0.00000  Uiso   1.00
C1471  C     0.49944   0.49986   0.66482   0.00000  Uiso   1.00
C1472  C     0.50046   0.49981   0.83517   0.00000  Uiso   1.00
C1473  C     0.53774   0.49758   0.91170   0.00000  Uiso   1.00
C1474  C     0.46216   0.49723   0.58829   0.00000  Uiso   1.00
C1475  C     0.50021   0.49884   0.88325   0.00000  Uiso   1.00
C1476  C     0.49967   0.49899   0.61673   0.00000  Uiso   1.00
C1477  C     0.46235   0.49802   0.90021   0.00000  Uiso   1.00
C1478  C     0.53753   0.49862   0.59976   0.00000  Uiso   1.00
C1479  C     0.46129   0.49743   0.94714   0.00000  Uiso   1.00
C1480  C     0.53859   0.49795   0.55283   0.00000  Uiso   1.00
C1481  C     0.49973   0.49767   0.97642   0.00000  Uiso   1.00
C1482  C     0.50014   0.49772   0.52356   0.00000  Uiso   1.00
C1483  C     0.53789   0.49748   0.95844   0.00000  Uiso   1.00
C1484  C     0.46199   0.49710   0.54154   0.00000  Uiso   1.00
C1485  C     0.42317   0.49629   0.96559   0.00000  Uiso   1.00
C1486  C     0.57672   0.49718   0.53437   0.00000  Uiso   1.00
Cu1487 Cu    0.50000   0.54689   0.75000   0.00000  Uiso   1.00
Cu1488 Cu    0.50000   0.45311   0.75000   0.00000  Uiso   1.00
H1489  H     0.56666   0.49715   0.89724   0.00000  Uiso   1.00
H1490  H     0.43325   0.49642   0.60276   0.00000  Uiso   1.00
H1491  H     0.43421   0.49794   0.87616   0.00000  Uiso   1.00
H1492  H     0.56566   0.49884   0.62380   0.00000  Uiso   1.00
H1493  H     0.39527   0.49551   0.52736   0.00000  Uiso   1.00
H1494  H     0.60463   0.49669   0.97259   0.00000  Uiso   1.00
N1495  N     0.50000   0.61736   0.75000   0.00000  Uiso   1.00
N1496  N     0.50000   0.38264   0.75000   0.00000  Uiso   1.00
O1497  O     0.43988   0.53958   0.74999   0.00000  Uiso   1.00
O1498  O     0.56012   0.46042   0.75000   0.00000  Uiso   1.00
O1499  O     0.56012   0.53958   0.75000   0.00000  Uiso   1.00
O1500  O     0.43988   0.46042   0.74999   0.00000  Uiso   1.00
O1501  O     0.49999   0.53960   0.68513   0.00000  Uiso   1.00
O1502  O     0.50001   0.46040   0.81487   0.00000  Uiso   1.00
O1503  O     0.50001   0.53960   0.81487   0.00000  Uiso   1.00
O1504  O     0.49999   0.46040   0.68513   0.00000  Uiso   1.00
C1505  C     0.38120   0.49355   0.93623   0.00000  Uiso   1.00
C1506  C     0.36743   0.53998   0.91546   0.00000  Uiso   1.00
C1507  C     0.66333   0.53507   0.87884   0.00000  Uiso   1.00
H1508  H     0.33828   0.51390   0.85037   0.00000  Uiso   1.00
H1509  H     0.63717   0.51889   0.89325   0.00000  Uiso   1.00
H1510  H     0.65319   0.56916   0.86531   0.00000  Uiso   1.00
H1511  H     0.35900   0.56280   0.94266   0.00000  Uiso   1.00
H1512  H     0.39295   0.55639   0.90009   0.00000  Uiso   1.00
H1513  H     0.38240   0.46738   0.90944   0.00000  Uiso   1.00
H1514  H     0.35699   0.48167   0.95668   0.00000  Uiso   1.00
C1515  C     0.61876   0.49488   0.56367   0.00000  Uiso   1.00
C1516  C     0.63186   0.54152   0.58391   0.00000  Uiso   1.00
C1517  C     0.33751   0.53735   0.61864   0.00000  Uiso   1.00
H1518  H     0.66482   0.51515   0.64733   0.00000  Uiso   1.00
H1519  H     0.36339   0.52261   0.60243   0.00000  Uiso   1.00
H1520  H     0.34683   0.57151   0.63226   0.00000  Uiso   1.00
H1521  H     0.63827   0.56481   0.55616   0.00000  Uiso   1.00
H1522  H     0.60669   0.55701   0.60083   0.00000  Uiso   1.00
H1523  H     0.61807   0.46890   0.59078   0.00000  Uiso   1.00
H1524  H     0.64307   0.48303   0.54323   0.00000  Uiso   1.00
Br1525 Br    0.37875   0.40700   0.78786   0.00000  Uiso   1.00
Br1526 Br    0.61619   0.59943   0.72015   0.00000  Uiso   1.00
Br1527 Br    0.62228   0.40487   0.71449   0.00000  Uiso   1.00
Br1528 Br    0.37961   0.60274   0.76239   0.00000  Uiso   1.00
C1529  C     0.45620   0.38206   0.67013   0.00000  Uiso   1.00
C1530  C     0.41635   0.40975   0.67351   0.00000  Uiso   1.00
C1531  C     0.38230   0.40329   0.63301   0.00000  Uiso   1.00
H1532  H     0.39418   0.41248   0.60083   0.00000  Uiso   1.00
H1533  H     0.37151   0.36743   0.63121   0.00000  Uiso   1.00
H1534  H     0.35537   0.42566   0.63707   0.00000  Uiso   1.00
H1535  H     0.40316   0.39918   0.70415   0.00000  Uiso   1.00
H1536  H     0.42355   0.44646   0.67367   0.00000  Uiso   1.00
H1537  H     0.47857   0.39837   0.65070   0.00000  Uiso   1.00
H1538  H     0.44538   0.35863   0.64335   0.00000  Uiso   1.00
C1539  C     0.54862   0.61629   0.82427   0.00000  Uiso   1.00
C1540  C     0.52984   0.61573   0.87024   0.00000  Uiso   1.00
C1541  C     0.56386   0.61110   0.91086   0.00000  Uiso   1.00
H1542  H     0.58325   0.58055   0.90698   0.00000  Uiso   1.00
H1543  H     0.58418   0.64151   0.91391   0.00000  Uiso   1.00
H1544  H     0.54956   0.60763   0.94261   0.00000  Uiso   1.00
H1545  H     0.51049   0.64616   0.87478   0.00000  Uiso   1.00
H1546  H     0.50749   0.58838   0.87277   0.00000  Uiso   1.00
H1547  H     0.55736   0.58188   0.81518   0.00000  Uiso   1.00
H1548  H     0.57994   0.63213   0.82887   0.00000  Uiso   1.00
C1549  C     0.54343   0.38156   0.83003   0.00000  Uiso   1.00
C1550  C     0.58304   0.40942   0.82702   0.00000  Uiso   1.00
C1551  C     0.61669   0.40333   0.86806   0.00000  Uiso   1.00
H1552  H     0.60421   0.41259   0.89990   0.00000  Uiso   1.00
H1553  H     0.62798   0.36754   0.87034   0.00000  Uiso   1.00
H1554  H     0.64342   0.42582   0.86427   0.00000  Uiso   1.00
H1555  H     0.59677   0.39867   0.79681   0.00000  Uiso   1.00
H1556  H     0.57550   0.44611   0.82634   0.00000  Uiso   1.00
H1557  H     0.52075   0.39770   0.84935   0.00000  Uiso   1.00
H1558  H     0.55451   0.35791   0.85661   0.00000  Uiso   1.00
C1559  C     0.45176   0.61687   0.67555   0.00000  Uiso   1.00
C1560  C     0.47101   0.61638   0.62986   0.00000  Uiso   1.00
C1561  C     0.43738   0.61170   0.58894   0.00000  Uiso   1.00
H1562  H     0.41834   0.58104   0.59262   0.00000  Uiso   1.00
H1563  H     0.41666   0.64201   0.58568   0.00000  Uiso   1.00
H1564  H     0.45204   0.60840   0.55739   0.00000  Uiso   1.00
H1565  H     0.49000   0.64693   0.62546   0.00000  Uiso   1.00
H1566  H     0.49380   0.58914   0.62769   0.00000  Uiso   1.00
H1567  H     0.44293   0.58254   0.68465   0.00000  Uiso   1.00
H1568  H     0.42039   0.63290   0.67062   0.00000  Uiso   1.00
C1569  C     0.75458   0.50037   0.75313   0.00000  Uiso   1.00
C1570  C     0.91177   0.50011   0.74580   0.00000  Uiso   1.00
C1571  C     0.75752   0.49621   0.51282   0.00000  Uiso   1.00
C1572  C     0.90903   0.49706   0.98715   0.00000  Uiso   1.00
C1573  C     0.68784   0.46057   0.75677   0.00000  Uiso   1.00
C1574  C     0.97741   0.54289   0.74070   0.00000  Uiso   1.00
C1575  C     0.97875   0.45997   0.74276   0.00000  Uiso   1.00
C1576  C     0.68730   0.54351   0.75033   0.00000  Uiso   1.00
C1577  C     0.95613   0.50095   0.74085   0.00000  Uiso   1.00
C1578  C     0.70969   0.50173   0.75559   0.00000  Uiso   1.00
C1579  C     0.81159   0.35811   0.71391   0.00000  Uiso   1.00
C1580  C     0.85512   0.64163   0.78558   0.00000  Uiso   1.00
C1581  C     0.85505   0.35785   0.78611   0.00000  Uiso   1.00
C1582  C     0.81161   0.64190   0.71441   0.00000  Uiso   1.00
C1583  C     0.83277   0.49986   0.66482   0.00000  Uiso   1.00
C1584  C     0.83379   0.49981   0.83517   0.00000  Uiso   1.00
C1585  C     0.87107   0.49758   0.91170   0.00000  Uiso   1.00
C1586  C     0.79549   0.49723   0.58829   0.00000  Uiso   1.00
C1587  C     0.83354   0.49884   0.88325   0.00000  Uiso   1.00
C1588  C     0.83300   0.49899   0.61673   0.00000  Uiso   1.00
C1589  C     0.79569   0.49802   0.90021   0.00000  Uiso   1.00
C1590  C     0.87086   0.49862   0.59976   0.00000  Uiso   1.00
C1591  C     0.79463   0.49743   0.94714   0.00000  Uiso   1.00
C1592  C     0.87192   0.49795   0.55283   0.00000  Uiso   1.00
C1593  C     0.83307   0.49767   0.97642   0.00000  Uiso   1.00
C1594  C     0.83347   0.49772   0.52356   0.00000  Uiso   1.00
C1595  C     0.87122   0.49748   0.95844   0.00000  Uiso   1.00
C1596  C     0.79533   0.49710   0.54154   0.00000  Uiso   1.00
C1597  C     0.75650   0.49629   0.96559   0.00000  Uiso   1.00
C1598  C     0.91005   0.49718   0.53437   0.00000  Uiso   1.00
Cu1599 Cu    0.83333   0.54689   0.75000   0.00000  Uiso   1.00
Cu1600 Cu    0.83333   0.45311   0.75000   0.00000  Uiso   1.00
H1601  H     0.90000   0.49715   0.89724   0.00000  Uiso   1.00
H1602  H     0.76659   0.49642   0.60276   0.00000  Uiso   1.00
H1603  H     0.76755   0.49794   0.87616   0.00000  Uiso   1.00
H1604  H     0.89900   0.49884   0.62380   0.00000  Uiso   1.00
H1605  H     0.72860   0.49551   0.52736   0.00000  Uiso   1.00
H1606  H     0.93796   0.49669   0.97259   0.00000  Uiso   1.00
N1607  N     0.83333   0.61736   0.75000   0.00000  Uiso   1.00
N1608  N     0.83333   0.38264   0.75000   0.00000  Uiso   1.00
O1609  O     0.77321   0.53958   0.74999   0.00000  Uiso   1.00
O1610  O     0.89345   0.46042   0.75000   0.00000  Uiso   1.00
O1611  O     0.89345   0.53958   0.75000   0.00000  Uiso   1.00
O1612  O     0.77321   0.46042   0.74999   0.00000  Uiso   1.00
O1613  O     0.83332   0.53960   0.68513   0.00000  Uiso   1.00
O1614  O     0.83334   0.46040   0.81487   0.00000  Uiso   1.00
O1615  O     0.83334   0.53960   0.81487   0.00000  Uiso   1.00
O1616  O     0.83332   0.46040   0.68513   0.00000  Uiso   1.00
C1617  C     0.71453   0.49355   0.93623   0.00000  Uiso   1.00
C1618  C     0.70076   0.53998   0.91546   0.00000  Uiso   1.00
C1619  C     0.99666   0.53507   0.87884   0.00000  Uiso   1.00
H1620  H     0.67162   0.51390   0.85037   0.00000  Uiso   1.00
H1621  H     0.97051   0.51889   0.89325   0.00000  Uiso   1.00
H1622  H     0.98652   0.56916   0.86531   0.00000  Uiso   1.00
H1623  H     0.69233   0.56280   0.94266   0.00000  Uiso   1.00
H1624  H     0.72629   0.55639   0.90009   0.00000  Uiso   1.00
H1625  H     0.71573   0.46738   0.90944   0.00000  Uiso   1.00
H1626  H     0.69032   0.48167   0.95668   0.00000  Uiso   1.00
C1627  C     0.95209   0.49488   0.56367   0.00000  Uiso   1.00
C1628  C     0.96519   0.54152   0.58391   0.00000  Uiso   1.00
C1629  C     0.67084   0.53735   0.61864   0.00000  Uiso   1.00
H1630  H     0.99815   0.51515   0.64733   0.00000  Uiso   1.00
H1631  H     0.69673   0.52261   0.60243   0.00000  Uiso   1.00
H1632  H     0.68016   0.57151   0.63226   0.00000  Uiso   1.00
H1633  H     0.97160   0.56481   0.55616   0.00000  Uiso   1.00
H1634  H     0.94003   0.55701   0.60083   0.00000  Uiso   1.00
H1635  H     0.95140   0.46890   0.59078   0.00000  Uiso   1.00
H1636  H     0.97640   0.48303   0.54323   0.00000  Uiso   1.00
Br1637 Br    0.71208   0.40700   0.78786   0.00000  Uiso   1.00
Br1638 Br    0.94953   0.59943   0.72015   0.00000  Uiso   1.00
Br1639 Br    0.95561   0.40487   0.71449   0.00000  Uiso   1.00
Br1640 Br    0.71294   0.60274   0.76239   0.00000  Uiso   1.00
C1641  C     0.78953   0.38206   0.67013   0.00000  Uiso   1.00
C1642  C     0.74968   0.40975   0.67351   0.00000  Uiso   1.00
C1643  C     0.71563   0.40329   0.63301   0.00000  Uiso   1.00
H1644  H     0.72751   0.41248   0.60083   0.00000  Uiso   1.00
H1645  H     0.70484   0.36743   0.63121   0.00000  Uiso   1.00
H1646  H     0.68870   0.42566   0.63707   0.00000  Uiso   1.00
H1647  H     0.73649   0.39918   0.70415   0.00000  Uiso   1.00
H1648  H     0.75688   0.44646   0.67367   0.00000  Uiso   1.00
H1649  H     0.81190   0.39837   0.65070   0.00000  Uiso   1.00
H1650  H     0.77872   0.35863   0.64335   0.00000  Uiso   1.00
C1651  C     0.88195   0.61629   0.82427   0.00000  Uiso   1.00
C1652  C     0.86317   0.61573   0.87024   0.00000  Uiso   1.00
C1653  C     0.89720   0.61110   0.91086   0.00000  Uiso   1.00
H1654  H     0.91659   0.58055   0.90698   0.00000  Uiso   1.00
H1655  H     0.91751   0.64151   0.91391   0.00000  Uiso   1.00
H1656  H     0.88289   0.60763   0.94261   0.00000  Uiso   1.00
H1657  H     0.84383   0.64616   0.87478   0.00000  Uiso   1.00
H1658  H     0.84083   0.58838   0.87277   0.00000  Uiso   1.00
H1659  H     0.89070   0.58188   0.81518   0.00000  Uiso   1.00
H1660  H     0.91327   0.63213   0.82887   0.00000  Uiso   1.00
C1661  C     0.87676   0.38156   0.83003   0.00000  Uiso   1.00
C1662  C     0.91637   0.40942   0.82702   0.00000  Uiso   1.00
C1663  C     0.95002   0.40333   0.86806   0.00000  Uiso   1.00
H1664  H     0.93754   0.41259   0.89990   0.00000  Uiso   1.00
H1665  H     0.96131   0.36754   0.87034   0.00000  Uiso   1.00
H1666  H     0.97675   0.42582   0.86427   0.00000  Uiso   1.00
H1667  H     0.93011   0.39867   0.79681   0.00000  Uiso   1.00
H1668  H     0.90883   0.44611   0.82634   0.00000  Uiso   1.00
H1669  H     0.85408   0.39770   0.84935   0.00000  Uiso   1.00
H1670  H     0.88784   0.35791   0.85661   0.00000  Uiso   1.00
C1671  C     0.78509   0.61687   0.67555   0.00000  Uiso   1.00
C1672  C     0.80434   0.61638   0.62986   0.00000  Uiso   1.00
C1673  C     0.77071   0.61170   0.58894   0.00000  Uiso   1.00
H1674  H     0.75167   0.58104   0.59262   0.00000  Uiso   1.00
H1675  H     0.75000   0.64201   0.58568   0.00000  Uiso   1.00
H1676  H     0.78537   0.60840   0.55739   0.00000  Uiso   1.00
H1677  H     0.82333   0.64693   0.62546   0.00000  Uiso   1.00
H1678  H     0.82714   0.58914   0.62769   0.00000  Uiso   1.00
H1679  H     0.77626   0.58254   0.68465   0.00000  Uiso   1.00
H1680  H     0.75372   0.63290   0.67062   0.00000  Uiso   1.00
C1681  C     0.08792   0.83370   0.75313   0.00000  Uiso   1.00
C1682  C     0.24510   0.83345   0.74580   0.00000  Uiso   1.00
C1683  C     0.09085   0.82955   0.51282   0.00000  Uiso   1.00
C1684  C     0.24237   0.83040   0.98715   0.00000  Uiso   1.00
C1685  C     0.02118   0.79390   0.75677   0.00000  Uiso   1.00
C1686  C     0.31074   0.87622   0.74070   0.00000  Uiso   1.00
C1687  C     0.31209   0.79330   0.74276   0.00000  Uiso   1.00
C1688  C     0.02064   0.87684   0.75033   0.00000  Uiso   1.00
C1689  C     0.28946   0.83429   0.74085   0.00000  Uiso   1.00
C1690  C     0.04303   0.83507   0.75559   0.00000  Uiso   1.00
C1691  C     0.14492   0.69144   0.71391   0.00000  Uiso   1.00
C1692  C     0.18845   0.97496   0.78558   0.00000  Uiso   1.00
C1693  C     0.18839   0.69119   0.78611   0.00000  Uiso   1.00
C1694  C     0.14494   0.97524   0.71441   0.00000  Uiso   1.00
C1695  C     0.16611   0.83319   0.66482   0.00000  Uiso   1.00
C1696  C     0.16712   0.83315   0.83517   0.00000  Uiso   1.00
C1697  C     0.20440   0.83091   0.91170   0.00000  Uiso   1.00
C1698  C     0.12883   0.83056   0.58829   0.00000  Uiso   1.00
C1699  C     0.16687   0.83217   0.88325   0.00000  Uiso   1.00
C1700  C     0.16634   0.83232   0.61673   0.00000  Uiso   1.00
C1701  C     0.12902   0.83136   0.90021   0.00000  Uiso   1.00
C1702  C     0.20419   0.83195   0.59976   0.00000  Uiso   1.00
C1703  C     0.12796   0.83076   0.94714   0.00000  Uiso   1.00
C1704  C     0.20526   0.83128   0.55283   0.00000  Uiso   1.00
C1705  C     0.16640   0.83101   0.97642   0.00000  Uiso   1.00
C1706  C     0.16681   0.83105   0.52356   0.00000  Uiso   1.00
C1707  C     0.20455   0.83081   0.95844   0.00000  Uiso   1.00
C1708  C     0.12866   0.83043   0.54154   0.00000  Uiso   1.00
C1709  C     0.08984   0.82962   0.96559   0.00000  Uiso   1.00
C1710  C     0.24339   0.83051   0.53437   0.00000  Uiso   1.00
Cu1711 Cu    0.16667   0.88022   0.75000   0.00000  Uiso   1.00
Cu1712 Cu    0.16667   0.78645   0.75000   0.00000  Uiso   1.00
H1713  H     0.23333   0.83049   0.89724   0.00000  Uiso   1.00
H1714  H     0.09992   0.82975   0.60276   0.00000  Uiso   1.00
H1715  H     0.10088   0.83127   0.87616   0.00000  Uiso   1.00
H1716  H     0.23233   0.83218   0.62380   0.00000  Uiso   1.00
H1717  H     0.06193   0.82884   0.52736   0.00000  Uiso   1.00
H1718  H     0.27129   0.83003   0.97259   0.00000  Uiso   1.00
N1719  N     0.16667   0.95069   0.75000   0.00000  Uiso   1.00
N1720  N     0.16667   0.71598   0.75000   0.00000  Uiso   1.00
O1721  O     0.10655   0.87291   0.74999   0.00000  Uiso   1.00
O1722  O     0.22679   0.79375   0.75000   0.00000  Uiso   1.00
O1723  O     0.22679   0.87291   0.75000   0.00000  Uiso   1.00
O1724  O     0.10655   0.79375   0.74999   0.00000  Uiso   1.00
O1725  O     0.16666   0.87293   0.68513   0.00000  Uiso   1.00
O1726  O     0.16668   0.79373   0.81487   0.00000  Uiso   1.00
O1727  O     0.16668   0.87293   0.81487   0.00000  Uiso   1.00
O1728  O     0.16666   0.79373   0.68513   0.00000  Uiso   1.00
C1729  C     0.04787   0.82688   0.93623   0.00000  Uiso   1.00
C1730  C     0.03409   0.87331   0.91546   0.00000  Uiso   1.00
C1731  C     0.32999   0.86841   0.87884   0.00000  Uiso   1.00
H1732  H     0.00495   0.84723   0.85037   0.00000  Uiso   1.00
H1733  H     0.30384   0.85222   0.89325   0.00000  Uiso   1.00
H1734  H     0.31985   0.90250   0.86531   0.00000  Uiso   1.00
H1735  H     0.02567   0.89613   0.94266   0.00000  Uiso   1.00
H1736  H     0.05962   0.88972   0.90009   0.00000  Uiso   1.00
H1737  H     0.04907   0.80071   0.90944   0.00000  Uiso   1.00
H1738  H     0.02365   0.81500   0.95668   0.00000  Uiso   1.00
C1739  C     0.28543   0.82821   0.56367   0.00000  Uiso   1.00
C1740  C     0.29852   0.87485   0.58391   0.00000  Uiso   1.00
C1741  C     0.00418   0.87068   0.61864   0.00000  Uiso   1.00
H1742  H     0.33148   0.84848   0.64733   0.00000  Uiso   1.00
H1743  H     0.03006   0.85594   0.60243   0.00000  Uiso   1.00
H1744  H     0.01349   0.90485   0.63226   0.00000  Uiso   1.00
H1745  H     0.30493   0.89814   0.55616   0.00000  Uiso   1.00
H1746  H     0.27336   0.89035   0.60083   0.00000  Uiso   1.00
H1747  H     0.28473   0.80224   0.59078   0.00000  Uiso   1.00
H1748  H     0.30974   0.81636   0.54323   0.00000  Uiso   1.00
Br1749 Br    0.04541   0.74033   0.78786   0.00000  Uiso   1.00
Br1750 Br    0.28286   0.93276   0.72015   0.00000  Uiso   1.00
Br1751 Br    0.28895   0.73820   0.71449   0.00000  Uiso   1.00
Br1752 Br    0.04628   0.93608   0.76239   0.00000  Uiso   1.00
C1753  C     0.12286   0.71539   0.67013   0.00000  Uiso   1.00
C1754  C     0.08302   0.74308   0.67351   0.00000  Uiso   1.00
C1755  C     0.04896   0.73662   0.63301   0.00000  Uiso   1.00
H1756  H     0.06084   0.74582   0.60083   0.00000  Uiso   1.00
H1757  H     0.03818   0.70076   0.63121   0.00000  Uiso   1.00
H1758  H     0.02203   0.75899   0.63707   0.00000  Uiso   1.00
H1759  H     0.06983   0.73252   0.70415   0.00000  Uiso   1.00
H1760  H     0.09022   0.77980   0.67367   0.00000  Uiso   1.00
H1761  H     0.14524   0.73170   0.65070   0.00000  Uiso   1.00
H1762  H     0.11205   0.69197   0.64335   0.00000  Uiso   1.00
C1763  C     0.21528   0.94963   0.82427   0.00000  Uiso   1.00
C1764  C     0.19651   0.94906   0.87024   0.00000  Uiso   1.00
C1765  C     0.23053   0.94444   0.91086   0.00000  Uiso   1.00
H1766  H     0.24992   0.91388   0.90698   0.00000  Uiso   1.00
H1767  H     0.25085   0.97484   0.91391   0.00000  Uiso   1.00
H1768  H     0.21623   0.94096   0.94261   0.00000  Uiso   1.00
H1769  H     0.17716   0.97949   0.87478   0.00000  Uiso   1.00
H1770  H     0.17416   0.92171   0.87277   0.00000  Uiso   1.00
H1771  H     0.22403   0.91521   0.81518   0.00000  Uiso   1.00
H1772  H     0.24660   0.96546   0.82887   0.00000  Uiso   1.00
C1773  C     0.21010   0.71489   0.83003   0.00000  Uiso   1.00
C1774  C     0.24971   0.74275   0.82702   0.00000  Uiso   1.00
C1775  C     0.28335   0.73666   0.86806   0.00000  Uiso   1.00
H1776  H     0.27087   0.74592   0.89990   0.00000  Uiso   1.00
H1777  H     0.29465   0.70087   0.87034   0.00000  Uiso   1.00
H1778  H     0.31009   0.75915   0.86427   0.00000  Uiso   1.00
H1779  H     0.26344   0.73201   0.79681   0.00000  Uiso   1.00
H1780  H     0.24217   0.77944   0.82634   0.00000  Uiso   1.00
H1781  H     0.18742   0.73103   0.84935   0.00000  Uiso   1.00
H1782  H     0.22117   0.69125   0.85661   0.00000  Uiso   1.00
C1783  C     0.11842   0.95020   0.67555   0.00000  Uiso   1.00
C1784  C     0.13768   0.94971   0.62986   0.00000  Uiso   1.00
C1785  C     0.10404   0.94503   0.58894   0.00000  Uiso   1.00
H1786  H     0.08500   0.91437   0.59262   0.00000  Uiso   1.00
H1787  H     0.08333   0.97535   0.58568   0.00000  Uiso   1.00
H1788  H     0.11871   0.94173   0.55739   0.00000  Uiso   1.00
H1789  H     0.15667   0.98026   0.62546   0.00000  Uiso   1.00
H1790  H     0.16047   0.92247   0.62769   0.00000  Uiso   1.00
H1791  H     0.10959   0.91587   0.68465   0.00000  Uiso   1.00
H1792  H     0.08705   0.96623   0.67062   0.00000  Uiso   1.00
C1793  C     0.42125   0.83370   0.75313   0.00000  Uiso   1.00
C1794  C     0.57844   0.83345   0.74580   0.00000  Uiso   1.00
C1795  C     0.42418   0.82955   0.51282   0.00000  Uiso   1.00
C1796  C     0.57570   0.83040   0.98715   0.00000  Uiso   1.00
C1797  C     0.35451   0.79390   0.75677   0.00000  Uiso   1.00
C1798  C     0.64407   0.87622   0.74070   0.00000  Uiso   1.00
C1799  C     0.64542   0.79330   0.74276   0.00000  Uiso   1.00
C1800  C     0.35397   0.87684   0.75033   0.00000  Uiso   1.00
C1801  C     0.62280   0.83429   0.74085   0.00000  Uiso   1.00
C1802  C     0.37636   0.83507   0.75559   0.00000  Uiso   1.00
C1803  C     0.47826   0.69144   0.71391   0.00000  Uiso   1.00
C1804  C     0.52178   0.97496   0.78558   0.00000  Uiso   1.00
C1805  C     0.52172   0.69119   0.78611   0.00000  Uiso   1.00
C1806  C     0.47827   0.97524   0.71441   0.00000  Uiso   1.00
C1807  C     0.49944   0.83319   0.66482   0.00000  Uiso   1.00
C1808  C     0.50046   0.83315   0.83517   0.00000  Uiso   1.00
C1809  C     0.53774   0.83091   0.91170   0.00000  Uiso   1.00
C1810  C     0.46216   0.83056   0.58829   0.00000  Uiso   1.00
C1811  C     0.50021   0.83217   0.88325   0.00000  Uiso   1.00
C1812  C     0.49967   0.83232   0.61673   0.00000  Uiso   1.00
C1813  C     0.46235   0.83136   0.90021   0.00000  Uiso   1.00
C1814  C     0.53753   0.83195   0.59976   0.00000  Uiso   1.00
C1815  C     0.46129   0.83076   0.94714   0.00000  Uiso   1.00
C1816  C     0.53859   0.83128   0.55283   0.00000  Uiso   1.00
C1817  C     0.49973   0.83101   0.97642   0.00000  Uiso   1.00
C1818  C     0.50014   0.83105   0.52356   0.00000  Uiso   1.00
C1819  C     0.53789   0.83081   0.95844   0.00000  Uiso   1.00
C1820  C     0.46199   0.83043   0.54154   0.00000  Uiso   1.00
C1821  C     0.42317   0.82962   0.96559   0.00000  Uiso   1.00
C1822  C     0.57672   0.83051   0.53437   0.00000  Uiso   1.00
Cu1823 Cu    0.50000   0.88022   0.75000   0.00000  Uiso   1.00
Cu1824 Cu    0.50000   0.78645   0.75000   0.00000  Uiso   1.00
H1825  H     0.56666   0.83049   0.89724   0.00000  Uiso   1.00
H1826  H     0.43325   0.82975   0.60276   0.00000  Uiso   1.00
H1827  H     0.43421   0.83127   0.87616   0.00000  Uiso   1.00
H1828  H     0.56566   0.83218   0.62380   0.00000  Uiso   1.00
H1829  H     0.39527   0.82884   0.52736   0.00000  Uiso   1.00
H1830  H     0.60463   0.83003   0.97259   0.00000  Uiso   1.00
N1831  N     0.50000   0.95069   0.75000   0.00000  Uiso   1.00
N1832  N     0.50000   0.71598   0.75000   0.00000  Uiso   1.00
O1833  O     0.43988   0.87291   0.74999   0.00000  Uiso   1.00
O1834  O     0.56012   0.79375   0.75000   0.00000  Uiso   1.00
O1835  O     0.56012   0.87291   0.75000   0.00000  Uiso   1.00
O1836  O     0.43988   0.79375   0.74999   0.00000  Uiso   1.00
O1837  O     0.49999   0.87293   0.68513   0.00000  Uiso   1.00
O1838  O     0.50001   0.79373   0.81487   0.00000  Uiso   1.00
O1839  O     0.50001   0.87293   0.81487   0.00000  Uiso   1.00
O1840  O     0.49999   0.79373   0.68513   0.00000  Uiso   1.00
C1841  C     0.38120   0.82688   0.93623   0.00000  Uiso   1.00
C1842  C     0.36743   0.87331   0.91546   0.00000  Uiso   1.00
C1843  C     0.66333   0.86841   0.87884   0.00000  Uiso   1.00
H1844  H     0.33828   0.84723   0.85037   0.00000  Uiso   1.00
H1845  H     0.63717   0.85222   0.89325   0.00000  Uiso   1.00
H1846  H     0.65319   0.90250   0.86531   0.00000  Uiso   1.00
H1847  H     0.35900   0.89613   0.94266   0.00000  Uiso   1.00
H1848  H     0.39295   0.88972   0.90009   0.00000  Uiso   1.00
H1849  H     0.38240   0.80071   0.90944   0.00000  Uiso   1.00
H1850  H     0.35699   0.81500   0.95668   0.00000  Uiso   1.00
C1851  C     0.61876   0.82821   0.56367   0.00000  Uiso   1.00
C1852  C     0.63186   0.87485   0.58391   0.00000  Uiso   1.00
C1853  C     0.33751   0.87068   0.61864   0.00000  Uiso   1.00
H1854  H     0.66482   0.84848   0.64733   0.00000  Uiso   1.00
H1855  H     0.36339   0.85594   0.60243   0.00000  Uiso   1.00
H1856  H     0.34683   0.90485   0.63226   0.00000  Uiso   1.00
H1857  H     0.63827   0.89814   0.55616   0.00000  Uiso   1.00
H1858  H     0.60669   0.89035   0.60083   0.00000  Uiso   1.00
H1859  H     0.61807   0.80224   0.59078   0.00000  Uiso   1.00
H1860  H     0.64307   0.81636   0.54323   0.00000  Uiso   1.00
Br1861 Br    0.37875   0.74033   0.78786   0.00000  Uiso   1.00
Br1862 Br    0.61619   0.93276   0.72015   0.00000  Uiso   1.00
Br1863 Br    0.62228   0.73820   0.71449   0.00000  Uiso   1.00
Br1864 Br    0.37961   0.93608   0.76239   0.00000  Uiso   1.00
C1865  C     0.45620   0.71539   0.67013   0.00000  Uiso   1.00
C1866  C     0.41635   0.74308   0.67351   0.00000  Uiso   1.00
C1867  C     0.38230   0.73662   0.63301   0.00000  Uiso   1.00
H1868  H     0.39418   0.74582   0.60083   0.00000  Uiso   1.00
H1869  H     0.37151   0.70076   0.63121   0.00000  Uiso   1.00
H1870  H     0.35537   0.75899   0.63707   0.00000  Uiso   1.00
H1871  H     0.40316   0.73252   0.70415   0.00000  Uiso   1.00
H1872  H     0.42355   0.77980   0.67367   0.00000  Uiso   1.00
H1873  H     0.47857   0.73170   0.65070   0.00000  Uiso   1.00
H1874  H     0.44538   0.69197   0.64335   0.00000  Uiso   1.00
C1875  C     0.54862   0.94963   0.82427   0.00000  Uiso   1.00
C1876  C     0.52984   0.94906   0.87024   0.00000  Uiso   1.00
C1877  C     0.56386   0.94444   0.91086   0.00000  Uiso   1.00
H1878  H     0.58325   0.91388   0.90698   0.00000  Uiso   1.00
H1879  H     0.58418   0.97484   0.91391   0.00000  Uiso   1.00
H1880  H     0.54956   0.94096   0.94261   0.00000  Uiso   1.00
H1881  H     0.51049   0.97949   0.87478   0.00000  Uiso   1.00
H1882  H     0.50749   0.92171   0.87277   0.00000  Uiso   1.00
H1883  H     0.55736   0.91521   0.81518   0.00000  Uiso   1.00
H1884  H     0.57994   0.96546   0.82887   0.00000  Uiso   1.00
C1885  C     0.54343   0.71489   0.83003   0.00000  Uiso   1.00
C1886  C     0.58304   0.74275   0.82702   0.00000  Uiso   1.00
C1887  C     0.61669   0.73666   0.86806   0.00000  Uiso   1.00
H1888  H     0.60421   0.74592   0.89990   0.00000  Uiso   1.00
H1889  H     0.62798   0.70087   0.87034   0.00000  Uiso   1.00
H1890  H     0.64342   0.75915   0.86427   0.00000  Uiso   1.00
H1891  H     0.59677   0.73201   0.79681   0.00000  Uiso   1.00
H1892  H     0.57550   0.77944   0.82634   0.00000  Uiso   1.00
H1893  H     0.52075   0.73103   0.84935   0.00000  Uiso   1.00
H1894  H     0.55451   0.69125   0.85661   0.00000  Uiso   1.00
C1895  C     0.45176   0.95020   0.67555   0.00000  Uiso   1.00
C1896  C     0.47101   0.94971   0.62986   0.00000  Uiso   1.00
C1897  C     0.43738   0.94503   0.58894   0.00000  Uiso   1.00
H1898  H     0.41834   0.91437   0.59262   0.00000  Uiso   1.00
H1899  H     0.41666   0.97535   0.58568   0.00000  Uiso   1.00
H1900  H     0.45204   0.94173   0.55739   0.00000  Uiso   1.00
H1901  H     0.49000   0.98026   0.62546   0.00000  Uiso   1.00
H1902  H     0.49380   0.92247   0.62769   0.00000  Uiso   1.00
H1903  H     0.44293   0.91587   0.68465   0.00000  Uiso   1.00
H1904  H     0.42039   0.96623   0.67062   0.00000  Uiso   1.00
C1905  C     0.75458   0.83370   0.75313   0.00000  Uiso   1.00
C1906  C     0.91177   0.83345   0.74580   0.00000  Uiso   1.00
C1907  C     0.75752   0.82955   0.51282   0.00000  Uiso   1.00
C1908  C     0.90903   0.83040   0.98715   0.00000  Uiso   1.00
C1909  C     0.68784   0.79390   0.75677   0.00000  Uiso   1.00
C1910  C     0.97741   0.87622   0.74070   0.00000  Uiso   1.00
C1911  C     0.97875   0.79330   0.74276   0.00000  Uiso   1.00
C1912  C     0.68730   0.87684   0.75033   0.00000  Uiso   1.00
C1913  C     0.95613   0.83429   0.74085   0.00000  Uiso   1.00
C1914  C     0.70969   0.83507   0.75559   0.00000  Uiso   1.00
C1915  C     0.81159   0.69144   0.71391   0.00000  Uiso   1.00
C1916  C     0.85512   0.97496   0.78558   0.00000  Uiso   1.00
C1917  C     0.85505   0.69119   0.78611   0.00000  Uiso   1.00
C1918  C     0.81161   0.97524   0.71441   0.00000  Uiso   1.00
C1919  C     0.83277   0.83319   0.66482   0.00000  Uiso   1.00
C1920  C     0.83379   0.83315   0.83517   0.00000  Uiso   1.00
C1921  C     0.87107   0.83091   0.91170   0.00000  Uiso   1.00
C1922  C     0.79549   0.83056   0.58829   0.00000  Uiso   1.00
C1923  C     0.83354   0.83217   0.88325   0.00000  Uiso   1.00
C1924  C     0.83300   0.83232   0.61673   0.00000  Uiso   1.00
C1925  C     0.79569   0.83136   0.90021   0.00000  Uiso   1.00
C1926  C     0.87086   0.83195   0.59976   0.00000  Uiso   1.00
C1927  C     0.79463   0.83076   0.94714   0.00000  Uiso   1.00
C1928  C     0.87192   0.83128   0.55283   0.00000  Uiso   1.00
C1929  C     0.83307   0.83101   0.97642   0.00000  Uiso   1.00
C1930  C     0.83347   0.83105   0.52356   0.00000  Uiso   1.00
C1931  C     0.87122   0.83081   0.95844   0.00000  Uiso   1.00
C1932  C     0.79533   0.83043   0.54154   0.00000  Uiso   1.00
C1933  C     0.75650   0.82962   0.96559   0.00000  Uiso   1.00
C1934  C     0.91005   0.83051   0.53437   0.00000  Uiso   1.00
Cu1935 Cu    0.83333   0.88022   0.75000   0.00000  Uiso   1.00
Cu1936 Cu    0.83333   0.78645   0.75000   0.00000  Uiso   1.00
H1937  H     0.90000   0.83049   0.89724   0.00000  Uiso   1.00
H1938  H     0.76659   0.82975   0.60276   0.00000  Uiso   1.00
H1939  H     0.76755   0.83127   0.87616   0.00000  Uiso   1.00
H1940  H     0.89900   0.83218   0.62380   0.00000  Uiso   1.00
H1941  H     0.72860   0.82884   0.52736   0.00000  Uiso   1.00
H1942  H     0.93796   0.83003   0.97259   0.00000  Uiso   1.00
N1943  N     0.83333   0.95069   0.75000   0.00000  Uiso   1.00
N1944  N     0.83333   0.71598   0.75000   0.00000  Uiso   1.00
O1945  O     0.77321   0.87291   0.74999   0.00000  Uiso   1.00
O1946  O     0.89345   0.79375   0.75000   0.00000  Uiso   1.00
O1947  O     0.89345   0.87291   0.75000   0.00000  Uiso   1.00
O1948  O     0.77321   0.79375   0.74999   0.00000  Uiso   1.00
O1949  O     0.83332   0.87293   0.68513   0.00000  Uiso   1.00
O1950  O     0.83334   0.79373   0.81487   0.00000  Uiso   1.00
O1951  O     0.83334   0.87293   0.81487   0.00000  Uiso   1.00
O1952  O     0.83332   0.79373   0.68513   0.00000  Uiso   1.00
C1953  C     0.71453   0.82688   0.93623   0.00000  Uiso   1.00
C1954  C     0.70076   0.87331   0.91546   0.00000  Uiso   1.00
C1955  C     0.99666   0.86841   0.87884   0.00000  Uiso   1.00
H1956  H     0.67162   0.84723   0.85037   0.00000  Uiso   1.00
H1957  H     0.97051   0.85222   0.89325   0.00000  Uiso   1.00
H1958  H     0.98652   0.90250   0.86531   0.00000  Uiso   1.00
H1959  H     0.69233   0.89613   0.94266   0.00000  Uiso   1.00
H1960  H     0.72629   0.88972   0.90009   0.00000  Uiso   1.00
H1961  H     0.71573   0.80071   0.90944   0.00000  Uiso   1.00
H1962  H     0.69032   0.81500   0.95668   0.00000  Uiso   1.00
C1963  C     0.95209   0.82821   0.56367   0.00000  Uiso   1.00
C1964  C     0.96519   0.87485   0.58391   0.00000  Uiso   1.00
C1965  C     0.67084   0.87068   0.61864   0.00000  Uiso   1.00
H1966  H     0.99815   0.84848   0.64733   0.00000  Uiso   1.00
H1967  H     0.69673   0.85594   0.60243   0.00000  Uiso   1.00
H1968  H     0.68016   0.90485   0.63226   0.00000  Uiso   1.00
H1969  H     0.97160   0.89814   0.55616   0.00000  Uiso   1.00
H1970  H     0.94003   0.89035   0.60083   0.00000  Uiso   1.00
H1971  H     0.95140   0.80224   0.59078   0.00000  Uiso   1.00
H1972  H     0.97640   0.81636   0.54323   0.00000  Uiso   1.00
Br1973 Br    0.71208   0.74033   0.78786   0.00000  Uiso   1.00
Br1974 Br    0.94953   0.93276   0.72015   0.00000  Uiso   1.00
Br1975 Br    0.95561   0.73820   0.71449   0.00000  Uiso   1.00
Br1976 Br    0.71294   0.93608   0.76239   0.00000  Uiso   1.00
C1977  C     0.78953   0.71539   0.67013   0.00000  Uiso   1.00
C1978  C     0.74968   0.74308   0.67351   0.00000  Uiso   1.00
C1979  C     0.71563   0.73662   0.63301   0.00000  Uiso   1.00
H1980  H     0.72751   0.74582   0.60083   0.00000  Uiso   1.00
H1981  H     0.70484   0.70076   0.63121   0.00000  Uiso   1.00
H1982  H     0.68870   0.75899   0.63707   0.00000  Uiso   1.00
H1983  H     0.73649   0.73252   0.70415   0.00000  Uiso   1.00
H1984  H     0.75688   0.77980   0.67367   0.00000  Uiso   1.00
H1985  H     0.81190   0.73170   0.65070   0.00000  Uiso   1.00
H1986  H     0.77872   0.69197   0.64335   0.00000  Uiso   1.00
C1987  C     0.88195   0.94963   0.82427   0.00000  Uiso   1.00
C1988  C     0.86317   0.94906   0.87024   0.00000  Uiso   1.00
C1989  C     0.89720   0.94444   0.91086   0.00000  Uiso   1.00
H1990  H     0.91659   0.91388   0.90698   0.00000  Uiso   1.00
H1991  H     0.91751   0.97484   0.91391   0.00000  Uiso   1.00
H1992  H     0.88289   0.94096   0.94261   0.00000  Uiso   1.00
H1993  H     0.84383   0.97949   0.87478   0.00000  Uiso   1.00
H1994  H     0.84083   0.92171   0.87277   0.00000  Uiso   1.00
H1995  H     0.89070   0.91521   0.81518   0.00000  Uiso   1.00
H1996  H     0.91327   0.96546   0.82887   0.00000  Uiso   1.00
C1997  C     0.87676   0.71489   0.83003   0.00000  Uiso   1.00
C1998  C     0.91637   0.74275   0.82702   0.00000  Uiso   1.00
C1999  C     0.95002   0.73666   0.86806   0.00000  Uiso   1.00
H2000  H     0.93754   0.74592   0.89990   0.00000  Uiso   1.00
H2001  H     0.96131   0.70087   0.87034   0.00000  Uiso   1.00
H2002  H     0.97675   0.75915   0.86427   0.00000  Uiso   1.00
H2003  H     0.93011   0.73201   0.79681   0.00000  Uiso   1.00
H2004  H     0.90883   0.77944   0.82634   0.00000  Uiso   1.00
H2005  H     0.85408   0.73103   0.84935   0.00000  Uiso   1.00
H2006  H     0.88784   0.69125   0.85661   0.00000  Uiso   1.00
C2007  C     0.78509   0.95020   0.67555   0.00000  Uiso   1.00
C2008  C     0.80434   0.94971   0.62986   0.00000  Uiso   1.00
C2009  C     0.77071   0.94503   0.58894   0.00000  Uiso   1.00
H2010  H     0.75167   0.91437   0.59262   0.00000  Uiso   1.00
H2011  H     0.75000   0.97535   0.58568   0.00000  Uiso   1.00
H2012  H     0.78537   0.94173   0.55739   0.00000  Uiso   1.00
H2013  H     0.82333   0.98026   0.62546   0.00000  Uiso   1.00
H2014  H     0.82714   0.92247   0.62769   0.00000  Uiso   1.00
H2015  H     0.77626   0.91587   0.68465   0.00000  Uiso   1.00
H2016  H     0.75372   0.96623   0.67062   0.00000  Uiso   1.00
loop_
_geom_bond_atom_site_label_1
_geom_bond_atom_site_label_2
_geom_bond_distance
_geom_bond_site_symmetry_2
_ccdc_geom_bond_type
C1     O44     1.327   .     A
C1     O41     1.313   .     A
C1     C10     1.469   .     S
C2     O43     1.314   .     A
C2     O42     1.325   .     A
C2     C9      1.467   .     S
C3     C28     1.398   .     A
C3     H37     1.085   .     S
C3     C1037   1.399   1_554 S
C4     H38     1.085   .     S
C4     C27     1.398   .     A
C4     C1038   1.399   .     S
C5     Br69    1.934   .     S
C5     C10     1.408   .     A
C5     C231    1.385   1_455 S
C6     C9      1.416   .     A
C6     Br70    1.946   .     S
C6     C120    1.395   .     S
C7     Br71    1.933   .     S
C7     C9      1.405   .     A
C7     C117    1.385   .     S
C8     Br72    1.945   .     S
C8     C10     1.421   .     A
C8     C230    1.395   1_455 S
C11    N40     1.404   .     A
C11    C73     1.563   .     S
C11    C686    1.456   1_545 S
C12    C83     1.536   .     S
C12    N39     1.390   .     A
C12    C349    1.456   .     S
C13    N40     1.403   .     A
C13    C93     1.564   .     S
C13    C684    1.456   1_545 S
C14    N39     1.389   .     A
C14    C103    1.535   .     S
C14    C347    1.456   .     S
C15    O48     1.305   .     A
C15    C20     1.430   .     S
C15    O45     1.314   .     A
C16    O47     1.314   .     A
C16    O46     1.305   .     A
C16    C19     1.430   .     S
C17    H33     1.084   .     S
C17    C27     1.388   .     A
C17    C19     1.387   .     A
C18    C28     1.388   .     A
C18    H34     1.084   .     S
C18    C20     1.388   .     A
C19    C21     1.389   .     A
C20    C22     1.389   .     A
C21    C23     1.399   .     A
C21    H35     1.082   .     S
C22    C24     1.399   .     A
C22    H36     1.082   .     S
C23    C29     1.420   .     A
C23    C25     1.423   .     A
C24    C26     1.423   .     A
C24    C30     1.420   .     A
C25    C27     1.413   .     A
C25    C1034   1.399   .     S
C26    C28     1.413   .     A
C26    C1033   1.399   1_554 S
C29    C49     1.519   .     S
C29    C1011   1.399   .     S
C30    C59     1.519   .     S
C30    C1012   1.399   1_554 S
Cu31   O47     1.939   .     S
Cu31   Cu32    2.755   .     S
Cu31   O43     1.963   .     S
Cu31   O41     1.965   .     S
Cu31   N39     2.070   .     S
Cu31   O45     1.939   .     S
Cu32   O48     1.939   .     S
Cu32   O44     1.963   .     S
Cu32   O46     1.939   .     S
Cu32   N40     2.070   .     S
Cu32   O42     1.965   .     S
C49    H57     1.111   .     S
C49    H58     1.113   .     S
C49    C50     1.536   .     S
C50    H56     1.110   .     S
C50    H55     1.112   .     S
C50    C275    1.526   1_455 S
C51    H53     1.109   .     S
C51    H54     1.111   .     S
C51    C162    1.526   .     S
C51    H164    1.111   .     S
H52    C275    1.111   1_455 S
C59    H67     1.111   .     S
C59    C60     1.536   .     S
C59    H68     1.113   .     S
C60    H66     1.111   .     S
C60    H65     1.112   .     S
C60    C173    1.527   .     S
C61    H64     1.111   .     S
C61    H63     1.109   .     S
C61    C284    1.527   1_455 S
C61    H286    1.111   1_455 S
H62    C173    1.111   .     S
C73    C74     1.540   .     S
C73    H81     1.098   .     S
C73    H82     1.076   .     S
C74    C75     1.534   .     S
C74    H79     1.101   .     S
C74    H80     1.105   .     S
C75    H76     1.111   .     S
C75    H77     1.111   .     S
C75    H78     1.111   .     S
C83    H92     1.112   .     S
C83    C84     1.568   .     S
C83    H91     1.093   .     S
C84    H90     1.094   .     S
C84    C85     1.529   .     S
C84    H89     1.109   .     S
C85    H86     1.109   .     S
C85    H87     1.110   .     S
C85    H88     1.110   .     S
C93    C94     1.540   .     S
C93    H101    1.099   .     S
C93    H102    1.075   .     S
C94    H100    1.104   .     S
C94    C95     1.534   .     S
C94    H99     1.100   .     S
C95    H96     1.111   .     S
C95    H98     1.111   .     S
C95    H97     1.111   .     S
C103   H111    1.093   .     S
C103   C104    1.568   .     S
C103   H112    1.112   .     S
C104   H109    1.109   .     S
C104   C105    1.528   .     S
C104   H110    1.095   .     S
C105   H107    1.110   .     S
C105   H108    1.110   .     S
C105   H106    1.108   .     S
C113   O156    1.327   .     A
C113   O153    1.313   .     A
C113   C122    1.469   .     S
C114   O155    1.314   .     A
C114   O154    1.325   .     A
C114   C121    1.467   .     S
C115   C140    1.398   .     A
C115   H149    1.085   .     S
C115   C1149   1.399   1_554 S
C116   H150    1.085   .     S
C116   C139    1.398   .     A
C116   C1150   1.399   .     S
C117   Br181   1.934   .     S
C117   C122    1.408   .     A
C118   C121    1.416   .     A
C118   Br182   1.946   .     S
C118   C232    1.395   .     S
C119   Br183   1.933   .     S
C119   C121    1.405   .     A
C119   C229    1.385   .     S
C120   Br184   1.945   .     S
C120   C122    1.421   .     A
C123   N152    1.404   .     A
C123   C185    1.563   .     S
C123   C798    1.456   1_545 S
C124   C195    1.536   .     S
C124   N151    1.390   .     A
C124   C461    1.456   .     S
C125   N152    1.403   .     A
C125   C205    1.564   .     S
C125   C796    1.456   1_545 S
C126   N151    1.389   .     A
C126   C215    1.535   .     S
C126   C459    1.456   .     S
C127   O160    1.305   .     A
C127   C132    1.430   .     S
C127   O157    1.314   .     A
C128   O159    1.314   .     A
C128   O158    1.305   .     A
C128   C131    1.430   .     S
C129   H145    1.084   .     S
C129   C139    1.388   .     A
C129   C131    1.387   .     A
C130   C140    1.388   .     A
C130   H146    1.084   .     S
C130   C132    1.388   .     A
C131   C133    1.389   .     A
C132   C134    1.389   .     A
C133   C135    1.399   .     A
C133   H147    1.082   .     S
C134   C136    1.399   .     A
C134   H148    1.082   .     S
C135   C141    1.420   .     A
C135   C137    1.423   .     A
C136   C138    1.423   .     A
C136   C142    1.420   .     A
C137   C139    1.413   .     A
C137   C1146   1.399   .     S
C138   C140    1.413   .     A
C138   C1145   1.399   1_554 S
C141   C161    1.519   .     S
C141   C1123   1.399   .     S
C142   C171    1.519   .     S
C142   C1124   1.399   1_554 S
Cu143  O159    1.939   .     S
Cu143  Cu144   2.755   .     S
Cu143  O155    1.963   .     S
Cu143  O153    1.965   .     S
Cu143  N151    2.070   .     S
Cu143  O157    1.939   .     S
Cu144  O160    1.939   .     S
Cu144  O156    1.963   .     S
Cu144  O158    1.939   .     S
Cu144  N152    2.070   .     S
Cu144  O154    1.965   .     S
C161   H169    1.111   .     S
C161   H170    1.113   .     S
C161   C162    1.536   .     S
C162   H168    1.110   .     S
C162   H167    1.112   .     S
C163   H165    1.109   .     S
C163   H166    1.111   .     S
C163   C274    1.526   .     S
C163   H276    1.111   .     S
C171   H179    1.111   .     S
C171   C172    1.536   .     S
C171   H180    1.113   .     S
C172   H178    1.111   .     S
C172   H177    1.112   .     S
C172   C285    1.527   .     S
C173   H176    1.111   .     S
C173   H175    1.109   .     S
H174   C285    1.111   .     S
C185   C186    1.540   .     S
C185   H193    1.098   .     S
C185   H194    1.076   .     S
C186   C187    1.534   .     S
C186   H191    1.101   .     S
C186   H192    1.105   .     S
C187   H188    1.111   .     S
C187   H189    1.111   .     S
C187   H190    1.111   .     S
C195   H204    1.112   .     S
C195   C196    1.568   .     S
C195   H203    1.093   .     S
C196   H202    1.094   .     S
C196   C197    1.529   .     S
C196   H201    1.109   .     S
C197   H198    1.109   .     S
C197   H199    1.110   .     S
C197   H200    1.110   .     S
C205   C206    1.540   .     S
C205   H213    1.099   .     S
C205   H214    1.075   .     S
C206   H212    1.104   .     S
C206   C207    1.534   .     S
C206   H211    1.100   .     S
C207   H208    1.111   .     S
C207   H210    1.111   .     S
C207   H209    1.111   .     S
C215   H223    1.093   .     S
C215   C216    1.568   .     S
C215   H224    1.112   .     S
C216   H221    1.109   .     S
C216   C217    1.528   .     S
C216   H222    1.095   .     S
C217   H219    1.110   .     S
C217   H220    1.110   .     S
C217   H218    1.108   .     S
C225   O268    1.327   .     A
C225   O265    1.313   .     A
C225   C234    1.469   .     S
C226   O267    1.314   .     A
C226   O266    1.325   .     A
C226   C233    1.467   .     S
C227   C252    1.398   .     A
C227   H261    1.085   .     S
C227   C1261   1.399   1_554 S
C228   H262    1.085   .     S
C228   C251    1.398   .     A
C228   C1262   1.399   .     S
C229   Br293   1.934   .     S
C229   C234    1.408   .     A
C230   C233    1.416   .     A
C230   Br294   1.946   .     S
C230   C8      1.395   1_655 S
C231   Br295   1.933   .     S
C231   C233    1.405   .     A
C231   C5      1.385   1_655 S
C232   Br296   1.945   .     S
C232   C234    1.421   .     A
C235   N264    1.404   .     A
C235   C297    1.563   .     S
C235   C910    1.456   1_545 S
C236   C307    1.536   .     S
C236   N263    1.390   .     A
C236   C573    1.456   .     S
C237   N264    1.403   .     A
C237   C317    1.564   .     S
C237   C908    1.456   1_545 S
C238   N263    1.389   .     A
C238   C327    1.535   .     S
C238   C571    1.456   .     S
C239   O272    1.305   .     A
C239   C244    1.430   .     S
C239   O269    1.314   .     A
C240   O271    1.314   .     A
C240   O270    1.305   .     A
C240   C243    1.430   .     S
C241   H257    1.084   .     S
C241   C251    1.388   .     A
C241   C243    1.387   .     A
C242   C252    1.388   .     A
C242   H258    1.084   .     S
C242   C244    1.388   .     A
C243   C245    1.389   .     A
C244   C246    1.389   .     A
C245   C247    1.399   .     A
C245   H259    1.082   .     S
C246   C248    1.399   .     A
C246   H260    1.082   .     S
C247   C253    1.420   .     A
C247   C249    1.423   .     A
C248   C250    1.423   .     A
C248   C254    1.420   .     A
C249   C251    1.413   .     A
C249   C1258   1.399   .     S
C250   C252    1.413   .     A
C250   C1257   1.399   1_554 S
C253   C273    1.519   .     S
C253   C1235   1.399   .     S
C254   C283    1.519   .     S
C254   C1236   1.399   1_554 S
Cu255  O271    1.939   .     S
Cu255  Cu256   2.755   .     S
Cu255  O267    1.963   .     S
Cu255  O265    1.965   .     S
Cu255  N263    2.070   .     S
Cu255  O269    1.939   .     S
Cu256  O272    1.939   .     S
Cu256  O268    1.963   .     S
Cu256  O270    1.939   .     S
Cu256  N264    2.070   .     S
Cu256  O266    1.965   .     S
C273   H281    1.111   .     S
C273   H282    1.113   .     S
C273   C274    1.536   .     S
C274   H280    1.110   .     S
C274   H279    1.112   .     S
C275   H277    1.109   .     S
C275   H278    1.111   .     S
C275   C50     1.526   1_655 S
C275   H52     1.111   1_655 S
C283   H291    1.111   .     S
C283   C284    1.536   .     S
C283   H292    1.113   .     S
C284   H290    1.111   .     S
C284   H289    1.112   .     S
C284   C61     1.527   1_655 S
C285   H288    1.111   .     S
C285   H287    1.109   .     S
H286   C61     1.111   1_655 S
C297   C298    1.540   .     S
C297   H305    1.098   .     S
C297   H306    1.076   .     S
C298   C299    1.534   .     S
C298   H303    1.101   .     S
C298   H304    1.105   .     S
C299   H300    1.111   .     S
C299   H301    1.111   .     S
C299   H302    1.111   .     S
C307   H316    1.112   .     S
C307   C308    1.568   .     S
C307   H315    1.093   .     S
C308   H314    1.094   .     S
C308   C309    1.529   .     S
C308   H313    1.109   .     S
C309   H310    1.109   .     S
C309   H311    1.110   .     S
C309   H312    1.110   .     S
C317   C318    1.540   .     S
C317   H325    1.099   .     S
C317   H326    1.075   .     S
C318   H324    1.104   .     S
C318   C319    1.534   .     S
C318   H323    1.100   .     S
C319   H320    1.111   .     S
C319   H322    1.111   .     S
C319   H321    1.111   .     S
C327   H335    1.093   .     S
C327   C328    1.568   .     S
C327   H336    1.112   .     S
C328   H333    1.109   .     S
C328   C329    1.528   .     S
C328   H334    1.095   .     S
C329   H331    1.110   .     S
C329   H332    1.110   .     S
C329   H330    1.108   .     S
C337   O380    1.327   .     A
C337   O377    1.313   .     A
C337   C346    1.469   .     S
C338   O379    1.314   .     A
C338   O378    1.325   .     A
C338   C345    1.467   .     S
C339   C364    1.398   .     A
C339   H373    1.085   .     S
C339   C1373   1.399   1_554 S
C340   H374    1.085   .     S
C340   C363    1.398   .     A
C340   C1374   1.399   .     S
C341   Br405   1.934   .     S
C341   C346    1.408   .     A
C341   C567    1.385   1_455 S
C342   C345    1.416   .     A
C342   Br406   1.946   .     S
C342   C456    1.395   .     S
C343   Br407   1.933   .     S
C343   C345    1.405   .     A
C343   C453    1.385   .     S
C344   Br408   1.945   .     S
C344   C346    1.421   .     A
C344   C566    1.395   1_455 S
C347   N376    1.404   .     A
C347   C409    1.563   .     S
C348   C419    1.536   .     S
C348   N375    1.390   .     A
C348   C685    1.456   .     S
C349   N376    1.403   .     A
C349   C429    1.564   .     S
C350   N375    1.389   .     A
C350   C439    1.535   .     S
C350   C683    1.456   .     S
C351   O384    1.305   .     A
C351   C356    1.430   .     S
C351   O381    1.314   .     A
C352   O383    1.314   .     A
C352   O382    1.305   .     A
C352   C355    1.430   .     S
C353   H369    1.084   .     S
C353   C363    1.388   .     A
C353   C355    1.387   .     A
C354   C364    1.388   .     A
C354   H370    1.084   .     S
C354   C356    1.388   .     A
C355   C357    1.389   .     A
C356   C358    1.389   .     A
C357   C359    1.399   .     A
C357   H371    1.082   .     S
C358   C360    1.399   .     A
C358   H372    1.082   .     S
C359   C365    1.420   .     A
C359   C361    1.423   .     A
C360   C362    1.423   .     A
C360   C366    1.420   .     A
C361   C363    1.413   .     A
C361   C1370   1.399   .     S
C362   C364    1.413   .     A
C362   C1369   1.399   1_554 S
C365   C385    1.519   .     S
C365   C1347   1.399   .     S
C366   C395    1.519   .     S
C366   C1348   1.399   1_554 S
Cu367  O383    1.939   .     S
Cu367  Cu368   2.755   .     S
Cu367  O379    1.963   .     S
Cu367  O377    1.965   .     S
Cu367  N375    2.070   .     S
Cu367  O381    1.939   .     S
Cu368  O384    1.939   .     S
Cu368  O380    1.963   .     S
Cu368  O382    1.939   .     S
Cu368  N376    2.070   .     S
Cu368  O378    1.965   .     S
C385   H393    1.111   .     S
C385   H394    1.113   .     S
C385   C386    1.536   .     S
C386   H392    1.110   .     S
C386   H391    1.112   .     S
C386   C611    1.526   1_455 S
C387   H389    1.109   .     S
C387   H390    1.111   .     S
C387   C498    1.526   .     S
C387   H500    1.111   .     S
H388   C611    1.111   1_455 S
C395   H403    1.111   .     S
C395   C396    1.536   .     S
C395   H404    1.113   .     S
C396   H402    1.111   .     S
C396   H401    1.112   .     S
C396   C509    1.527   .     S
C397   H400    1.111   .     S
C397   H399    1.109   .     S
C397   C620    1.527   1_455 S
C397   H622    1.111   1_455 S
H398   C509    1.111   .     S
C409   C410    1.540   .     S
C409   H417    1.098   .     S
C409   H418    1.076   .     S
C410   C411    1.534   .     S
C410   H415    1.101   .     S
C410   H416    1.105   .     S
C411   H412    1.111   .     S
C411   H413    1.111   .     S
C411   H414    1.111   .     S
C419   H428    1.112   .     S
C419   C420    1.568   .     S
C419   H427    1.093   .     S
C420   H426    1.094   .     S
C420   C421    1.529   .     S
C420   H425    1.109   .     S
C421   H422    1.109   .     S
C421   H423    1.110   .     S
C421   H424    1.110   .     S
C429   C430    1.540   .     S
C429   H437    1.099   .     S
C429   H438    1.075   .     S
C430   H436    1.104   .     S
C430   C431    1.534   .     S
C430   H435    1.100   .     S
C431   H432    1.111   .     S
C431   H434    1.111   .     S
C431   H433    1.111   .     S
C439   H447    1.093   .     S
C439   C440    1.568   .     S
C439   H448    1.112   .     S
C440   H445    1.109   .     S
C440   C441    1.528   .     S
C440   H446    1.095   .     S
C441   H443    1.110   .     S
C441   H444    1.110   .     S
C441   H442    1.108   .     S
C449   O492    1.327   .     A
C449   O489    1.313   .     A
C449   C458    1.469   .     S
C450   O491    1.314   .     A
C450   O490    1.325   .     A
C450   C457    1.467   .     S
C451   C476    1.398   .     A
C451   H485    1.085   .     S
C451   C1485   1.399   1_554 S
C452   H486    1.085   .     S
C452   C475    1.398   .     A
C452   C1486   1.399   .     S
C453   Br517   1.934   .     S
C453   C458    1.408   .     A
C454   C457    1.416   .     A
C454   Br518   1.946   .     S
C454   C568    1.395   .     S
C455   Br519   1.933   .     S
C455   C457    1.405   .     A
C455   C565    1.385   .     S
C456   Br520   1.945   .     S
C456   C458    1.421   .     A
C459   N488    1.404   .     A
C459   C521    1.563   .     S
C460   C531    1.536   .     S
C460   N487    1.390   .     A
C460   C797    1.456   .     S
C461   N488    1.403   .     A
C461   C541    1.564   .     S
C462   N487    1.389   .     A
C462   C551    1.535   .     S
C462   C795    1.456   .     S
C463   O496    1.305   .     A
C463   C468    1.430   .     S
C463   O493    1.314   .     A
C464   O495    1.314   .     A
C464   O494    1.305   .     A
C464   C467    1.430   .     S
C465   H481    1.084   .     S
C465   C475    1.388   .     A
C465   C467    1.387   .     A
C466   C476    1.388   .     A
C466   H482    1.084   .     S
C466   C468    1.388   .     A
C467   C469    1.389   .     A
C468   C470    1.389   .     A
C469   C471    1.399   .     A
C469   H483    1.082   .     S
C470   C472    1.399   .     A
C470   H484    1.082   .     S
C471   C477    1.420   .     A
C471   C473    1.423   .     A
C472   C474    1.423   .     A
C472   C478    1.420   .     A
C473   C475    1.413   .     A
C473   C1482   1.399   .     S
C474   C476    1.413   .     A
C474   C1481   1.399   1_554 S
C477   C497    1.519   .     S
C477   C1459   1.399   .     S
C478   C507    1.519   .     S
C478   C1460   1.399   1_554 S
Cu479  O495    1.939   .     S
Cu479  Cu480   2.755   .     S
Cu479  O491    1.963   .     S
Cu479  O489    1.965   .     S
Cu479  N487    2.070   .     S
Cu479  O493    1.939   .     S
Cu480  O496    1.939   .     S
Cu480  O492    1.963   .     S
Cu480  O494    1.939   .     S
Cu480  N488    2.070   .     S
Cu480  O490    1.965   .     S
C497   H505    1.111   .     S
C497   H506    1.113   .     S
C497   C498    1.536   .     S
C498   H504    1.110   .     S
C498   H503    1.112   .     S
C499   H501    1.109   .     S
C499   H502    1.111   .     S
C499   C610    1.526   .     S
C499   H612    1.111   .     S
C507   H515    1.111   .     S
C507   C508    1.536   .     S
C507   H516    1.113   .     S
C508   H514    1.111   .     S
C508   H513    1.112   .     S
C508   C621    1.527   .     S
C509   H512    1.111   .     S
C509   H511    1.109   .     S
H510   C621    1.111   .     S
C521   C522    1.540   .     S
C521   H529    1.098   .     S
C521   H530    1.076   .     S
C522   C523    1.534   .     S
C522   H527    1.101   .     S
C522   H528    1.105   .     S
C523   H524    1.111   .     S
C523   H525    1.111   .     S
C523   H526    1.111   .     S
C531   H540    1.112   .     S
C531   C532    1.568   .     S
C531   H539    1.093   .     S
C532   H538    1.094   .     S
C532   C533    1.529   .     S
C532   H537    1.109   .     S
C533   H534    1.109   .     S
C533   H535    1.110   .     S
C533   H536    1.110   .     S
C541   C542    1.540   .     S
C541   H549    1.099   .     S
C541   H550    1.075   .     S
C542   H548    1.104   .     S
C542   C543    1.534   .     S
C542   H547    1.100   .     S
C543   H544    1.111   .     S
C543   H546    1.111   .     S
C543   H545    1.111   .     S
C551   H559    1.093   .     S
C551   C552    1.568   .     S
C551   H560    1.112   .     S
C552   H557    1.109   .     S
C552   C553    1.528   .     S
C552   H558    1.095   .     S
C553   H555    1.110   .     S
C553   H556    1.110   .     S
C553   H554    1.108   .     S
C561   O604    1.327   .     A
C561   O601    1.313   .     A
C561   C570    1.469   .     S
C562   O603    1.314   .     A
C562   O602    1.325   .     A
C562   C569    1.467   .     S
C563   C588    1.398   .     A
C563   H597    1.085   .     S
C563   C1597   1.399   1_554 S
C564   H598    1.085   .     S
C564   C587    1.398   .     A
C564   C1598   1.399   .     S
C565   Br629   1.934   .     S
C565   C570    1.408   .     A
C566   C569    1.416   .     A
C566   Br630   1.946   .     S
C566   C344    1.395   1_655 S
C567   Br631   1.933   .     S
C567   C569    1.405   .     A
C567   C341    1.385   1_655 S
C568   Br632   1.945   .     S
C568   C570    1.421   .     A
C571   N600    1.404   .     A
C571   C633    1.563   .     S
C572   C643    1.536   .     S
C572   N599    1.390   .     A
C572   C909    1.456   .     S
C573   N600    1.403   .     A
C573   C653    1.564   .     S
C574   N599    1.389   .     A
C574   C663    1.535   .     S
C574   C907    1.456   .     S
C575   O608    1.305   .     A
C575   C580    1.430   .     S
C575   O605    1.314   .     A
C576   O607    1.314   .     A
C576   O606    1.305   .     A
C576   C579    1.430   .     S
C577   H593    1.084   .     S
C577   C587    1.388   .     A
C577   C579    1.387   .     A
C578   C588    1.388   .     A
C578   H594    1.084   .     S
C578   C580    1.388   .     A
C579   C581    1.389   .     A
C580   C582    1.389   .     A
C581   C583    1.399   .     A
C581   H595    1.082   .     S
C582   C584    1.399   .     A
C582   H596    1.082   .     S
C583   C589    1.420   .     A
C583   C585    1.423   .     A
C584   C586    1.423   .     A
C584   C590    1.420   .     A
C585   C587    1.413   .     A
C585   C1594   1.399   .     S
C586   C588    1.413   .     A
C586   C1593   1.399   1_554 S
C589   C609    1.519   .     S
C589   C1571   1.399   .     S
C590   C619    1.519   .     S
C590   C1572   1.399   1_554 S
Cu591  O607    1.939   .     S
Cu591  Cu592   2.755   .     S
Cu591  O603    1.963   .     S
Cu591  O601    1.965   .     S
Cu591  N599    2.070   .     S
Cu591  O605    1.939   .     S
Cu592  O608    1.939   .     S
Cu592  O604    1.963   .     S
Cu592  O606    1.939   .     S
Cu592  N600    2.070   .     S
Cu592  O602    1.965   .     S
C609   H617    1.111   .     S
C609   H618    1.113   .     S
C609   C610    1.536   .     S
C610   H616    1.110   .     S
C610   H615    1.112   .     S
C611   H613    1.109   .     S
C611   H614    1.111   .     S
C611   C386    1.526   1_655 S
C611   H388    1.111   1_655 S
C619   H627    1.111   .     S
C619   C620    1.536   .     S
C619   H628    1.113   .     S
C620   H626    1.111   .     S
C620   H625    1.112   .     S
C620   C397    1.527   1_655 S
C621   H624    1.111   .     S
C621   H623    1.109   .     S
H622   C397    1.111   1_655 S
C633   C634    1.540   .     S
C633   H641    1.098   .     S
C633   H642    1.076   .     S
C634   C635    1.534   .     S
C634   H639    1.101   .     S
C634   H640    1.105   .     S
C635   H636    1.111   .     S
C635   H637    1.111   .     S
C635   H638    1.111   .     S
C643   H652    1.112   .     S
C643   C644    1.568   .     S
C643   H651    1.093   .     S
C644   H650    1.094   .     S
C644   C645    1.529   .     S
C644   H649    1.109   .     S
C645   H646    1.109   .     S
C645   H647    1.110   .     S
C645   H648    1.110   .     S
C653   C654    1.540   .     S
C653   H661    1.099   .     S
C653   H662    1.075   .     S
C654   H660    1.104   .     S
C654   C655    1.534   .     S
C654   H659    1.100   .     S
C655   H656    1.111   .     S
C655   H658    1.111   .     S
C655   H657    1.111   .     S
C663   H671    1.093   .     S
C663   C664    1.568   .     S
C663   H672    1.112   .     S
C664   H669    1.109   .     S
C664   C665    1.528   .     S
C664   H670    1.095   .     S
C665   H667    1.110   .     S
C665   H668    1.110   .     S
C665   H666    1.108   .     S
C673   O716    1.327   .     A
C673   O713    1.313   .     A
C673   C682    1.469   .     S
C674   O715    1.314   .     A
C674   O714    1.325   .     A
C674   C681    1.467   .     S
C675   C700    1.398   .     A
C675   H709    1.085   .     S
C675   C1709   1.399   1_554 S
C676   H710    1.085   .     S
C676   C699    1.398   .     A
C676   C1710   1.399   .     S
C677   Br741   1.934   .     S
C677   C682    1.408   .     A
C677   C903    1.385   1_455 S
C678   C681    1.416   .     A
C678   Br742   1.946   .     S
C678   C792    1.395   .     S
C679   Br743   1.933   .     S
C679   C681    1.405   .     A
C679   C789    1.385   .     S
C680   Br744   1.945   .     S
C680   C682    1.421   .     A
C680   C902    1.395   1_455 S
C683   N712    1.404   .     A
C683   C745    1.563   .     S
C684   C755    1.536   .     S
C684   N711    1.390   .     A
C684   C13     1.456   1_565 S
C685   N712    1.403   .     A
C685   C765    1.564   .     S
C686   N711    1.389   .     A
C686   C775    1.535   .     S
C686   C11     1.456   1_565 S
C687   O720    1.305   .     A
C687   C692    1.430   .     S
C687   O717    1.314   .     A
C688   O719    1.314   .     A
C688   O718    1.305   .     A
C688   C691    1.430   .     S
C689   H705    1.084   .     S
C689   C699    1.388   .     A
C689   C691    1.387   .     A
C690   C700    1.388   .     A
C690   H706    1.084   .     S
C690   C692    1.388   .     A
C691   C693    1.389   .     A
C692   C694    1.389   .     A
C693   C695    1.399   .     A
C693   H707    1.082   .     S
C694   C696    1.399   .     A
C694   H708    1.082   .     S
C695   C701    1.420   .     A
C695   C697    1.423   .     A
C696   C698    1.423   .     A
C696   C702    1.420   .     A
C697   C699    1.413   .     A
C697   C1706   1.399   .     S
C698   C700    1.413   .     A
C698   C1705   1.399   1_554 S
C701   C721    1.519   .     S
C701   C1683   1.399   .     S
C702   C731    1.519   .     S
C702   C1684   1.399   1_554 S
Cu703  O719    1.939   .     S
Cu703  Cu704   2.755   .     S
Cu703  O715    1.963   .     S
Cu703  O713    1.965   .     S
Cu703  N711    2.070   .     S
Cu703  O717    1.939   .     S
Cu704  O720    1.939   .     S
Cu704  O716    1.963   .     S
Cu704  O718    1.939   .     S
Cu704  N712    2.070   .     S
Cu704  O714    1.965   .     S
C721   H729    1.111   .     S
C721   H730    1.113   .     S
C721   C722    1.536   .     S
C722   H728    1.110   .     S
C722   H727    1.112   .     S
C722   C947    1.526   1_455 S
C723   H725    1.109   .     S
C723   H726    1.111   .     S
C723   C834    1.526   .     S
C723   H836    1.111   .     S
H724   C947    1.111   1_455 S
C731   H739    1.111   .     S
C731   C732    1.536   .     S
C731   H740    1.113   .     S
C732   H738    1.111   .     S
C732   H737    1.112   .     S
C732   C845    1.527   .     S
C733   H736    1.111   .     S
C733   H735    1.109   .     S
C733   C956    1.527   1_455 S
C733   H958    1.111   1_455 S
H734   C845    1.111   .     S
C745   C746    1.540   .     S
C745   H753    1.098   .     S
C745   H754    1.076   .     S
C746   C747    1.534   .     S
C746   H751    1.101   .     S
C746   H752    1.105   .     S
C747   H748    1.111   .     S
C747   H749    1.111   .     S
C747   H750    1.111   .     S
C755   H764    1.112   .     S
C755   C756    1.568   .     S
C755   H763    1.093   .     S
C756   H762    1.094   .     S
C756   C757    1.529   .     S
C756   H761    1.109   .     S
C757   H758    1.109   .     S
C757   H759    1.110   .     S
C757   H760    1.110   .     S
C765   C766    1.540   .     S
C765   H773    1.099   .     S
C765   H774    1.075   .     S
C766   H772    1.104   .     S
C766   C767    1.534   .     S
C766   H771    1.100   .     S
C767   H768    1.111   .     S
C767   H770    1.111   .     S
C767   H769    1.111   .     S
C775   H783    1.093   .     S
C775   C776    1.568   .     S
C775   H784    1.112   .     S
C776   H781    1.109   .     S
C776   C777    1.528   .     S
C776   H782    1.095   .     S
C777   H779    1.110   .     S
C777   H780    1.110   .     S
C777   H778    1.108   .     S
C785   O828    1.327   .     A
C785   O825    1.313   .     A
C785   C794    1.469   .     S
C786   O827    1.314   .     A
C786   O826    1.325   .     A
C786   C793    1.467   .     S
C787   C812    1.398   .     A
C787   H821    1.085   .     S
C787   C1821   1.399   1_554 S
C788   H822    1.085   .     S
C788   C811    1.398   .     A
C788   C1822   1.399   .     S
C789   Br853   1.934   .     S
C789   C794    1.408   .     A
C790   C793    1.416   .     A
C790   Br854   1.946   .     S
C790   C904    1.395   .     S
C791   Br855   1.933   .     S
C791   C793    1.405   .     A
C791   C901    1.385   .     S
C792   Br856   1.945   .     S
C792   C794    1.421   .     A
C795   N824    1.404   .     A
C795   C857    1.563   .     S
C796   C867    1.536   .     S
C796   N823    1.390   .     A
C796   C125    1.456   1_565 S
C797   N824    1.403   .     A
C797   C877    1.564   .     S
C798   N823    1.389   .     A
C798   C887    1.535   .     S
C798   C123    1.456   1_565 S
C799   O832    1.305   .     A
C799   C804    1.430   .     S
C799   O829    1.314   .     A
C800   O831    1.314   .     A
C800   O830    1.305   .     A
C800   C803    1.430   .     S
C801   H817    1.084   .     S
C801   C811    1.388   .     A
C801   C803    1.387   .     A
C802   C812    1.388   .     A
C802   H818    1.084   .     S
C802   C804    1.388   .     A
C803   C805    1.389   .     A
C804   C806    1.389   .     A
C805   C807    1.399   .     A
C805   H819    1.082   .     S
C806   C808    1.399   .     A
C806   H820    1.082   .     S
C807   C813    1.420   .     A
C807   C809    1.423   .     A
C808   C810    1.423   .     A
C808   C814    1.420   .     A
C809   C811    1.413   .     A
C809   C1818   1.399   .     S
C810   C812    1.413   .     A
C810   C1817   1.399   1_554 S
C813   C833    1.519   .     S
C813   C1795   1.399   .     S
C814   C843    1.519   .     S
C814   C1796   1.399   1_554 S
Cu815  O831    1.939   .     S
Cu815  Cu816   2.755   .     S
Cu815  O827    1.963   .     S
Cu815  O825    1.965   .     S
Cu815  N823    2.070   .     S
Cu815  O829    1.939   .     S
Cu816  O832    1.939   .     S
Cu816  O828    1.963   .     S
Cu816  O830    1.939   .     S
Cu816  N824    2.070   .     S
Cu816  O826    1.965   .     S
C833   H841    1.111   .     S
C833   H842    1.113   .     S
C833   C834    1.536   .     S
C834   H840    1.110   .     S
C834   H839    1.112   .     S
C835   H837    1.109   .     S
C835   H838    1.111   .     S
C835   C946    1.526   .     S
C835   H948    1.111   .     S
C843   H851    1.111   .     S
C843   C844    1.536   .     S
C843   H852    1.113   .     S
C844   H850    1.111   .     S
C844   H849    1.112   .     S
C844   C957    1.527   .     S
C845   H848    1.111   .     S
C845   H847    1.109   .     S
H846   C957    1.111   .     S
C857   C858    1.540   .     S
C857   H865    1.098   .     S
C857   H866    1.076   .     S
C858   C859    1.534   .     S
C858   H863    1.101   .     S
C858   H864    1.105   .     S
C859   H860    1.111   .     S
C859   H861    1.111   .     S
C859   H862    1.111   .     S
C867   H876    1.112   .     S
C867   C868    1.568   .     S
C867   H875    1.093   .     S
C868   H874    1.094   .     S
C868   C869    1.529   .     S
C868   H873    1.109   .     S
C869   H870    1.109   .     S
C869   H871    1.110   .     S
C869   H872    1.110   .     S
C877   C878    1.540   .     S
C877   H885    1.099   .     S
C877   H886    1.075   .     S
C878   H884    1.104   .     S
C878   C879    1.534   .     S
C878   H883    1.100   .     S
C879   H880    1.111   .     S
C879   H882    1.111   .     S
C879   H881    1.111   .     S
C887   H895    1.093   .     S
C887   C888    1.568   .     S
C887   H896    1.112   .     S
C888   H893    1.109   .     S
C888   C889    1.528   .     S
C888   H894    1.095   .     S
C889   H891    1.110   .     S
C889   H892    1.110   .     S
C889   H890    1.108   .     S
C897   O940    1.327   .     A
C897   O937    1.313   .     A
C897   C906    1.469   .     S
C898   O939    1.314   .     A
C898   O938    1.325   .     A
C898   C905    1.467   .     S
C899   C924    1.398   .     A
C899   H933    1.085   .     S
C899   C1933   1.399   1_554 S
C900   H934    1.085   .     S
C900   C923    1.398   .     A
C900   C1934   1.399   .     S
C901   Br965   1.934   .     S
C901   C906    1.408   .     A
C902   C905    1.416   .     A
C902   Br966   1.946   .     S
C902   C680    1.395   1_655 S
C903   Br967   1.933   .     S
C903   C905    1.405   .     A
C903   C677    1.385   1_655 S
C904   Br968   1.945   .     S
C904   C906    1.421   .     A
C907   N936    1.404   .     A
C907   C969    1.563   .     S
C908   C979    1.536   .     S
C908   N935    1.390   .     A
C908   C237    1.456   1_565 S
C909   N936    1.403   .     A
C909   C989    1.564   .     S
C910   N935    1.389   .     A
C910   C999    1.535   .     S
C910   C235    1.456   1_565 S
C911   O944    1.305   .     A
C911   C916    1.430   .     S
C911   O941    1.314   .     A
C912   O943    1.314   .     A
C912   O942    1.305   .     A
C912   C915    1.430   .     S
C913   H929    1.084   .     S
C913   C923    1.388   .     A
C913   C915    1.387   .     A
C914   C924    1.388   .     A
C914   H930    1.084   .     S
C914   C916    1.388   .     A
C915   C917    1.389   .     A
C916   C918    1.389   .     A
C917   C919    1.399   .     A
C917   H931    1.082   .     S
C918   C920    1.399   .     A
C918   H932    1.082   .     S
C919   C925    1.420   .     A
C919   C921    1.423   .     A
C920   C922    1.423   .     A
C920   C926    1.420   .     A
C921   C923    1.413   .     A
C921   C1930   1.399   .     S
C922   C924    1.413   .     A
C922   C1929   1.399   1_554 S
C925   C945    1.519   .     S
C925   C1907   1.399   .     S
C926   C955    1.519   .     S
C926   C1908   1.399   1_554 S
Cu927  O943    1.939   .     S
Cu927  Cu928   2.755   .     S
Cu927  O939    1.963   .     S
Cu927  O937    1.965   .     S
Cu927  N935    2.070   .     S
Cu927  O941    1.939   .     S
Cu928  O944    1.939   .     S
Cu928  O940    1.963   .     S
Cu928  O942    1.939   .     S
Cu928  N936    2.070   .     S
Cu928  O938    1.965   .     S
C945   H953    1.111   .     S
C945   H954    1.113   .     S
C945   C946    1.536   .     S
C946   H952    1.110   .     S
C946   H951    1.112   .     S
C947   H949    1.109   .     S
C947   H950    1.111   .     S
C947   C722    1.526   1_655 S
C947   H724    1.111   1_655 S
C955   H963    1.111   .     S
C955   C956    1.536   .     S
C955   H964    1.113   .     S
C956   H962    1.111   .     S
C956   H961    1.112   .     S
C956   C733    1.527   1_655 S
C957   H960    1.111   .     S
C957   H959    1.109   .     S
H958   C733    1.111   1_655 S
C969   C970    1.540   .     S
C969   H977    1.098   .     S
C969   H978    1.076   .     S
C970   C971    1.534   .     S
C970   H975    1.101   .     S
C970   H976    1.105   .     S
C971   H972    1.111   .     S
C971   H973    1.111   .     S
C971   H974    1.111   .     S
C979   H988    1.112   .     S
C979   C980    1.568   .     S
C979   H987    1.093   .     S
C980   H986    1.094   .     S
C980   C981    1.529   .     S
C980   H985    1.109   .     S
C981   H982    1.109   .     S
C981   H983    1.110   .     S
C981   H984    1.110   .     S
C989   C990    1.540   .     S
C989   H997    1.099   .     S
C989   H998    1.075   .     S
C990   H996    1.104   .     S
C990   C991    1.534   .     S
C990   H995    1.100   .     S
C991   H992    1.111   .     S
C991   H994    1.111   .     S
C991   H993    1.111   .     S
C999   H1007   1.093   .     S
C999   C1000   1.568   .     S
C999   H1008   1.112   .     S
C1000  H1005   1.109   .     S
C1000  C1001   1.528   .     S
C1000  H1006   1.095   .     S
C1001  H1003   1.110   .     S
C1001  H1004   1.110   .     S
C1001  H1002   1.108   .     S
C1009  O1052   1.327   .     A
C1009  O1049   1.313   .     A
C1009  C1018   1.469   .     S
C1010  O1051   1.314   .     A
C1010  O1050   1.325   .     A
C1010  C1017   1.467   .     S
C1011  C1036   1.398   .     A
C1011  H1045   1.085   .     S
C1012  H1046   1.085   .     S
C1012  C1035   1.398   .     A
C1012  C30     1.399   1_556 S
C1013  Br1077  1.934   .     S
C1013  C1018   1.408   .     A
C1013  C1239   1.385   1_455 S
C1014  C1017   1.416   .     A
C1014  Br1078  1.946   .     S
C1014  C1128   1.395   .     S
C1015  Br1079  1.933   .     S
C1015  C1017   1.405   .     A
C1015  C1125   1.385   .     S
C1016  Br1080  1.945   .     S
C1016  C1018   1.421   .     A
C1016  C1238   1.395   1_455 S
C1019  N1048   1.404   .     A
C1019  C1081   1.563   .     S
C1019  C1694   1.456   1_545 S
C1020  C1091   1.536   .     S
C1020  N1047   1.390   .     A
C1020  C1357   1.456   .     S
C1021  N1048   1.403   .     A
C1021  C1101   1.564   .     S
C1021  C1692   1.456   1_545 S
C1022  N1047   1.389   .     A
C1022  C1111   1.535   .     S
C1022  C1355   1.456   .     S
C1023  O1056   1.305   .     A
C1023  C1028   1.430   .     S
C1023  O1053   1.314   .     A
C1024  O1055   1.314   .     A
C1024  O1054   1.305   .     A
C1024  C1027   1.430   .     S
C1025  H1041   1.084   .     S
C1025  C1035   1.388   .     A
C1025  C1027   1.387   .     A
C1026  C1036   1.388   .     A
C1026  H1042   1.084   .     S
C1026  C1028   1.388   .     A
C1027  C1029   1.389   .     A
C1028  C1030   1.389   .     A
C1029  C1031   1.399   .     A
C1029  H1043   1.082   .     S
C1030  C1032   1.399   .     A
C1030  H1044   1.082   .     S
C1031  C1037   1.420   .     A
C1031  C1033   1.423   .     A
C1032  C1034   1.423   .     A
C1032  C1038   1.420   .     A
C1033  C1035   1.413   .     A
C1033  C26     1.399   1_556 S
C1034  C1036   1.413   .     A
C1037  C1057   1.519   .     S
C1037  C3      1.399   1_556 S
C1038  C1067   1.519   .     S
Cu1039 O1055   1.939   .     S
Cu1039 Cu1040  2.755   .     S
Cu1039 O1051   1.963   .     S
Cu1039 O1049   1.965   .     S
Cu1039 N1047   2.070   .     S
Cu1039 O1053   1.939   .     S
Cu1040 O1056   1.939   .     S
Cu1040 O1052   1.963   .     S
Cu1040 O1054   1.939   .     S
Cu1040 N1048   2.070   .     S
Cu1040 O1050   1.965   .     S
C1057  H1065   1.111   .     S
C1057  H1066   1.113   .     S
C1057  C1058   1.536   .     S
C1058  H1064   1.110   .     S
C1058  H1063   1.112   .     S
C1058  C1283   1.526   1_455 S
C1059  H1061   1.109   .     S
C1059  H1062   1.111   .     S
C1059  C1170   1.526   .     S
C1059  H1172   1.111   .     S
H1060  C1283   1.111   1_455 S
C1067  H1075   1.111   .     S
C1067  C1068   1.536   .     S
C1067  H1076   1.113   .     S
C1068  H1074   1.111   .     S
C1068  H1073   1.112   .     S
C1068  C1181   1.527   .     S
C1069  H1072   1.111   .     S
C1069  H1071   1.109   .     S
C1069  C1292   1.527   1_455 S
C1069  H1294   1.111   1_455 S
H1070  C1181   1.111   .     S
C1081  C1082   1.540   .     S
C1081  H1089   1.098   .     S
C1081  H1090   1.076   .     S
C1082  C1083   1.534   .     S
C1082  H1087   1.101   .     S
C1082  H1088   1.105   .     S
C1083  H1084   1.111   .     S
C1083  H1085   1.111   .     S
C1083  H1086   1.111   .     S
C1091  H1100   1.112   .     S
C1091  C1092   1.568   .     S
C1091  H1099   1.093   .     S
C1092  H1098   1.094   .     S
C1092  C1093   1.529   .     S
C1092  H1097   1.109   .     S
C1093  H1094   1.109   .     S
C1093  H1095   1.110   .     S
C1093  H1096   1.110   .     S
C1101  C1102   1.540   .     S
C1101  H1109   1.099   .     S
C1101  H1110   1.075   .     S
C1102  H1108   1.104   .     S
C1102  C1103   1.534   .     S
C1102  H1107   1.100   .     S
C1103  H1104   1.111   .     S
C1103  H1106   1.111   .     S
C1103  H1105   1.111   .     S
C1111  H1119   1.093   .     S
C1111  C1112   1.568   .     S
C1111  H1120   1.112   .     S
C1112  H1117   1.109   .     S
C1112  C1113   1.528   .     S
C1112  H1118   1.095   .     S
C1113  H1115   1.110   .     S
C1113  H1116   1.110   .     S
C1113  H1114   1.108   .     S
C1121  O1164   1.327   .     A
C1121  O1161   1.313   .     A
C1121  C1130   1.469   .     S
C1122  O1163   1.314   .     A
C1122  O1162   1.325   .     A
C1122  C1129   1.467   .     S
C1123  C1148   1.398   .     A
C1123  H1157   1.085   .     S
C1124  H1158   1.085   .     S
C1124  C1147   1.398   .     A
C1124  C142    1.399   1_556 S
C1125  Br1189  1.934   .     S
C1125  C1130   1.408   .     A
C1126  C1129   1.416   .     A
C1126  Br1190  1.946   .     S
C1126  C1240   1.395   .     S
C1127  Br1191  1.933   .     S
C1127  C1129   1.405   .     A
C1127  C1237   1.385   .     S
C1128  Br1192  1.945   .     S
C1128  C1130   1.421   .     A
C1131  N1160   1.404   .     A
C1131  C1193   1.563   .     S
C1131  C1806   1.456   1_545 S
C1132  C1203   1.536   .     S
C1132  N1159   1.390   .     A
C1132  C1469   1.456   .     S
C1133  N1160   1.403   .     A
C1133  C1213   1.564   .     S
C1133  C1804   1.456   1_545 S
C1134  N1159   1.389   .     A
C1134  C1223   1.535   .     S
C1134  C1467   1.456   .     S
C1135  O1168   1.305   .     A
C1135  C1140   1.430   .     S
C1135  O1165   1.314   .     A
C1136  O1167   1.314   .     A
C1136  O1166   1.305   .     A
C1136  C1139   1.430   .     S
C1137  H1153   1.084   .     S
C1137  C1147   1.388   .     A
C1137  C1139   1.387   .     A
C1138  C1148   1.388   .     A
C1138  H1154   1.084   .     S
C1138  C1140   1.388   .     A
C1139  C1141   1.389   .     A
C1140  C1142   1.389   .     A
C1141  C1143   1.399   .     A
C1141  H1155   1.082   .     S
C1142  C1144   1.399   .     A
C1142  H1156   1.082   .     S
C1143  C1149   1.420   .     A
C1143  C1145   1.423   .     A
C1144  C1146   1.423   .     A
C1144  C1150   1.420   .     A
C1145  C1147   1.413   .     A
C1145  C138    1.399   1_556 S
C1146  C1148   1.413   .     A
C1149  C1169   1.519   .     S
C1149  C115    1.399   1_556 S
C1150  C1179   1.519   .     S
Cu1151 O1167   1.939   .     S
Cu1151 Cu1152  2.755   .     S
Cu1151 O1163   1.963   .     S
Cu1151 O1161   1.965   .     S
Cu1151 N1159   2.070   .     S
Cu1151 O1165   1.939   .     S
Cu1152 O1168   1.939   .     S
Cu1152 O1164   1.963   .     S
Cu1152 O1166   1.939   .     S
Cu1152 N1160   2.070   .     S
Cu1152 O1162   1.965   .     S
C1169  H1177   1.111   .     S
C1169  H1178   1.113   .     S
C1169  C1170   1.536   .     S
C1170  H1176   1.110   .     S
C1170  H1175   1.112   .     S
C1171  H1173   1.109   .     S
C1171  H1174   1.111   .     S
C1171  C1282   1.526   .     S
C1171  H1284   1.111   .     S
C1179  H1187   1.111   .     S
C1179  C1180   1.536   .     S
C1179  H1188   1.113   .     S
C1180  H1186   1.111   .     S
C1180  H1185   1.112   .     S
C1180  C1293   1.527   .     S
C1181  H1184   1.111   .     S
C1181  H1183   1.109   .     S
H1182  C1293   1.111   .     S
C1193  C1194   1.540   .     S
C1193  H1201   1.098   .     S
C1193  H1202   1.076   .     S
C1194  C1195   1.534   .     S
C1194  H1199   1.101   .     S
C1194  H1200   1.105   .     S
C1195  H1196   1.111   .     S
C1195  H1197   1.111   .     S
C1195  H1198   1.111   .     S
C1203  H1212   1.112   .     S
C1203  C1204   1.568   .     S
C1203  H1211   1.093   .     S
C1204  H1210   1.094   .     S
C1204  C1205   1.529   .     S
C1204  H1209   1.109   .     S
C1205  H1206   1.109   .     S
C1205  H1207   1.110   .     S
C1205  H1208   1.110   .     S
C1213  C1214   1.540   .     S
C1213  H1221   1.099   .     S
C1213  H1222   1.075   .     S
C1214  H1220   1.104   .     S
C1214  C1215   1.534   .     S
C1214  H1219   1.100   .     S
C1215  H1216   1.111   .     S
C1215  H1218   1.111   .     S
C1215  H1217   1.111   .     S
C1223  H1231   1.093   .     S
C1223  C1224   1.568   .     S
C1223  H1232   1.112   .     S
C1224  H1229   1.109   .     S
C1224  C1225   1.528   .     S
C1224  H1230   1.095   .     S
C1225  H1227   1.110   .     S
C1225  H1228   1.110   .     S
C1225  H1226   1.108   .     S
C1233  O1276   1.327   .     A
C1233  O1273   1.313   .     A
C1233  C1242   1.469   .     S
C1234  O1275   1.314   .     A
C1234  O1274   1.325   .     A
C1234  C1241   1.467   .     S
C1235  C1260   1.398   .     A
C1235  H1269   1.085   .     S
C1236  H1270   1.085   .     S
C1236  C1259   1.398   .     A
C1236  C254    1.399   1_556 S
C1237  Br1301  1.934   .     S
C1237  C1242   1.408   .     A
C1238  C1241   1.416   .     A
C1238  Br1302  1.946   .     S
C1238  C1016   1.395   1_655 S
C1239  Br1303  1.933   .     S
C1239  C1241   1.405   .     A
C1239  C1013   1.385   1_655 S
C1240  Br1304  1.945   .     S
C1240  C1242   1.421   .     A
C1243  N1272   1.404   .     A
C1243  C1305   1.563   .     S
C1243  C1918   1.456   1_545 S
C1244  C1315   1.536   .     S
C1244  N1271   1.390   .     A
C1244  C1581   1.456   .     S
C1245  N1272   1.403   .     A
C1245  C1325   1.564   .     S
C1245  C1916   1.456   1_545 S
C1246  N1271   1.389   .     A
C1246  C1335   1.535   .     S
C1246  C1579   1.456   .     S
C1247  O1280   1.305   .     A
C1247  C1252   1.430   .     S
C1247  O1277   1.314   .     A
C1248  O1279   1.314   .     A
C1248  O1278   1.305   .     A
C1248  C1251   1.430   .     S
C1249  H1265   1.084   .     S
C1249  C1259   1.388   .     A
C1249  C1251   1.387   .     A
C1250  C1260   1.388   .     A
C1250  H1266   1.084   .     S
C1250  C1252   1.388   .     A
C1251  C1253   1.389   .     A
C1252  C1254   1.389   .     A
C1253  C1255   1.399   .     A
C1253  H1267   1.082   .     S
C1254  C1256   1.399   .     A
C1254  H1268   1.082   .     S
C1255  C1261   1.420   .     A
C1255  C1257   1.423   .     A
C1256  C1258   1.423   .     A
C1256  C1262   1.420   .     A
C1257  C1259   1.413   .     A
C1257  C250    1.399   1_556 S
C1258  C1260   1.413   .     A
C1261  C1281   1.519   .     S
C1261  C227    1.399   1_556 S
C1262  C1291   1.519   .     S
Cu1263 O1279   1.939   .     S
Cu1263 Cu1264  2.755   .     S
Cu1263 O1275   1.963   .     S
Cu1263 O1273   1.965   .     S
Cu1263 N1271   2.070   .     S
Cu1263 O1277   1.939   .     S
Cu1264 O1280   1.939   .     S
Cu1264 O1276   1.963   .     S
Cu1264 O1278   1.939   .     S
Cu1264 N1272   2.070   .     S
Cu1264 O1274   1.965   .     S
C1281  H1289   1.111   .     S
C1281  H1290   1.113   .     S
C1281  C1282   1.536   .     S
C1282  H1288   1.110   .     S
C1282  H1287   1.112   .     S
C1283  H1285   1.109   .     S
C1283  H1286   1.111   .     S
C1283  C1058   1.526   1_655 S
C1283  H1060   1.111   1_655 S
C1291  H1299   1.111   .     S
C1291  C1292   1.536   .     S
C1291  H1300   1.113   .     S
C1292  H1298   1.111   .     S
C1292  H1297   1.112   .     S
C1292  C1069   1.527   1_655 S
C1293  H1296   1.111   .     S
C1293  H1295   1.109   .     S
H1294  C1069   1.111   1_655 S
C1305  C1306   1.540   .     S
C1305  H1313   1.098   .     S
C1305  H1314   1.076   .     S
C1306  C1307   1.534   .     S
C1306  H1311   1.101   .     S
C1306  H1312   1.105   .     S
C1307  H1308   1.111   .     S
C1307  H1309   1.111   .     S
C1307  H1310   1.111   .     S
C1315  H1324   1.112   .     S
C1315  C1316   1.568   .     S
C1315  H1323   1.093   .     S
C1316  H1322   1.094   .     S
C1316  C1317   1.529   .     S
C1316  H1321   1.109   .     S
C1317  H1318   1.109   .     S
C1317  H1319   1.110   .     S
C1317  H1320   1.110   .     S
C1325  C1326   1.540   .     S
C1325  H1333   1.099   .     S
C1325  H1334   1.075   .     S
C1326  H1332   1.104   .     S
C1326  C1327   1.534   .     S
C1326  H1331   1.100   .     S
C1327  H1328   1.111   .     S
C1327  H1330   1.111   .     S
C1327  H1329   1.111   .     S
C1335  H1343   1.093   .     S
C1335  C1336   1.568   .     S
C1335  H1344   1.112   .     S
C1336  H1341   1.109   .     S
C1336  C1337   1.528   .     S
C1336  H1342   1.095   .     S
C1337  H1339   1.110   .     S
C1337  H1340   1.110   .     S
C1337  H1338   1.108   .     S
C1345  O1388   1.327   .     A
C1345  O1385   1.313   .     A
C1345  C1354   1.469   .     S
C1346  O1387   1.314   .     A
C1346  O1386   1.325   .     A
C1346  C1353   1.467   .     S
C1347  C1372   1.398   .     A
C1347  H1381   1.085   .     S
C1348  H1382   1.085   .     S
C1348  C1371   1.398   .     A
C1348  C366    1.399   1_556 S
C1349  Br1413  1.934   .     S
C1349  C1354   1.408   .     A
C1349  C1575   1.385   1_455 S
C1350  C1353   1.416   .     A
C1350  Br1414  1.946   .     S
C1350  C1464   1.395   .     S
C1351  Br1415  1.933   .     S
C1351  C1353   1.405   .     A
C1351  C1461   1.385   .     S
C1352  Br1416  1.945   .     S
C1352  C1354   1.421   .     A
C1352  C1574   1.395   1_455 S
C1355  N1384   1.404   .     A
C1355  C1417   1.563   .     S
C1356  C1427   1.536   .     S
C1356  N1383   1.390   .     A
C1356  C1693   1.456   .     S
C1357  N1384   1.403   .     A
C1357  C1437   1.564   .     S
C1358  N1383   1.389   .     A
C1358  C1447   1.535   .     S
C1358  C1691   1.456   .     S
C1359  O1392   1.305   .     A
C1359  C1364   1.430   .     S
C1359  O1389   1.314   .     A
C1360  O1391   1.314   .     A
C1360  O1390   1.305   .     A
C1360  C1363   1.430   .     S
C1361  H1377   1.084   .     S
C1361  C1371   1.388   .     A
C1361  C1363   1.387   .     A
C1362  C1372   1.388   .     A
C1362  H1378   1.084   .     S
C1362  C1364   1.388   .     A
C1363  C1365   1.389   .     A
C1364  C1366   1.389   .     A
C1365  C1367   1.399   .     A
C1365  H1379   1.082   .     S
C1366  C1368   1.399   .     A
C1366  H1380   1.082   .     S
C1367  C1373   1.420   .     A
C1367  C1369   1.423   .     A
C1368  C1370   1.423   .     A
C1368  C1374   1.420   .     A
C1369  C1371   1.413   .     A
C1369  C362    1.399   1_556 S
C1370  C1372   1.413   .     A
C1373  C1393   1.519   .     S
C1373  C339    1.399   1_556 S
C1374  C1403   1.519   .     S
Cu1375 O1391   1.939   .     S
Cu1375 Cu1376  2.755   .     S
Cu1375 O1387   1.963   .     S
Cu1375 O1385   1.965   .     S
Cu1375 N1383   2.070   .     S
Cu1375 O1389   1.939   .     S
Cu1376 O1392   1.939   .     S
Cu1376 O1388   1.963   .     S
Cu1376 O1390   1.939   .     S
Cu1376 N1384   2.070   .     S
Cu1376 O1386   1.965   .     S
C1393  H1401   1.111   .     S
C1393  H1402   1.113   .     S
C1393  C1394   1.536   .     S
C1394  H1400   1.110   .     S
C1394  H1399   1.112   .     S
C1394  C1619   1.526   1_455 S
C1395  H1397   1.109   .     S
C1395  H1398   1.111   .     S
C1395  C1506   1.526   .     S
C1395  H1508   1.111   .     S
H1396  C1619   1.111   1_455 S
C1403  H1411   1.111   .     S
C1403  C1404   1.536   .     S
C1403  H1412   1.113   .     S
C1404  H1410   1.111   .     S
C1404  H1409   1.112   .     S
C1404  C1517   1.527   .     S
C1405  H1408   1.111   .     S
C1405  H1407   1.109   .     S
C1405  C1628   1.527   1_455 S
C1405  H1630   1.111   1_455 S
H1406  C1517   1.111   .     S
C1417  C1418   1.540   .     S
C1417  H1425   1.098   .     S
C1417  H1426   1.076   .     S
C1418  C1419   1.534   .     S
C1418  H1423   1.101   .     S
C1418  H1424   1.105   .     S
C1419  H1420   1.111   .     S
C1419  H1421   1.111   .     S
C1419  H1422   1.111   .     S
C1427  H1436   1.112   .     S
C1427  C1428   1.568   .     S
C1427  H1435   1.093   .     S
C1428  H1434   1.094   .     S
C1428  C1429   1.529   .     S
C1428  H1433   1.109   .     S
C1429  H1430   1.109   .     S
C1429  H1431   1.110   .     S
C1429  H1432   1.110   .     S
C1437  C1438   1.540   .     S
C1437  H1445   1.099   .     S
C1437  H1446   1.075   .     S
C1438  H1444   1.104   .     S
C1438  C1439   1.534   .     S
C1438  H1443   1.100   .     S
C1439  H1440   1.111   .     S
C1439  H1442   1.111   .     S
C1439  H1441   1.111   .     S
C1447  H1455   1.093   .     S
C1447  C1448   1.568   .     S
C1447  H1456   1.112   .     S
C1448  H1453   1.109   .     S
C1448  C1449   1.528   .     S
C1448  H1454   1.095   .     S
C1449  H1451   1.110   .     S
C1449  H1452   1.110   .     S
C1449  H1450   1.108   .     S
C1457  O1500   1.327   .     A
C1457  O1497   1.313   .     A
C1457  C1466   1.469   .     S
C1458  O1499   1.314   .     A
C1458  O1498   1.325   .     A
C1458  C1465   1.467   .     S
C1459  C1484   1.398   .     A
C1459  H1493   1.085   .     S
C1460  H1494   1.085   .     S
C1460  C1483   1.398   .     A
C1460  C478    1.399   1_556 S
C1461  Br1525  1.934   .     S
C1461  C1466   1.408   .     A
C1462  C1465   1.416   .     A
C1462  Br1526  1.946   .     S
C1462  C1576   1.395   .     S
C1463  Br1527  1.933   .     S
C1463  C1465   1.405   .     A
C1463  C1573   1.385   .     S
C1464  Br1528  1.945   .     S
C1464  C1466   1.421   .     A
C1467  N1496   1.404   .     A
C1467  C1529   1.563   .     S
C1468  C1539   1.536   .     S
C1468  N1495   1.390   .     A
C1468  C1805   1.456   .     S
C1469  N1496   1.403   .     A
C1469  C1549   1.564   .     S
C1470  N1495   1.389   .     A
C1470  C1559   1.535   .     S
C1470  C1803   1.456   .     S
C1471  O1504   1.305   .     A
C1471  C1476   1.430   .     S
C1471  O1501   1.314   .     A
C1472  O1503   1.314   .     A
C1472  O1502   1.305   .     A
C1472  C1475   1.430   .     S
C1473  H1489   1.084   .     S
C1473  C1483   1.388   .     A
C1473  C1475   1.387   .     A
C1474  C1484   1.388   .     A
C1474  H1490   1.084   .     S
C1474  C1476   1.388   .     A
C1475  C1477   1.389   .     A
C1476  C1478   1.389   .     A
C1477  C1479   1.399   .     A
C1477  H1491   1.082   .     S
C1478  C1480   1.399   .     A
C1478  H1492   1.082   .     S
C1479  C1485   1.420   .     A
C1479  C1481   1.423   .     A
C1480  C1482   1.423   .     A
C1480  C1486   1.420   .     A
C1481  C1483   1.413   .     A
C1481  C474    1.399   1_556 S
C1482  C1484   1.413   .     A
C1485  C1505   1.519   .     S
C1485  C451    1.399   1_556 S
C1486  C1515   1.519   .     S
Cu1487 O1503   1.939   .     S
Cu1487 Cu1488  2.755   .     S
Cu1487 O1499   1.963   .     S
Cu1487 O1497   1.965   .     S
Cu1487 N1495   2.070   .     S
Cu1487 O1501   1.939   .     S
Cu1488 O1504   1.939   .     S
Cu1488 O1500   1.963   .     S
Cu1488 O1502   1.939   .     S
Cu1488 N1496   2.070   .     S
Cu1488 O1498   1.965   .     S
C1505  H1513   1.111   .     S
C1505  H1514   1.113   .     S
C1505  C1506   1.536   .     S
C1506  H1512   1.110   .     S
C1506  H1511   1.112   .     S
C1507  H1509   1.109   .     S
C1507  H1510   1.111   .     S
C1507  C1618   1.526   .     S
C1507  H1620   1.111   .     S
C1515  H1523   1.111   .     S
C1515  C1516   1.536   .     S
C1515  H1524   1.113   .     S
C1516  H1522   1.111   .     S
C1516  H1521   1.112   .     S
C1516  C1629   1.527   .     S
C1517  H1520   1.111   .     S
C1517  H1519   1.109   .     S
H1518  C1629   1.111   .     S
C1529  C1530   1.540   .     S
C1529  H1537   1.098   .     S
C1529  H1538   1.076   .     S
C1530  C1531   1.534   .     S
C1530  H1535   1.101   .     S
C1530  H1536   1.105   .     S
C1531  H1532   1.111   .     S
C1531  H1533   1.111   .     S
C1531  H1534   1.111   .     S
C1539  H1548   1.112   .     S
C1539  C1540   1.568   .     S
C1539  H1547   1.093   .     S
C1540  H1546   1.094   .     S
C1540  C1541   1.529   .     S
C1540  H1545   1.109   .     S
C1541  H1542   1.109   .     S
C1541  H1543   1.110   .     S
C1541  H1544   1.110   .     S
C1549  C1550   1.540   .     S
C1549  H1557   1.099   .     S
C1549  H1558   1.075   .     S
C1550  H1556   1.104   .     S
C1550  C1551   1.534   .     S
C1550  H1555   1.100   .     S
C1551  H1552   1.111   .     S
C1551  H1554   1.111   .     S
C1551  H1553   1.111   .     S
C1559  H1567   1.093   .     S
C1559  C1560   1.568   .     S
C1559  H1568   1.112   .     S
C1560  H1565   1.109   .     S
C1560  C1561   1.528   .     S
C1560  H1566   1.095   .     S
C1561  H1563   1.110   .     S
C1561  H1564   1.110   .     S
C1561  H1562   1.108   .     S
C1569  O1612   1.327   .     A
C1569  O1609   1.313   .     A
C1569  C1578   1.469   .     S
C1570  O1611   1.314   .     A
C1570  O1610   1.325   .     A
C1570  C1577   1.467   .     S
C1571  C1596   1.398   .     A
C1571  H1605   1.085   .     S
C1572  H1606   1.085   .     S
C1572  C1595   1.398   .     A
C1572  C590    1.399   1_556 S
C1573  Br1637  1.934   .     S
C1573  C1578   1.408   .     A
C1574  C1577   1.416   .     A
C1574  Br1638  1.946   .     S
C1574  C1352   1.395   1_655 S
C1575  Br1639  1.933   .     S
C1575  C1577   1.405   .     A
C1575  C1349   1.385   1_655 S
C1576  Br1640  1.945   .     S
C1576  C1578   1.421   .     A
C1579  N1608   1.404   .     A
C1579  C1641   1.563   .     S
C1580  C1651   1.536   .     S
C1580  N1607   1.390   .     A
C1580  C1917   1.456   .     S
C1581  N1608   1.403   .     A
C1581  C1661   1.564   .     S
C1582  N1607   1.389   .     A
C1582  C1671   1.535   .     S
C1582  C1915   1.456   .     S
C1583  O1616   1.305   .     A
C1583  C1588   1.430   .     S
C1583  O1613   1.314   .     A
C1584  O1615   1.314   .     A
C1584  O1614   1.305   .     A
C1584  C1587   1.430   .     S
C1585  H1601   1.084   .     S
C1585  C1595   1.388   .     A
C1585  C1587   1.387   .     A
C1586  C1596   1.388   .     A
C1586  H1602   1.084   .     S
C1586  C1588   1.388   .     A
C1587  C1589   1.389   .     A
C1588  C1590   1.389   .     A
C1589  C1591   1.399   .     A
C1589  H1603   1.082   .     S
C1590  C1592   1.399   .     A
C1590  H1604   1.082   .     S
C1591  C1597   1.420   .     A
C1591  C1593   1.423   .     A
C1592  C1594   1.423   .     A
C1592  C1598   1.420   .     A
C1593  C1595   1.413   .     A
C1593  C586    1.399   1_556 S
C1594  C1596   1.413   .     A
C1597  C1617   1.519   .     S
C1597  C563    1.399   1_556 S
C1598  C1627   1.519   .     S
Cu1599 O1615   1.939   .     S
Cu1599 Cu1600  2.755   .     S
Cu1599 O1611   1.963   .     S
Cu1599 O1609   1.965   .     S
Cu1599 N1607   2.070   .     S
Cu1599 O1613   1.939   .     S
Cu1600 O1616   1.939   .     S
Cu1600 O1612   1.963   .     S
Cu1600 O1614   1.939   .     S
Cu1600 N1608   2.070   .     S
Cu1600 O1610   1.965   .     S
C1617  H1625   1.111   .     S
C1617  H1626   1.113   .     S
C1617  C1618   1.536   .     S
C1618  H1624   1.110   .     S
C1618  H1623   1.112   .     S
C1619  H1621   1.109   .     S
C1619  H1622   1.111   .     S
C1619  C1394   1.526   1_655 S
C1619  H1396   1.111   1_655 S
C1627  H1635   1.111   .     S
C1627  C1628   1.536   .     S
C1627  H1636   1.113   .     S
C1628  H1634   1.111   .     S
C1628  H1633   1.112   .     S
C1628  C1405   1.527   1_655 S
C1629  H1632   1.111   .     S
C1629  H1631   1.109   .     S
H1630  C1405   1.111   1_655 S
C1641  C1642   1.540   .     S
C1641  H1649   1.098   .     S
C1641  H1650   1.076   .     S
C1642  C1643   1.534   .     S
C1642  H1647   1.101   .     S
C1642  H1648   1.105   .     S
C1643  H1644   1.111   .     S
C1643  H1645   1.111   .     S
C1643  H1646   1.111   .     S
C1651  H1660   1.112   .     S
C1651  C1652   1.568   .     S
C1651  H1659   1.093   .     S
C1652  H1658   1.094   .     S
C1652  C1653   1.529   .     S
C1652  H1657   1.109   .     S
C1653  H1654   1.109   .     S
C1653  H1655   1.110   .     S
C1653  H1656   1.110   .     S
C1661  C1662   1.540   .     S
C1661  H1669   1.099   .     S
C1661  H1670   1.075   .     S
C1662  H1668   1.104   .     S
C1662  C1663   1.534   .     S
C1662  H1667   1.100   .     S
C1663  H1664   1.111   .     S
C1663  H1666   1.111   .     S
C1663  H1665   1.111   .     S
C1671  H1679   1.093   .     S
C1671  C1672   1.568   .     S
C1671  H1680   1.112   .     S
C1672  H1677   1.109   .     S
C1672  C1673   1.528   .     S
C1672  H1678   1.095   .     S
C1673  H1675   1.110   .     S
C1673  H1676   1.110   .     S
C1673  H1674   1.108   .     S
C1681  O1724   1.327   .     A
C1681  O1721   1.313   .     A
C1681  C1690   1.469   .     S
C1682  O1723   1.314   .     A
C1682  O1722   1.325   .     A
C1682  C1689   1.467   .     S
C1683  C1708   1.398   .     A
C1683  H1717   1.085   .     S
C1684  H1718   1.085   .     S
C1684  C1707   1.398   .     A
C1684  C702    1.399   1_556 S
C1685  Br1749  1.934   .     S
C1685  C1690   1.408   .     A
C1685  C1911   1.385   1_455 S
C1686  C1689   1.416   .     A
C1686  Br1750  1.946   .     S
C1686  C1800   1.395   .     S
C1687  Br1751  1.933   .     S
C1687  C1689   1.405   .     A
C1687  C1797   1.385   .     S
C1688  Br1752  1.945   .     S
C1688  C1690   1.421   .     A
C1688  C1910   1.395   1_455 S
C1691  N1720   1.404   .     A
C1691  C1753   1.563   .     S
C1692  C1763   1.536   .     S
C1692  N1719   1.390   .     A
C1692  C1021   1.456   1_565 S
C1693  N1720   1.403   .     A
C1693  C1773   1.564   .     S
C1694  N1719   1.389   .     A
C1694  C1783   1.535   .     S
C1694  C1019   1.456   1_565 S
C1695  O1728   1.305   .     A
C1695  C1700   1.430   .     S
C1695  O1725   1.314   .     A
C1696  O1727   1.314   .     A
C1696  O1726   1.305   .     A
C1696  C1699   1.430   .     S
C1697  H1713   1.084   .     S
C1697  C1707   1.388   .     A
C1697  C1699   1.387   .     A
C1698  C1708   1.388   .     A
C1698  H1714   1.084   .     S
C1698  C1700   1.388   .     A
C1699  C1701   1.389   .     A
C1700  C1702   1.389   .     A
C1701  C1703   1.399   .     A
C1701  H1715   1.082   .     S
C1702  C1704   1.399   .     A
C1702  H1716   1.082   .     S
C1703  C1709   1.420   .     A
C1703  C1705   1.423   .     A
C1704  C1706   1.423   .     A
C1704  C1710   1.420   .     A
C1705  C1707   1.413   .     A
C1705  C698    1.399   1_556 S
C1706  C1708   1.413   .     A
C1709  C1729   1.519   .     S
C1709  C675    1.399   1_556 S
C1710  C1739   1.519   .     S
Cu1711 O1727   1.939   .     S
Cu1711 Cu1712  2.755   .     S
Cu1711 O1723   1.963   .     S
Cu1711 O1721   1.965   .     S
Cu1711 N1719   2.070   .     S
Cu1711 O1725   1.939   .     S
Cu1712 O1728   1.939   .     S
Cu1712 O1724   1.963   .     S
Cu1712 O1726   1.939   .     S
Cu1712 N1720   2.070   .     S
Cu1712 O1722   1.965   .     S
C1729  H1737   1.111   .     S
C1729  H1738   1.113   .     S
C1729  C1730   1.536   .     S
C1730  H1736   1.110   .     S
C1730  H1735   1.112   .     S
C1730  C1955   1.526   1_455 S
C1731  H1733   1.109   .     S
C1731  H1734   1.111   .     S
C1731  C1842   1.526   .     S
C1731  H1844   1.111   .     S
H1732  C1955   1.111   1_455 S
C1739  H1747   1.111   .     S
C1739  C1740   1.536   .     S
C1739  H1748   1.113   .     S
C1740  H1746   1.111   .     S
C1740  H1745   1.112   .     S
C1740  C1853   1.527   .     S
C1741  H1744   1.111   .     S
C1741  H1743   1.109   .     S
C1741  C1964   1.527   1_455 S
C1741  H1966   1.111   1_455 S
H1742  C1853   1.111   .     S
C1753  C1754   1.540   .     S
C1753  H1761   1.098   .     S
C1753  H1762   1.076   .     S
C1754  C1755   1.534   .     S
C1754  H1759   1.101   .     S
C1754  H1760   1.105   .     S
C1755  H1756   1.111   .     S
C1755  H1757   1.111   .     S
C1755  H1758   1.111   .     S
C1763  H1772   1.112   .     S
C1763  C1764   1.568   .     S
C1763  H1771   1.093   .     S
C1764  H1770   1.094   .     S
C1764  C1765   1.529   .     S
C1764  H1769   1.109   .     S
C1765  H1766   1.109   .     S
C1765  H1767   1.110   .     S
C1765  H1768   1.110   .     S
C1773  C1774   1.540   .     S
C1773  H1781   1.099   .     S
C1773  H1782   1.075   .     S
C1774  H1780   1.104   .     S
C1774  C1775   1.534   .     S
C1774  H1779   1.100   .     S
C1775  H1776   1.111   .     S
C1775  H1778   1.111   .     S
C1775  H1777   1.111   .     S
C1783  H1791   1.093   .     S
C1783  C1784   1.568   .     S
C1783  H1792   1.112   .     S
C1784  H1789   1.109   .     S
C1784  C1785   1.528   .     S
C1784  H1790   1.095   .     S
C1785  H1787   1.110   .     S
C1785  H1788   1.110   .     S
C1785  H1786   1.108   .     S
C1793  O1836   1.327   .     A
C1793  O1833   1.313   .     A
C1793  C1802   1.469   .     S
C1794  O1835   1.314   .     A
C1794  O1834   1.325   .     A
C1794  C1801   1.467   .     S
C1795  C1820   1.398   .     A
C1795  H1829   1.085   .     S
C1796  H1830   1.085   .     S
C1796  C1819   1.398   .     A
C1796  C814    1.399   1_556 S
C1797  Br1861  1.934   .     S
C1797  C1802   1.408   .     A
C1798  C1801   1.416   .     A
C1798  Br1862  1.946   .     S
C1798  C1912   1.395   .     S
C1799  Br1863  1.933   .     S
C1799  C1801   1.405   .     A
C1799  C1909   1.385   .     S
C1800  Br1864  1.945   .     S
C1800  C1802   1.421   .     A
C1803  N1832   1.404   .     A
C1803  C1865   1.563   .     S
C1804  C1875   1.536   .     S
C1804  N1831   1.390   .     A
C1804  C1133   1.456   1_565 S
C1805  N1832   1.403   .     A
C1805  C1885   1.564   .     S
C1806  N1831   1.389   .     A
C1806  C1895   1.535   .     S
C1806  C1131   1.456   1_565 S
C1807  O1840   1.305   .     A
C1807  C1812   1.430   .     S
C1807  O1837   1.314   .     A
C1808  O1839   1.314   .     A
C1808  O1838   1.305   .     A
C1808  C1811   1.430   .     S
C1809  H1825   1.084   .     S
C1809  C1819   1.388   .     A
C1809  C1811   1.387   .     A
C1810  C1820   1.388   .     A
C1810  H1826   1.084   .     S
C1810  C1812   1.388   .     A
C1811  C1813   1.389   .     A
C1812  C1814   1.389   .     A
C1813  C1815   1.399   .     A
C1813  H1827   1.082   .     S
C1814  C1816   1.399   .     A
C1814  H1828   1.082   .     S
C1815  C1821   1.420   .     A
C1815  C1817   1.423   .     A
C1816  C1818   1.423   .     A
C1816  C1822   1.420   .     A
C1817  C1819   1.413   .     A
C1817  C810    1.399   1_556 S
C1818  C1820   1.413   .     A
C1821  C1841   1.519   .     S
C1821  C787    1.399   1_556 S
C1822  C1851   1.519   .     S
Cu1823 O1839   1.939   .     S
Cu1823 Cu1824  2.755   .     S
Cu1823 O1835   1.963   .     S
Cu1823 O1833   1.965   .     S
Cu1823 N1831   2.070   .     S
Cu1823 O1837   1.939   .     S
Cu1824 O1840   1.939   .     S
Cu1824 O1836   1.963   .     S
Cu1824 O1838   1.939   .     S
Cu1824 N1832   2.070   .     S
Cu1824 O1834   1.965   .     S
C1841  H1849   1.111   .     S
C1841  H1850   1.113   .     S
C1841  C1842   1.536   .     S
C1842  H1848   1.110   .     S
C1842  H1847   1.112   .     S
C1843  H1845   1.109   .     S
C1843  H1846   1.111   .     S
C1843  C1954   1.526   .     S
C1843  H1956   1.111   .     S
C1851  H1859   1.111   .     S
C1851  C1852   1.536   .     S
C1851  H1860   1.113   .     S
C1852  H1858   1.111   .     S
C1852  H1857   1.112   .     S
C1852  C1965   1.527   .     S
C1853  H1856   1.111   .     S
C1853  H1855   1.109   .     S
H1854  C1965   1.111   .     S
C1865  C1866   1.540   .     S
C1865  H1873   1.098   .     S
C1865  H1874   1.076   .     S
C1866  C1867   1.534   .     S
C1866  H1871   1.101   .     S
C1866  H1872   1.105   .     S
C1867  H1868   1.111   .     S
C1867  H1869   1.111   .     S
C1867  H1870   1.111   .     S
C1875  H1884   1.112   .     S
C1875  C1876   1.568   .     S
C1875  H1883   1.093   .     S
C1876  H1882   1.094   .     S
C1876  C1877   1.529   .     S
C1876  H1881   1.109   .     S
C1877  H1878   1.109   .     S
C1877  H1879   1.110   .     S
C1877  H1880   1.110   .     S
C1885  C1886   1.540   .     S
C1885  H1893   1.099   .     S
C1885  H1894   1.075   .     S
C1886  H1892   1.104   .     S
C1886  C1887   1.534   .     S
C1886  H1891   1.100   .     S
C1887  H1888   1.111   .     S
C1887  H1890   1.111   .     S
C1887  H1889   1.111   .     S
C1895  H1903   1.093   .     S
C1895  C1896   1.568   .     S
C1895  H1904   1.112   .     S
C1896  H1901   1.109   .     S
C1896  C1897   1.528   .     S
C1896  H1902   1.095   .     S
C1897  H1899   1.110   .     S
C1897  H1900   1.110   .     S
C1897  H1898   1.108   .     S
C1905  O1948   1.327   .     A
C1905  O1945   1.313   .     A
C1905  C1914   1.469   .     S
C1906  O1947   1.314   .     A
C1906  O1946   1.325   .     A
C1906  C1913   1.467   .     S
C1907  C1932   1.398   .     A
C1907  H1941   1.085   .     S
C1908  H1942   1.085   .     S
C1908  C1931   1.398   .     A
C1908  C926    1.399   1_556 S
C1909  Br1973  1.934   .     S
C1909  C1914   1.408   .     A
C1910  C1913   1.416   .     A
C1910  Br1974  1.946   .     S
C1910  C1688   1.395   1_655 S
C1911  Br1975  1.933   .     S
C1911  C1913   1.405   .     A
C1911  C1685   1.385   1_655 S
C1912  Br1976  1.945   .     S
C1912  C1914   1.421   .     A
C1915  N1944   1.404   .     A
C1915  C1977   1.563   .     S
C1916  C1987   1.536   .     S
C1916  N1943   1.390   .     A
C1916  C1245   1.456   1_565 S
C1917  N1944   1.403   .     A
C1917  C1997   1.564   .     S
C1918  N1943   1.389   .     A
C1918  C2007   1.535   .     S
C1918  C1243   1.456   1_565 S
C1919  O1952   1.305   .     A
C1919  C1924   1.430   .     S
C1919  O1949   1.314   .     A
C1920  O1951   1.314   .     A
C1920  O1950   1.305   .     A
C1920  C1923   1.430   .     S
C1921  H1937   1.084   .     S
C1921  C1931   1.388   .     A
C1921  C1923   1.387   .     A
C1922  C1932   1.388   .     A
C1922  H1938   1.084   .     S
C1922  C1924   1.388   .     A
C1923  C1925   1.389   .     A
C1924  C1926   1.389   .     A
C1925  C1927   1.399   .     A
C1925  H1939   1.082   .     S
C1926  C1928   1.399   .     A
C1926  H1940   1.082   .     S
C1927  C1933   1.420   .     A
C1927  C1929   1.423   .     A
C1928  C1930   1.423   .     A
C1928  C1934   1.420   .     A
C1929  C1931   1.413   .     A
C1929  C922    1.399   1_556 S
C1930  C1932   1.413   .     A
C1933  C1953   1.519   .     S
C1933  C899    1.399   1_556 S
C1934  C1963   1.519   .     S
Cu1935 O1951   1.939   .     S
Cu1935 Cu1936  2.755   .     S
Cu1935 O1947   1.963   .     S
Cu1935 O1945   1.965   .     S
Cu1935 N1943   2.070   .     S
Cu1935 O1949   1.939   .     S
Cu1936 O1952   1.939   .     S
Cu1936 O1948   1.963   .     S
Cu1936 O1950   1.939   .     S
Cu1936 N1944   2.070   .     S
Cu1936 O1946   1.965   .     S
C1953  H1961   1.111   .     S
C1953  H1962   1.113   .     S
C1953  C1954   1.536   .     S
C1954  H1960   1.110   .     S
C1954  H1959   1.112   .     S
C1955  H1957   1.109   .     S
C1955  H1958   1.111   .     S
C1955  C1730   1.526   1_655 S
C1955  H1732   1.111   1_655 S
C1963  H1971   1.111   .     S
C1963  C1964   1.536   .     S
C1963  H1972   1.113   .     S
C1964  H1970   1.111   .     S
C1964  H1969   1.112   .     S
C1964  C1741   1.527   1_655 S
C1965  H1968   1.111   .     S
C1965  H1967   1.109   .     S
H1966  C1741   1.111   1_655 S
C1977  C1978   1.540   .     S
C1977  H1985   1.098   .     S
C1977  H1986   1.076   .     S
C1978  C1979   1.534   .     S
C1978  H1983   1.101   .     S
C1978  H1984   1.105   .     S
C1979  H1980   1.111   .     S
C1979  H1981   1.111   .     S
C1979  H1982   1.111   .     S
C1987  H1996   1.112   .     S
C1987  C1988   1.568   .     S
C1987  H1995   1.093   .     S
C1988  H1994   1.094   .     S
C1988  C1989   1.529   .     S
C1988  H1993   1.109   .     S
C1989  H1990   1.109   .     S
C1989  H1991   1.110   .     S
C1989  H1992   1.110   .     S
C1997  C1998   1.540   .     S
C1997  H2005   1.099   .     S
C1997  H2006   1.075   .     S
C1998  H2004   1.104   .     S
C1998  C1999   1.534   .     S
C1998  H2003   1.100   .     S
C1999  H2000   1.111   .     S
C1999  H2002   1.111   .     S
C1999  H2001   1.111   .     S
C2007  H2015   1.093   .     S
C2007  C2008   1.568   .     S
C2007  H2016   1.112   .     S
C2008  H2013   1.109   .     S
C2008  C2009   1.528   .     S
C2008  H2014   1.095   .     S
C2009  H2011   1.110   .     S
C2009  H2012   1.110   .     S
C2009  H2010   1.108   .     S
