data_str_m2_o1_o10_pcu_sym.34
_audit_creation_date              2020-01-03
_audit_creation_method            'Materials Studio'
_symmetry_space_group_name_H-M    'P1'
_symmetry_Int_Tables_number       1
_symmetry_cell_setting            triclinic
loop_
_symmetry_equiv_pos_as_xyz
  x,y,z
_cell_length_a                    26.1854
_cell_length_b                    32.3149
_cell_length_c                    28.9028
_cell_angle_alpha                 89.3979
_cell_angle_beta                  97.6028
_cell_angle_gamma                 92.2477
loop_
_atom_site_label
_atom_site_type_symbol
_atom_site_fract_x
_atom_site_fract_y
_atom_site_fract_z
_atom_site_U_iso_or_equiv
_atom_site_adp_type
_atom_site_occupancy
C1     C     0.16587   0.08765   0.16672   0.00000  Uiso   1.00
C2     C     0.12128   0.01972   0.17531   0.00000  Uiso   1.00
C3     C     0.16733   0.29041   0.16641   0.00000  Uiso   1.00
C4     C     0.16600   0.04292   0.16693   0.00000  Uiso   1.00
C5     C     0.13211   0.14197   0.02093   0.00000  Uiso   1.00
C6     C     0.20123   0.19136   0.31241   0.00000  Uiso   1.00
C7     C     0.13237   0.14178   0.30482   0.00000  Uiso   1.00
C8     C     0.20096   0.19156   0.02851   0.00000  Uiso   1.00
C9     C     0.25647   0.04972   0.14739   0.00000  Uiso   1.00
C10    C     0.07687   0.28362   0.18595   0.00000  Uiso   1.00
C11    C     0.26232   0.29287   0.15392   0.00000  Uiso   1.00
C12    C     0.16747   0.24569   0.16661   0.00000  Uiso   1.00
C13    C     0.07102   0.04046   0.17941   0.00000  Uiso   1.00
C14    C     0.09479   0.11439   0.04152   0.00000  Uiso   1.00
C15    C     0.23855   0.21893   0.29181   0.00000  Uiso   1.00
C16    C     0.09767   0.11208   0.27652   0.00000  Uiso   1.00
C17    C     0.23565   0.22126   0.05681   0.00000  Uiso   1.00
C18    C     0.06807   0.16611   0.15475   0.00000  Uiso   1.00
C19    C     0.26526   0.16722   0.17859   0.00000  Uiso   1.00
C20    C     0.01275   0.16436   0.14840   0.00000  Uiso   1.00
C21    C     0.32059   0.16897   0.18493   0.00000  Uiso   1.00
C22    C     0.21080   0.02372   0.15721   0.00000  Uiso   1.00
C23    C     0.12253   0.30962   0.17612   0.00000  Uiso   1.00
C24    C     0.21205   0.31362   0.15802   0.00000  Uiso   1.00
Cu25   Cu    0.16667   0.16667   0.21355   0.00000  Uiso   1.00
Cu26   Cu    0.16667   0.16666   0.11978   0.00000  Uiso   1.00
H27    H     0.32625   0.15860   0.11352   0.00000  Uiso   1.00
H28    H     0.06042   0.03606   0.21506   0.00000  Uiso   1.00
H29    H     0.10724   0.08629   0.05957   0.00000  Uiso   1.00
H30    H     0.22610   0.24704   0.27375   0.00000  Uiso   1.00
H31    H     0.11309   0.08473   0.26329   0.00000  Uiso   1.00
H32    H     0.22023   0.24861   0.07003   0.00000  Uiso   1.00
H33    H     0.00708   0.17473   0.21982   0.00000  Uiso   1.00
H34    H     0.26778   0.07743   0.16763   0.00000  Uiso   1.00
H35    H     0.06555   0.25591   0.16571   0.00000  Uiso   1.00
H36    H     0.26125   0.25921   0.16144   0.00000  Uiso   1.00
H37    H     0.27291   0.29728   0.11827   0.00000  Uiso   1.00
H38    H     0.29332   0.30689   0.17947   0.00000  Uiso   1.00
H39    H     0.07208   0.07412   0.17189   0.00000  Uiso   1.00
H40    H     0.04001   0.02644   0.15386   0.00000  Uiso   1.00
N41    N     0.16668   0.16668   0.28403   0.00000  Uiso   1.00
N42    N     0.16665   0.16666   0.04931   0.00000  Uiso   1.00
O43    O     0.16666   0.10655   0.20625   0.00000  Uiso   1.00
O44    O     0.05315   0.29183   0.21807   0.00000  Uiso   1.00
O45    O     0.04915   0.12219   0.03665   0.00000  Uiso   1.00
O46    O     0.28419   0.21114   0.29670   0.00000  Uiso   1.00
O47    O     0.05124   0.11663   0.27043   0.00000  Uiso   1.00
O48    O     0.28209   0.21671   0.06292   0.00000  Uiso   1.00
O49    O     0.16667   0.22678   0.12709   0.00000  Uiso   1.00
O50    O     0.16666   0.10654   0.12706   0.00000  Uiso   1.00
O51    O     0.16667   0.22679   0.20628   0.00000  Uiso   1.00
O52    O     0.09161   0.16667   0.19712   0.00000  Uiso   1.00
O53    O     0.24172   0.16666   0.13621   0.00000  Uiso   1.00
O54    O     0.09161   0.16666   0.11793   0.00000  Uiso   1.00
O55    O     0.24172   0.16667   0.21540   0.00000  Uiso   1.00
O56    O     0.28018   0.04151   0.11526   0.00000  Uiso   1.00
C57    C     0.49920   0.08765   0.16672   0.00000  Uiso   1.00
C58    C     0.45462   0.01972   0.17531   0.00000  Uiso   1.00
C59    C     0.50067   0.29041   0.16641   0.00000  Uiso   1.00
C60    C     0.49933   0.04292   0.16693   0.00000  Uiso   1.00
C61    C     0.46544   0.14197   0.02093   0.00000  Uiso   1.00
C62    C     0.53456   0.19136   0.31241   0.00000  Uiso   1.00
C63    C     0.46571   0.14178   0.30482   0.00000  Uiso   1.00
C64    C     0.53429   0.19156   0.02851   0.00000  Uiso   1.00
C65    C     0.58980   0.04972   0.14739   0.00000  Uiso   1.00
C66    C     0.41020   0.28362   0.18595   0.00000  Uiso   1.00
C67    C     0.59565   0.29287   0.15392   0.00000  Uiso   1.00
C68    C     0.50080   0.24569   0.16661   0.00000  Uiso   1.00
C69    C     0.40435   0.04046   0.17941   0.00000  Uiso   1.00
C70    C     0.42813   0.11439   0.04152   0.00000  Uiso   1.00
C71    C     0.57188   0.21893   0.29181   0.00000  Uiso   1.00
C72    C     0.43101   0.11208   0.27652   0.00000  Uiso   1.00
C73    C     0.56898   0.22126   0.05681   0.00000  Uiso   1.00
C74    C     0.40140   0.16611   0.15475   0.00000  Uiso   1.00
C75    C     0.59860   0.16722   0.17859   0.00000  Uiso   1.00
C76    C     0.34608   0.16436   0.14840   0.00000  Uiso   1.00
C77    C     0.65392   0.16897   0.18493   0.00000  Uiso   1.00
C78    C     0.54413   0.02372   0.15721   0.00000  Uiso   1.00
C79    C     0.45586   0.30962   0.17612   0.00000  Uiso   1.00
C80    C     0.54538   0.31362   0.15802   0.00000  Uiso   1.00
Cu81   Cu    0.50000   0.16667   0.21355   0.00000  Uiso   1.00
Cu82   Cu    0.50000   0.16666   0.11978   0.00000  Uiso   1.00
H83    H     0.65958   0.15860   0.11352   0.00000  Uiso   1.00
H84    H     0.39375   0.03606   0.21506   0.00000  Uiso   1.00
H85    H     0.44058   0.08629   0.05957   0.00000  Uiso   1.00
H86    H     0.55943   0.24704   0.27375   0.00000  Uiso   1.00
H87    H     0.44643   0.08473   0.26329   0.00000  Uiso   1.00
H88    H     0.55356   0.24861   0.07003   0.00000  Uiso   1.00
H89    H     0.34042   0.17473   0.21982   0.00000  Uiso   1.00
H90    H     0.60111   0.07743   0.16763   0.00000  Uiso   1.00
H91    H     0.39889   0.25591   0.16571   0.00000  Uiso   1.00
H92    H     0.59458   0.25921   0.16144   0.00000  Uiso   1.00
H93    H     0.60625   0.29728   0.11827   0.00000  Uiso   1.00
H94    H     0.62665   0.30689   0.17947   0.00000  Uiso   1.00
H95    H     0.40542   0.07412   0.17189   0.00000  Uiso   1.00
H96    H     0.37335   0.02644   0.15386   0.00000  Uiso   1.00
N97    N     0.50001   0.16668   0.28403   0.00000  Uiso   1.00
N98    N     0.49999   0.16666   0.04931   0.00000  Uiso   1.00
O99    O     0.50000   0.10655   0.20625   0.00000  Uiso   1.00
O100   O     0.38648   0.29183   0.21807   0.00000  Uiso   1.00
O101   O     0.38248   0.12219   0.03665   0.00000  Uiso   1.00
O102   O     0.61753   0.21114   0.29670   0.00000  Uiso   1.00
O103   O     0.38457   0.11663   0.27043   0.00000  Uiso   1.00
O104   O     0.61542   0.21671   0.06292   0.00000  Uiso   1.00
O105   O     0.50000   0.22678   0.12709   0.00000  Uiso   1.00
O106   O     0.50000   0.10654   0.12706   0.00000  Uiso   1.00
O107   O     0.50000   0.22679   0.20628   0.00000  Uiso   1.00
O108   O     0.42495   0.16667   0.19712   0.00000  Uiso   1.00
O109   O     0.57505   0.16666   0.13621   0.00000  Uiso   1.00
O110   O     0.42494   0.16666   0.11793   0.00000  Uiso   1.00
O111   O     0.57506   0.16667   0.21540   0.00000  Uiso   1.00
O112   O     0.61352   0.04151   0.11526   0.00000  Uiso   1.00
C113   C     0.83253   0.08765   0.16672   0.00000  Uiso   1.00
C114   C     0.78795   0.01972   0.17531   0.00000  Uiso   1.00
C115   C     0.83400   0.29041   0.16641   0.00000  Uiso   1.00
C116   C     0.83267   0.04292   0.16693   0.00000  Uiso   1.00
C117   C     0.79877   0.14197   0.02093   0.00000  Uiso   1.00
C118   C     0.86789   0.19136   0.31241   0.00000  Uiso   1.00
C119   C     0.79904   0.14178   0.30482   0.00000  Uiso   1.00
C120   C     0.86762   0.19156   0.02851   0.00000  Uiso   1.00
C121   C     0.92313   0.04972   0.14739   0.00000  Uiso   1.00
C122   C     0.74353   0.28362   0.18595   0.00000  Uiso   1.00
C123   C     0.92898   0.29287   0.15392   0.00000  Uiso   1.00
C124   C     0.83413   0.24569   0.16661   0.00000  Uiso   1.00
C125   C     0.73768   0.04046   0.17941   0.00000  Uiso   1.00
C126   C     0.76146   0.11439   0.04152   0.00000  Uiso   1.00
C127   C     0.90521   0.21893   0.29181   0.00000  Uiso   1.00
C128   C     0.76434   0.11208   0.27652   0.00000  Uiso   1.00
C129   C     0.90232   0.22126   0.05681   0.00000  Uiso   1.00
C130   C     0.73474   0.16611   0.15475   0.00000  Uiso   1.00
C131   C     0.93193   0.16722   0.17859   0.00000  Uiso   1.00
C132   C     0.67941   0.16436   0.14840   0.00000  Uiso   1.00
C133   C     0.98725   0.16897   0.18493   0.00000  Uiso   1.00
C134   C     0.87747   0.02372   0.15721   0.00000  Uiso   1.00
C135   C     0.78920   0.30962   0.17612   0.00000  Uiso   1.00
C136   C     0.87871   0.31362   0.15802   0.00000  Uiso   1.00
Cu137  Cu    0.83333   0.16667   0.21355   0.00000  Uiso   1.00
Cu138  Cu    0.83333   0.16666   0.11978   0.00000  Uiso   1.00
H139   H     0.99291   0.15860   0.11352   0.00000  Uiso   1.00
H140   H     0.72708   0.03606   0.21506   0.00000  Uiso   1.00
H141   H     0.77391   0.08629   0.05957   0.00000  Uiso   1.00
H142   H     0.89277   0.24704   0.27375   0.00000  Uiso   1.00
H143   H     0.77976   0.08473   0.26329   0.00000  Uiso   1.00
H144   H     0.88690   0.24861   0.07003   0.00000  Uiso   1.00
H145   H     0.67375   0.17473   0.21982   0.00000  Uiso   1.00
H146   H     0.93445   0.07743   0.16763   0.00000  Uiso   1.00
H147   H     0.73222   0.25591   0.16571   0.00000  Uiso   1.00
H148   H     0.92792   0.25921   0.16144   0.00000  Uiso   1.00
H149   H     0.93958   0.29728   0.11827   0.00000  Uiso   1.00
H150   H     0.95999   0.30689   0.17947   0.00000  Uiso   1.00
H151   H     0.73875   0.07412   0.17189   0.00000  Uiso   1.00
H152   H     0.70668   0.02644   0.15386   0.00000  Uiso   1.00
N153   N     0.83335   0.16668   0.28403   0.00000  Uiso   1.00
N154   N     0.83332   0.16666   0.04931   0.00000  Uiso   1.00
O155   O     0.83333   0.10655   0.20625   0.00000  Uiso   1.00
O156   O     0.71981   0.29183   0.21807   0.00000  Uiso   1.00
O157   O     0.71581   0.12219   0.03665   0.00000  Uiso   1.00
O158   O     0.95086   0.21114   0.29670   0.00000  Uiso   1.00
O159   O     0.71791   0.11663   0.27043   0.00000  Uiso   1.00
O160   O     0.94875   0.21671   0.06292   0.00000  Uiso   1.00
O161   O     0.83334   0.22678   0.12709   0.00000  Uiso   1.00
O162   O     0.83333   0.10654   0.12706   0.00000  Uiso   1.00
O163   O     0.83334   0.22679   0.20628   0.00000  Uiso   1.00
O164   O     0.75828   0.16667   0.19712   0.00000  Uiso   1.00
O165   O     0.90839   0.16666   0.13621   0.00000  Uiso   1.00
O166   O     0.75828   0.16666   0.11793   0.00000  Uiso   1.00
O167   O     0.90839   0.16667   0.21540   0.00000  Uiso   1.00
O168   O     0.94685   0.04151   0.11526   0.00000  Uiso   1.00
C169   C     0.16587   0.42098   0.16672   0.00000  Uiso   1.00
C170   C     0.12128   0.35305   0.17531   0.00000  Uiso   1.00
C171   C     0.16733   0.62374   0.16641   0.00000  Uiso   1.00
C172   C     0.16600   0.37626   0.16693   0.00000  Uiso   1.00
C173   C     0.13211   0.47530   0.02093   0.00000  Uiso   1.00
C174   C     0.20123   0.52470   0.31241   0.00000  Uiso   1.00
C175   C     0.13237   0.47511   0.30482   0.00000  Uiso   1.00
C176   C     0.20096   0.52489   0.02851   0.00000  Uiso   1.00
C177   C     0.25647   0.38305   0.14739   0.00000  Uiso   1.00
C178   C     0.07687   0.61695   0.18595   0.00000  Uiso   1.00
C179   C     0.26232   0.62621   0.15392   0.00000  Uiso   1.00
C180   C     0.16747   0.57902   0.16661   0.00000  Uiso   1.00
C181   C     0.07102   0.37379   0.17941   0.00000  Uiso   1.00
C182   C     0.09479   0.44773   0.04152   0.00000  Uiso   1.00
C183   C     0.23855   0.55227   0.29181   0.00000  Uiso   1.00
C184   C     0.09767   0.44541   0.27652   0.00000  Uiso   1.00
C185   C     0.23565   0.55459   0.05681   0.00000  Uiso   1.00
C186   C     0.06807   0.49944   0.15475   0.00000  Uiso   1.00
C187   C     0.26526   0.50056   0.17859   0.00000  Uiso   1.00
C188   C     0.01275   0.49770   0.14840   0.00000  Uiso   1.00
C189   C     0.32059   0.50230   0.18493   0.00000  Uiso   1.00
C190   C     0.21080   0.35705   0.15721   0.00000  Uiso   1.00
C191   C     0.12253   0.64295   0.17612   0.00000  Uiso   1.00
C192   C     0.21205   0.64695   0.15802   0.00000  Uiso   1.00
Cu193  Cu    0.16667   0.50001   0.21355   0.00000  Uiso   1.00
Cu194  Cu    0.16667   0.49999   0.11978   0.00000  Uiso   1.00
H195   H     0.32625   0.49194   0.11352   0.00000  Uiso   1.00
H196   H     0.06042   0.36939   0.21506   0.00000  Uiso   1.00
H197   H     0.10724   0.41962   0.05957   0.00000  Uiso   1.00
H198   H     0.22610   0.58037   0.27375   0.00000  Uiso   1.00
H199   H     0.11309   0.41807   0.26329   0.00000  Uiso   1.00
H200   H     0.22023   0.58195   0.07003   0.00000  Uiso   1.00
H201   H     0.00708   0.50806   0.21982   0.00000  Uiso   1.00
H202   H     0.26778   0.41076   0.16763   0.00000  Uiso   1.00
H203   H     0.06555   0.58924   0.16571   0.00000  Uiso   1.00
H204   H     0.26125   0.59254   0.16144   0.00000  Uiso   1.00
H205   H     0.27291   0.63061   0.11827   0.00000  Uiso   1.00
H206   H     0.29332   0.64022   0.17947   0.00000  Uiso   1.00
H207   H     0.07208   0.40746   0.17189   0.00000  Uiso   1.00
H208   H     0.04001   0.35978   0.15386   0.00000  Uiso   1.00
N209   N     0.16668   0.50001   0.28403   0.00000  Uiso   1.00
N210   N     0.16665   0.49999   0.04931   0.00000  Uiso   1.00
O211   O     0.16666   0.43989   0.20625   0.00000  Uiso   1.00
O212   O     0.05315   0.62516   0.21807   0.00000  Uiso   1.00
O213   O     0.04915   0.45553   0.03665   0.00000  Uiso   1.00
O214   O     0.28419   0.54447   0.29670   0.00000  Uiso   1.00
O215   O     0.05124   0.44996   0.27043   0.00000  Uiso   1.00
O216   O     0.28209   0.55004   0.06292   0.00000  Uiso   1.00
O217   O     0.16667   0.56011   0.12709   0.00000  Uiso   1.00
O218   O     0.16666   0.43988   0.12706   0.00000  Uiso   1.00
O219   O     0.16667   0.56012   0.20628   0.00000  Uiso   1.00
O220   O     0.09161   0.50000   0.19712   0.00000  Uiso   1.00
O221   O     0.24172   0.50000   0.13621   0.00000  Uiso   1.00
O222   O     0.09161   0.49999   0.11793   0.00000  Uiso   1.00
O223   O     0.24172   0.50001   0.21540   0.00000  Uiso   1.00
O224   O     0.28018   0.37484   0.11526   0.00000  Uiso   1.00
C225   C     0.49920   0.42098   0.16672   0.00000  Uiso   1.00
C226   C     0.45462   0.35305   0.17531   0.00000  Uiso   1.00
C227   C     0.50067   0.62374   0.16641   0.00000  Uiso   1.00
C228   C     0.49933   0.37626   0.16693   0.00000  Uiso   1.00
C229   C     0.46544   0.47530   0.02093   0.00000  Uiso   1.00
C230   C     0.53456   0.52470   0.31241   0.00000  Uiso   1.00
C231   C     0.46571   0.47511   0.30482   0.00000  Uiso   1.00
C232   C     0.53429   0.52489   0.02851   0.00000  Uiso   1.00
C233   C     0.58980   0.38305   0.14739   0.00000  Uiso   1.00
C234   C     0.41020   0.61695   0.18595   0.00000  Uiso   1.00
C235   C     0.59565   0.62621   0.15392   0.00000  Uiso   1.00
C236   C     0.50080   0.57902   0.16661   0.00000  Uiso   1.00
C237   C     0.40435   0.37379   0.17941   0.00000  Uiso   1.00
C238   C     0.42813   0.44773   0.04152   0.00000  Uiso   1.00
C239   C     0.57188   0.55227   0.29181   0.00000  Uiso   1.00
C240   C     0.43101   0.44541   0.27652   0.00000  Uiso   1.00
C241   C     0.56898   0.55459   0.05681   0.00000  Uiso   1.00
C242   C     0.40140   0.49944   0.15475   0.00000  Uiso   1.00
C243   C     0.59860   0.50056   0.17859   0.00000  Uiso   1.00
C244   C     0.34608   0.49770   0.14840   0.00000  Uiso   1.00
C245   C     0.65392   0.50230   0.18493   0.00000  Uiso   1.00
C246   C     0.54413   0.35705   0.15721   0.00000  Uiso   1.00
C247   C     0.45586   0.64295   0.17612   0.00000  Uiso   1.00
C248   C     0.54538   0.64695   0.15802   0.00000  Uiso   1.00
Cu249  Cu    0.50000   0.50001   0.21355   0.00000  Uiso   1.00
Cu250  Cu    0.50000   0.49999   0.11978   0.00000  Uiso   1.00
H251   H     0.65958   0.49194   0.11352   0.00000  Uiso   1.00
H252   H     0.39375   0.36939   0.21506   0.00000  Uiso   1.00
H253   H     0.44058   0.41962   0.05957   0.00000  Uiso   1.00
H254   H     0.55943   0.58037   0.27375   0.00000  Uiso   1.00
H255   H     0.44643   0.41807   0.26329   0.00000  Uiso   1.00
H256   H     0.55356   0.58195   0.07003   0.00000  Uiso   1.00
H257   H     0.34042   0.50806   0.21982   0.00000  Uiso   1.00
H258   H     0.60111   0.41076   0.16763   0.00000  Uiso   1.00
H259   H     0.39889   0.58924   0.16571   0.00000  Uiso   1.00
H260   H     0.59458   0.59254   0.16144   0.00000  Uiso   1.00
H261   H     0.60625   0.63061   0.11827   0.00000  Uiso   1.00
H262   H     0.62665   0.64022   0.17947   0.00000  Uiso   1.00
H263   H     0.40542   0.40746   0.17189   0.00000  Uiso   1.00
H264   H     0.37335   0.35978   0.15386   0.00000  Uiso   1.00
N265   N     0.50001   0.50001   0.28403   0.00000  Uiso   1.00
N266   N     0.49999   0.49999   0.04931   0.00000  Uiso   1.00
O267   O     0.50000   0.43989   0.20625   0.00000  Uiso   1.00
O268   O     0.38648   0.62516   0.21807   0.00000  Uiso   1.00
O269   O     0.38248   0.45553   0.03665   0.00000  Uiso   1.00
O270   O     0.61753   0.54447   0.29670   0.00000  Uiso   1.00
O271   O     0.38457   0.44996   0.27043   0.00000  Uiso   1.00
O272   O     0.61542   0.55004   0.06292   0.00000  Uiso   1.00
O273   O     0.50000   0.56011   0.12709   0.00000  Uiso   1.00
O274   O     0.50000   0.43988   0.12706   0.00000  Uiso   1.00
O275   O     0.50000   0.56012   0.20628   0.00000  Uiso   1.00
O276   O     0.42495   0.50000   0.19712   0.00000  Uiso   1.00
O277   O     0.57505   0.50000   0.13621   0.00000  Uiso   1.00
O278   O     0.42494   0.49999   0.11793   0.00000  Uiso   1.00
O279   O     0.57506   0.50001   0.21540   0.00000  Uiso   1.00
O280   O     0.61352   0.37484   0.11526   0.00000  Uiso   1.00
C281   C     0.83253   0.42098   0.16672   0.00000  Uiso   1.00
C282   C     0.78795   0.35305   0.17531   0.00000  Uiso   1.00
C283   C     0.83400   0.62374   0.16641   0.00000  Uiso   1.00
C284   C     0.83267   0.37626   0.16693   0.00000  Uiso   1.00
C285   C     0.79877   0.47530   0.02093   0.00000  Uiso   1.00
C286   C     0.86789   0.52470   0.31241   0.00000  Uiso   1.00
C287   C     0.79904   0.47511   0.30482   0.00000  Uiso   1.00
C288   C     0.86762   0.52489   0.02851   0.00000  Uiso   1.00
C289   C     0.92313   0.38305   0.14739   0.00000  Uiso   1.00
C290   C     0.74353   0.61695   0.18595   0.00000  Uiso   1.00
C291   C     0.92898   0.62621   0.15392   0.00000  Uiso   1.00
C292   C     0.83413   0.57902   0.16661   0.00000  Uiso   1.00
C293   C     0.73768   0.37379   0.17941   0.00000  Uiso   1.00
C294   C     0.76146   0.44773   0.04152   0.00000  Uiso   1.00
C295   C     0.90521   0.55227   0.29181   0.00000  Uiso   1.00
C296   C     0.76434   0.44541   0.27652   0.00000  Uiso   1.00
C297   C     0.90232   0.55459   0.05681   0.00000  Uiso   1.00
C298   C     0.73474   0.49944   0.15475   0.00000  Uiso   1.00
C299   C     0.93193   0.50056   0.17859   0.00000  Uiso   1.00
C300   C     0.67941   0.49770   0.14840   0.00000  Uiso   1.00
C301   C     0.98725   0.50230   0.18493   0.00000  Uiso   1.00
C302   C     0.87747   0.35705   0.15721   0.00000  Uiso   1.00
C303   C     0.78920   0.64295   0.17612   0.00000  Uiso   1.00
C304   C     0.87871   0.64695   0.15802   0.00000  Uiso   1.00
Cu305  Cu    0.83333   0.50001   0.21355   0.00000  Uiso   1.00
Cu306  Cu    0.83333   0.49999   0.11978   0.00000  Uiso   1.00
H307   H     0.99291   0.49194   0.11352   0.00000  Uiso   1.00
H308   H     0.72708   0.36939   0.21506   0.00000  Uiso   1.00
H309   H     0.77391   0.41962   0.05957   0.00000  Uiso   1.00
H310   H     0.89277   0.58037   0.27375   0.00000  Uiso   1.00
H311   H     0.77976   0.41807   0.26329   0.00000  Uiso   1.00
H312   H     0.88690   0.58195   0.07003   0.00000  Uiso   1.00
H313   H     0.67375   0.50806   0.21982   0.00000  Uiso   1.00
H314   H     0.93445   0.41076   0.16763   0.00000  Uiso   1.00
H315   H     0.73222   0.58924   0.16571   0.00000  Uiso   1.00
H316   H     0.92792   0.59254   0.16144   0.00000  Uiso   1.00
H317   H     0.93958   0.63061   0.11827   0.00000  Uiso   1.00
H318   H     0.95999   0.64022   0.17947   0.00000  Uiso   1.00
H319   H     0.73875   0.40746   0.17189   0.00000  Uiso   1.00
H320   H     0.70668   0.35978   0.15386   0.00000  Uiso   1.00
N321   N     0.83335   0.50001   0.28403   0.00000  Uiso   1.00
N322   N     0.83332   0.49999   0.04931   0.00000  Uiso   1.00
O323   O     0.83333   0.43989   0.20625   0.00000  Uiso   1.00
O324   O     0.71981   0.62516   0.21807   0.00000  Uiso   1.00
O325   O     0.71581   0.45553   0.03665   0.00000  Uiso   1.00
O326   O     0.95086   0.54447   0.29670   0.00000  Uiso   1.00
O327   O     0.71791   0.44996   0.27043   0.00000  Uiso   1.00
O328   O     0.94875   0.55004   0.06292   0.00000  Uiso   1.00
O329   O     0.83334   0.56011   0.12709   0.00000  Uiso   1.00
O330   O     0.83333   0.43988   0.12706   0.00000  Uiso   1.00
O331   O     0.83334   0.56012   0.20628   0.00000  Uiso   1.00
O332   O     0.75828   0.50000   0.19712   0.00000  Uiso   1.00
O333   O     0.90839   0.50000   0.13621   0.00000  Uiso   1.00
O334   O     0.75828   0.49999   0.11793   0.00000  Uiso   1.00
O335   O     0.90839   0.50001   0.21540   0.00000  Uiso   1.00
O336   O     0.94685   0.37484   0.11526   0.00000  Uiso   1.00
C337   C     0.16587   0.75431   0.16672   0.00000  Uiso   1.00
C338   C     0.12128   0.68638   0.17531   0.00000  Uiso   1.00
C339   C     0.16733   0.95707   0.16641   0.00000  Uiso   1.00
C340   C     0.16600   0.70959   0.16693   0.00000  Uiso   1.00
C341   C     0.13211   0.80864   0.02093   0.00000  Uiso   1.00
C342   C     0.20123   0.85803   0.31241   0.00000  Uiso   1.00
C343   C     0.13237   0.80844   0.30482   0.00000  Uiso   1.00
C344   C     0.20096   0.85822   0.02851   0.00000  Uiso   1.00
C345   C     0.25647   0.71638   0.14739   0.00000  Uiso   1.00
C346   C     0.07687   0.95028   0.18595   0.00000  Uiso   1.00
C347   C     0.26232   0.95954   0.15392   0.00000  Uiso   1.00
C348   C     0.16747   0.91235   0.16661   0.00000  Uiso   1.00
C349   C     0.07102   0.70713   0.17941   0.00000  Uiso   1.00
C350   C     0.09479   0.78106   0.04152   0.00000  Uiso   1.00
C351   C     0.23855   0.88560   0.29181   0.00000  Uiso   1.00
C352   C     0.09767   0.77875   0.27652   0.00000  Uiso   1.00
C353   C     0.23565   0.88792   0.05681   0.00000  Uiso   1.00
C354   C     0.06807   0.83278   0.15475   0.00000  Uiso   1.00
C355   C     0.26526   0.83389   0.17859   0.00000  Uiso   1.00
C356   C     0.01275   0.83103   0.14840   0.00000  Uiso   1.00
C357   C     0.32059   0.83564   0.18493   0.00000  Uiso   1.00
C358   C     0.21080   0.69038   0.15721   0.00000  Uiso   1.00
C359   C     0.12253   0.97628   0.17612   0.00000  Uiso   1.00
C360   C     0.21205   0.98028   0.15802   0.00000  Uiso   1.00
Cu361  Cu    0.16667   0.83334   0.21355   0.00000  Uiso   1.00
Cu362  Cu    0.16667   0.83333   0.11978   0.00000  Uiso   1.00
H363   H     0.32625   0.82527   0.11352   0.00000  Uiso   1.00
H364   H     0.06042   0.70273   0.21506   0.00000  Uiso   1.00
H365   H     0.10724   0.75296   0.05957   0.00000  Uiso   1.00
H366   H     0.22610   0.91370   0.27375   0.00000  Uiso   1.00
H367   H     0.11309   0.75140   0.26329   0.00000  Uiso   1.00
H368   H     0.22023   0.91528   0.07003   0.00000  Uiso   1.00
H369   H     0.00708   0.84140   0.21982   0.00000  Uiso   1.00
H370   H     0.26778   0.74409   0.16763   0.00000  Uiso   1.00
H371   H     0.06555   0.92257   0.16571   0.00000  Uiso   1.00
H372   H     0.26125   0.92588   0.16144   0.00000  Uiso   1.00
H373   H     0.27291   0.96394   0.11827   0.00000  Uiso   1.00
H374   H     0.29332   0.97356   0.17947   0.00000  Uiso   1.00
H375   H     0.07208   0.74079   0.17189   0.00000  Uiso   1.00
H376   H     0.04001   0.69311   0.15386   0.00000  Uiso   1.00
N377   N     0.16668   0.83334   0.28403   0.00000  Uiso   1.00
N378   N     0.16665   0.83332   0.04931   0.00000  Uiso   1.00
O379   O     0.16666   0.77322   0.20625   0.00000  Uiso   1.00
O380   O     0.05315   0.95849   0.21807   0.00000  Uiso   1.00
O381   O     0.04915   0.78886   0.03665   0.00000  Uiso   1.00
O382   O     0.28419   0.87781   0.29670   0.00000  Uiso   1.00
O383   O     0.05124   0.78330   0.27043   0.00000  Uiso   1.00
O384   O     0.28209   0.88337   0.06292   0.00000  Uiso   1.00
O385   O     0.16667   0.89345   0.12709   0.00000  Uiso   1.00
O386   O     0.16666   0.77321   0.12706   0.00000  Uiso   1.00
O387   O     0.16667   0.89346   0.20628   0.00000  Uiso   1.00
O388   O     0.09161   0.83334   0.19712   0.00000  Uiso   1.00
O389   O     0.24172   0.83333   0.13621   0.00000  Uiso   1.00
O390   O     0.09161   0.83333   0.11793   0.00000  Uiso   1.00
O391   O     0.24172   0.83334   0.21540   0.00000  Uiso   1.00
O392   O     0.28018   0.70817   0.11526   0.00000  Uiso   1.00
C393   C     0.49920   0.75431   0.16672   0.00000  Uiso   1.00
C394   C     0.45462   0.68638   0.17531   0.00000  Uiso   1.00
C395   C     0.50067   0.95707   0.16641   0.00000  Uiso   1.00
C396   C     0.49933   0.70959   0.16693   0.00000  Uiso   1.00
C397   C     0.46544   0.80864   0.02093   0.00000  Uiso   1.00
C398   C     0.53456   0.85803   0.31241   0.00000  Uiso   1.00
C399   C     0.46571   0.80844   0.30482   0.00000  Uiso   1.00
C400   C     0.53429   0.85822   0.02851   0.00000  Uiso   1.00
C401   C     0.58980   0.71638   0.14739   0.00000  Uiso   1.00
C402   C     0.41020   0.95028   0.18595   0.00000  Uiso   1.00
C403   C     0.59565   0.95954   0.15392   0.00000  Uiso   1.00
C404   C     0.50080   0.91235   0.16661   0.00000  Uiso   1.00
C405   C     0.40435   0.70713   0.17941   0.00000  Uiso   1.00
C406   C     0.42813   0.78106   0.04152   0.00000  Uiso   1.00
C407   C     0.57188   0.88560   0.29181   0.00000  Uiso   1.00
C408   C     0.43101   0.77875   0.27652   0.00000  Uiso   1.00
C409   C     0.56898   0.88792   0.05681   0.00000  Uiso   1.00
C410   C     0.40140   0.83278   0.15475   0.00000  Uiso   1.00
C411   C     0.59860   0.83389   0.17859   0.00000  Uiso   1.00
C412   C     0.34608   0.83103   0.14840   0.00000  Uiso   1.00
C413   C     0.65392   0.83564   0.18493   0.00000  Uiso   1.00
C414   C     0.54413   0.69038   0.15721   0.00000  Uiso   1.00
C415   C     0.45586   0.97628   0.17612   0.00000  Uiso   1.00
C416   C     0.54538   0.98028   0.15802   0.00000  Uiso   1.00
Cu417  Cu    0.50000   0.83334   0.21355   0.00000  Uiso   1.00
Cu418  Cu    0.50000   0.83333   0.11978   0.00000  Uiso   1.00
H419   H     0.65958   0.82527   0.11352   0.00000  Uiso   1.00
H420   H     0.39375   0.70273   0.21506   0.00000  Uiso   1.00
H421   H     0.44058   0.75296   0.05957   0.00000  Uiso   1.00
H422   H     0.55943   0.91370   0.27375   0.00000  Uiso   1.00
H423   H     0.44643   0.75140   0.26329   0.00000  Uiso   1.00
H424   H     0.55356   0.91528   0.07003   0.00000  Uiso   1.00
H425   H     0.34042   0.84140   0.21982   0.00000  Uiso   1.00
H426   H     0.60111   0.74409   0.16763   0.00000  Uiso   1.00
H427   H     0.39889   0.92257   0.16571   0.00000  Uiso   1.00
H428   H     0.59458   0.92588   0.16144   0.00000  Uiso   1.00
H429   H     0.60625   0.96394   0.11827   0.00000  Uiso   1.00
H430   H     0.62665   0.97356   0.17947   0.00000  Uiso   1.00
H431   H     0.40542   0.74079   0.17189   0.00000  Uiso   1.00
H432   H     0.37335   0.69311   0.15386   0.00000  Uiso   1.00
N433   N     0.50001   0.83334   0.28403   0.00000  Uiso   1.00
N434   N     0.49999   0.83332   0.04931   0.00000  Uiso   1.00
O435   O     0.50000   0.77322   0.20625   0.00000  Uiso   1.00
O436   O     0.38648   0.95849   0.21807   0.00000  Uiso   1.00
O437   O     0.38248   0.78886   0.03665   0.00000  Uiso   1.00
O438   O     0.61753   0.87781   0.29670   0.00000  Uiso   1.00
O439   O     0.38457   0.78330   0.27043   0.00000  Uiso   1.00
O440   O     0.61542   0.88337   0.06292   0.00000  Uiso   1.00
O441   O     0.50000   0.89345   0.12709   0.00000  Uiso   1.00
O442   O     0.50000   0.77321   0.12706   0.00000  Uiso   1.00
O443   O     0.50000   0.89346   0.20628   0.00000  Uiso   1.00
O444   O     0.42495   0.83334   0.19712   0.00000  Uiso   1.00
O445   O     0.57505   0.83333   0.13621   0.00000  Uiso   1.00
O446   O     0.42494   0.83333   0.11793   0.00000  Uiso   1.00
O447   O     0.57506   0.83334   0.21540   0.00000  Uiso   1.00
O448   O     0.61352   0.70817   0.11526   0.00000  Uiso   1.00
C449   C     0.83253   0.75431   0.16672   0.00000  Uiso   1.00
C450   C     0.78795   0.68638   0.17531   0.00000  Uiso   1.00
C451   C     0.83400   0.95707   0.16641   0.00000  Uiso   1.00
C452   C     0.83267   0.70959   0.16693   0.00000  Uiso   1.00
C453   C     0.79877   0.80864   0.02093   0.00000  Uiso   1.00
C454   C     0.86789   0.85803   0.31241   0.00000  Uiso   1.00
C455   C     0.79904   0.80844   0.30482   0.00000  Uiso   1.00
C456   C     0.86762   0.85822   0.02851   0.00000  Uiso   1.00
C457   C     0.92313   0.71638   0.14739   0.00000  Uiso   1.00
C458   C     0.74353   0.95028   0.18595   0.00000  Uiso   1.00
C459   C     0.92898   0.95954   0.15392   0.00000  Uiso   1.00
C460   C     0.83413   0.91235   0.16661   0.00000  Uiso   1.00
C461   C     0.73768   0.70713   0.17941   0.00000  Uiso   1.00
C462   C     0.76146   0.78106   0.04152   0.00000  Uiso   1.00
C463   C     0.90521   0.88560   0.29181   0.00000  Uiso   1.00
C464   C     0.76434   0.77875   0.27652   0.00000  Uiso   1.00
C465   C     0.90232   0.88792   0.05681   0.00000  Uiso   1.00
C466   C     0.73474   0.83278   0.15475   0.00000  Uiso   1.00
C467   C     0.93193   0.83389   0.17859   0.00000  Uiso   1.00
C468   C     0.67941   0.83103   0.14840   0.00000  Uiso   1.00
C469   C     0.98725   0.83564   0.18493   0.00000  Uiso   1.00
C470   C     0.87747   0.69038   0.15721   0.00000  Uiso   1.00
C471   C     0.78920   0.97628   0.17612   0.00000  Uiso   1.00
C472   C     0.87871   0.98028   0.15802   0.00000  Uiso   1.00
Cu473  Cu    0.83333   0.83334   0.21355   0.00000  Uiso   1.00
Cu474  Cu    0.83333   0.83333   0.11978   0.00000  Uiso   1.00
H475   H     0.99291   0.82527   0.11352   0.00000  Uiso   1.00
H476   H     0.72708   0.70273   0.21506   0.00000  Uiso   1.00
H477   H     0.77391   0.75296   0.05957   0.00000  Uiso   1.00
H478   H     0.89277   0.91370   0.27375   0.00000  Uiso   1.00
H479   H     0.77976   0.75140   0.26329   0.00000  Uiso   1.00
H480   H     0.88690   0.91528   0.07003   0.00000  Uiso   1.00
H481   H     0.67375   0.84140   0.21982   0.00000  Uiso   1.00
H482   H     0.93445   0.74409   0.16763   0.00000  Uiso   1.00
H483   H     0.73222   0.92257   0.16571   0.00000  Uiso   1.00
H484   H     0.92792   0.92588   0.16144   0.00000  Uiso   1.00
H485   H     0.93958   0.96394   0.11827   0.00000  Uiso   1.00
H486   H     0.95999   0.97356   0.17947   0.00000  Uiso   1.00
H487   H     0.73875   0.74079   0.17189   0.00000  Uiso   1.00
H488   H     0.70668   0.69311   0.15386   0.00000  Uiso   1.00
N489   N     0.83335   0.83334   0.28403   0.00000  Uiso   1.00
N490   N     0.83332   0.83332   0.04931   0.00000  Uiso   1.00
O491   O     0.83333   0.77322   0.20625   0.00000  Uiso   1.00
O492   O     0.71981   0.95849   0.21807   0.00000  Uiso   1.00
O493   O     0.71581   0.78886   0.03665   0.00000  Uiso   1.00
O494   O     0.95086   0.87781   0.29670   0.00000  Uiso   1.00
O495   O     0.71791   0.78330   0.27043   0.00000  Uiso   1.00
O496   O     0.94875   0.88337   0.06292   0.00000  Uiso   1.00
O497   O     0.83334   0.89345   0.12709   0.00000  Uiso   1.00
O498   O     0.83333   0.77321   0.12706   0.00000  Uiso   1.00
O499   O     0.83334   0.89346   0.20628   0.00000  Uiso   1.00
O500   O     0.75828   0.83334   0.19712   0.00000  Uiso   1.00
O501   O     0.90839   0.83333   0.13621   0.00000  Uiso   1.00
O502   O     0.75828   0.83333   0.11793   0.00000  Uiso   1.00
O503   O     0.90839   0.83334   0.21540   0.00000  Uiso   1.00
O504   O     0.94685   0.70817   0.11526   0.00000  Uiso   1.00
C505   C     0.16587   0.08765   0.50006   0.00000  Uiso   1.00
C506   C     0.12128   0.01972   0.50865   0.00000  Uiso   1.00
C507   C     0.16733   0.29041   0.49974   0.00000  Uiso   1.00
C508   C     0.16600   0.04292   0.50026   0.00000  Uiso   1.00
C509   C     0.13211   0.14197   0.35426   0.00000  Uiso   1.00
C510   C     0.20123   0.19136   0.64574   0.00000  Uiso   1.00
C511   C     0.13237   0.14178   0.63815   0.00000  Uiso   1.00
C512   C     0.20096   0.19156   0.36185   0.00000  Uiso   1.00
C513   C     0.25647   0.04972   0.48072   0.00000  Uiso   1.00
C514   C     0.07687   0.28362   0.51928   0.00000  Uiso   1.00
C515   C     0.26232   0.29287   0.48726   0.00000  Uiso   1.00
C516   C     0.16747   0.24569   0.49994   0.00000  Uiso   1.00
C517   C     0.07102   0.04046   0.51274   0.00000  Uiso   1.00
C518   C     0.09479   0.11439   0.37486   0.00000  Uiso   1.00
C519   C     0.23855   0.21893   0.62514   0.00000  Uiso   1.00
C520   C     0.09767   0.11208   0.60985   0.00000  Uiso   1.00
C521   C     0.23565   0.22126   0.39015   0.00000  Uiso   1.00
C522   C     0.06807   0.16611   0.48808   0.00000  Uiso   1.00
C523   C     0.26526   0.16722   0.51192   0.00000  Uiso   1.00
C524   C     0.01275   0.16436   0.48174   0.00000  Uiso   1.00
C525   C     0.32059   0.16897   0.51826   0.00000  Uiso   1.00
C526   C     0.21080   0.02372   0.49055   0.00000  Uiso   1.00
C527   C     0.12253   0.30962   0.50945   0.00000  Uiso   1.00
C528   C     0.21205   0.31362   0.49135   0.00000  Uiso   1.00
Cu529  Cu    0.16667   0.16667   0.54689   0.00000  Uiso   1.00
Cu530  Cu    0.16667   0.16666   0.45311   0.00000  Uiso   1.00
H531   H     0.32625   0.15860   0.44685   0.00000  Uiso   1.00
H532   H     0.06042   0.03606   0.54840   0.00000  Uiso   1.00
H533   H     0.10724   0.08629   0.39290   0.00000  Uiso   1.00
H534   H     0.22610   0.24704   0.60709   0.00000  Uiso   1.00
H535   H     0.11309   0.08473   0.59662   0.00000  Uiso   1.00
H536   H     0.22023   0.24861   0.40336   0.00000  Uiso   1.00
H537   H     0.00708   0.17473   0.55315   0.00000  Uiso   1.00
H538   H     0.26778   0.07743   0.50096   0.00000  Uiso   1.00
H539   H     0.06555   0.25591   0.49904   0.00000  Uiso   1.00
H540   H     0.26125   0.25921   0.49477   0.00000  Uiso   1.00
H541   H     0.27291   0.29728   0.45160   0.00000  Uiso   1.00
H542   H     0.29332   0.30689   0.51280   0.00000  Uiso   1.00
H543   H     0.07208   0.07412   0.50522   0.00000  Uiso   1.00
H544   H     0.04001   0.02644   0.48719   0.00000  Uiso   1.00
N545   N     0.16668   0.16668   0.61736   0.00000  Uiso   1.00
N546   N     0.16665   0.16666   0.38264   0.00000  Uiso   1.00
O547   O     0.16666   0.10655   0.53958   0.00000  Uiso   1.00
O548   O     0.05315   0.29183   0.55141   0.00000  Uiso   1.00
O549   O     0.04915   0.12219   0.36998   0.00000  Uiso   1.00
O550   O     0.28419   0.21114   0.63003   0.00000  Uiso   1.00
O551   O     0.05124   0.11663   0.60376   0.00000  Uiso   1.00
O552   O     0.28209   0.21671   0.39625   0.00000  Uiso   1.00
O553   O     0.16667   0.22678   0.46042   0.00000  Uiso   1.00
O554   O     0.16666   0.10654   0.46039   0.00000  Uiso   1.00
O555   O     0.16667   0.22679   0.53961   0.00000  Uiso   1.00
O556   O     0.09161   0.16667   0.53046   0.00000  Uiso   1.00
O557   O     0.24172   0.16666   0.46954   0.00000  Uiso   1.00
O558   O     0.09161   0.16666   0.45127   0.00000  Uiso   1.00
O559   O     0.24172   0.16667   0.54873   0.00000  Uiso   1.00
O560   O     0.28018   0.04151   0.44859   0.00000  Uiso   1.00
C561   C     0.49920   0.08765   0.50006   0.00000  Uiso   1.00
C562   C     0.45462   0.01972   0.50865   0.00000  Uiso   1.00
C563   C     0.50067   0.29041   0.49974   0.00000  Uiso   1.00
C564   C     0.49933   0.04292   0.50026   0.00000  Uiso   1.00
C565   C     0.46544   0.14197   0.35426   0.00000  Uiso   1.00
C566   C     0.53456   0.19136   0.64574   0.00000  Uiso   1.00
C567   C     0.46571   0.14178   0.63815   0.00000  Uiso   1.00
C568   C     0.53429   0.19156   0.36185   0.00000  Uiso   1.00
C569   C     0.58980   0.04972   0.48072   0.00000  Uiso   1.00
C570   C     0.41020   0.28362   0.51928   0.00000  Uiso   1.00
C571   C     0.59565   0.29287   0.48726   0.00000  Uiso   1.00
C572   C     0.50080   0.24569   0.49994   0.00000  Uiso   1.00
C573   C     0.40435   0.04046   0.51274   0.00000  Uiso   1.00
C574   C     0.42813   0.11439   0.37486   0.00000  Uiso   1.00
C575   C     0.57188   0.21893   0.62514   0.00000  Uiso   1.00
C576   C     0.43101   0.11208   0.60985   0.00000  Uiso   1.00
C577   C     0.56898   0.22126   0.39015   0.00000  Uiso   1.00
C578   C     0.40140   0.16611   0.48808   0.00000  Uiso   1.00
C579   C     0.59860   0.16722   0.51192   0.00000  Uiso   1.00
C580   C     0.34608   0.16436   0.48174   0.00000  Uiso   1.00
C581   C     0.65392   0.16897   0.51826   0.00000  Uiso   1.00
C582   C     0.54413   0.02372   0.49055   0.00000  Uiso   1.00
C583   C     0.45586   0.30962   0.50945   0.00000  Uiso   1.00
C584   C     0.54538   0.31362   0.49135   0.00000  Uiso   1.00
Cu585  Cu    0.50000   0.16667   0.54689   0.00000  Uiso   1.00
Cu586  Cu    0.50000   0.16666   0.45311   0.00000  Uiso   1.00
H587   H     0.65958   0.15860   0.44685   0.00000  Uiso   1.00
H588   H     0.39375   0.03606   0.54840   0.00000  Uiso   1.00
H589   H     0.44058   0.08629   0.39290   0.00000  Uiso   1.00
H590   H     0.55943   0.24704   0.60709   0.00000  Uiso   1.00
H591   H     0.44643   0.08473   0.59662   0.00000  Uiso   1.00
H592   H     0.55356   0.24861   0.40336   0.00000  Uiso   1.00
H593   H     0.34042   0.17473   0.55315   0.00000  Uiso   1.00
H594   H     0.60111   0.07743   0.50096   0.00000  Uiso   1.00
H595   H     0.39889   0.25591   0.49904   0.00000  Uiso   1.00
H596   H     0.59458   0.25921   0.49477   0.00000  Uiso   1.00
H597   H     0.60625   0.29728   0.45160   0.00000  Uiso   1.00
H598   H     0.62665   0.30689   0.51280   0.00000  Uiso   1.00
H599   H     0.40542   0.07412   0.50522   0.00000  Uiso   1.00
H600   H     0.37335   0.02644   0.48719   0.00000  Uiso   1.00
N601   N     0.50001   0.16668   0.61736   0.00000  Uiso   1.00
N602   N     0.49999   0.16666   0.38264   0.00000  Uiso   1.00
O603   O     0.50000   0.10655   0.53958   0.00000  Uiso   1.00
O604   O     0.38648   0.29183   0.55141   0.00000  Uiso   1.00
O605   O     0.38248   0.12219   0.36998   0.00000  Uiso   1.00
O606   O     0.61753   0.21114   0.63003   0.00000  Uiso   1.00
O607   O     0.38457   0.11663   0.60376   0.00000  Uiso   1.00
O608   O     0.61542   0.21671   0.39625   0.00000  Uiso   1.00
O609   O     0.50000   0.22678   0.46042   0.00000  Uiso   1.00
O610   O     0.50000   0.10654   0.46039   0.00000  Uiso   1.00
O611   O     0.50000   0.22679   0.53961   0.00000  Uiso   1.00
O612   O     0.42495   0.16667   0.53046   0.00000  Uiso   1.00
O613   O     0.57505   0.16666   0.46954   0.00000  Uiso   1.00
O614   O     0.42494   0.16666   0.45127   0.00000  Uiso   1.00
O615   O     0.57506   0.16667   0.54873   0.00000  Uiso   1.00
O616   O     0.61352   0.04151   0.44859   0.00000  Uiso   1.00
C617   C     0.83253   0.08765   0.50006   0.00000  Uiso   1.00
C618   C     0.78795   0.01972   0.50865   0.00000  Uiso   1.00
C619   C     0.83400   0.29041   0.49974   0.00000  Uiso   1.00
C620   C     0.83267   0.04292   0.50026   0.00000  Uiso   1.00
C621   C     0.79877   0.14197   0.35426   0.00000  Uiso   1.00
C622   C     0.86789   0.19136   0.64574   0.00000  Uiso   1.00
C623   C     0.79904   0.14178   0.63815   0.00000  Uiso   1.00
C624   C     0.86762   0.19156   0.36185   0.00000  Uiso   1.00
C625   C     0.92313   0.04972   0.48072   0.00000  Uiso   1.00
C626   C     0.74353   0.28362   0.51928   0.00000  Uiso   1.00
C627   C     0.92898   0.29287   0.48726   0.00000  Uiso   1.00
C628   C     0.83413   0.24569   0.49994   0.00000  Uiso   1.00
C629   C     0.73768   0.04046   0.51274   0.00000  Uiso   1.00
C630   C     0.76146   0.11439   0.37486   0.00000  Uiso   1.00
C631   C     0.90521   0.21893   0.62514   0.00000  Uiso   1.00
C632   C     0.76434   0.11208   0.60985   0.00000  Uiso   1.00
C633   C     0.90232   0.22126   0.39015   0.00000  Uiso   1.00
C634   C     0.73474   0.16611   0.48808   0.00000  Uiso   1.00
C635   C     0.93193   0.16722   0.51192   0.00000  Uiso   1.00
C636   C     0.67941   0.16436   0.48174   0.00000  Uiso   1.00
C637   C     0.98725   0.16897   0.51826   0.00000  Uiso   1.00
C638   C     0.87747   0.02372   0.49055   0.00000  Uiso   1.00
C639   C     0.78920   0.30962   0.50945   0.00000  Uiso   1.00
C640   C     0.87871   0.31362   0.49135   0.00000  Uiso   1.00
Cu641  Cu    0.83333   0.16667   0.54689   0.00000  Uiso   1.00
Cu642  Cu    0.83333   0.16666   0.45311   0.00000  Uiso   1.00
H643   H     0.99291   0.15860   0.44685   0.00000  Uiso   1.00
H644   H     0.72708   0.03606   0.54840   0.00000  Uiso   1.00
H645   H     0.77391   0.08629   0.39290   0.00000  Uiso   1.00
H646   H     0.89277   0.24704   0.60709   0.00000  Uiso   1.00
H647   H     0.77976   0.08473   0.59662   0.00000  Uiso   1.00
H648   H     0.88690   0.24861   0.40336   0.00000  Uiso   1.00
H649   H     0.67375   0.17473   0.55315   0.00000  Uiso   1.00
H650   H     0.93445   0.07743   0.50096   0.00000  Uiso   1.00
H651   H     0.73222   0.25591   0.49904   0.00000  Uiso   1.00
H652   H     0.92792   0.25921   0.49477   0.00000  Uiso   1.00
H653   H     0.93958   0.29728   0.45160   0.00000  Uiso   1.00
H654   H     0.95999   0.30689   0.51280   0.00000  Uiso   1.00
H655   H     0.73875   0.07412   0.50522   0.00000  Uiso   1.00
H656   H     0.70668   0.02644   0.48719   0.00000  Uiso   1.00
N657   N     0.83335   0.16668   0.61736   0.00000  Uiso   1.00
N658   N     0.83332   0.16666   0.38264   0.00000  Uiso   1.00
O659   O     0.83333   0.10655   0.53958   0.00000  Uiso   1.00
O660   O     0.71981   0.29183   0.55141   0.00000  Uiso   1.00
O661   O     0.71581   0.12219   0.36998   0.00000  Uiso   1.00
O662   O     0.95086   0.21114   0.63003   0.00000  Uiso   1.00
O663   O     0.71791   0.11663   0.60376   0.00000  Uiso   1.00
O664   O     0.94875   0.21671   0.39625   0.00000  Uiso   1.00
O665   O     0.83334   0.22678   0.46042   0.00000  Uiso   1.00
O666   O     0.83333   0.10654   0.46039   0.00000  Uiso   1.00
O667   O     0.83334   0.22679   0.53961   0.00000  Uiso   1.00
O668   O     0.75828   0.16667   0.53046   0.00000  Uiso   1.00
O669   O     0.90839   0.16666   0.46954   0.00000  Uiso   1.00
O670   O     0.75828   0.16666   0.45127   0.00000  Uiso   1.00
O671   O     0.90839   0.16667   0.54873   0.00000  Uiso   1.00
O672   O     0.94685   0.04151   0.44859   0.00000  Uiso   1.00
C673   C     0.16587   0.42098   0.50006   0.00000  Uiso   1.00
C674   C     0.12128   0.35305   0.50865   0.00000  Uiso   1.00
C675   C     0.16733   0.62374   0.49974   0.00000  Uiso   1.00
C676   C     0.16600   0.37626   0.50026   0.00000  Uiso   1.00
C677   C     0.13211   0.47530   0.35426   0.00000  Uiso   1.00
C678   C     0.20123   0.52470   0.64574   0.00000  Uiso   1.00
C679   C     0.13237   0.47511   0.63815   0.00000  Uiso   1.00
C680   C     0.20096   0.52489   0.36185   0.00000  Uiso   1.00
C681   C     0.25647   0.38305   0.48072   0.00000  Uiso   1.00
C682   C     0.07687   0.61695   0.51928   0.00000  Uiso   1.00
C683   C     0.26232   0.62621   0.48726   0.00000  Uiso   1.00
C684   C     0.16747   0.57902   0.49994   0.00000  Uiso   1.00
C685   C     0.07102   0.37379   0.51274   0.00000  Uiso   1.00
C686   C     0.09479   0.44773   0.37486   0.00000  Uiso   1.00
C687   C     0.23855   0.55227   0.62514   0.00000  Uiso   1.00
C688   C     0.09767   0.44541   0.60985   0.00000  Uiso   1.00
C689   C     0.23565   0.55459   0.39015   0.00000  Uiso   1.00
C690   C     0.06807   0.49944   0.48808   0.00000  Uiso   1.00
C691   C     0.26526   0.50056   0.51192   0.00000  Uiso   1.00
C692   C     0.01275   0.49770   0.48174   0.00000  Uiso   1.00
C693   C     0.32059   0.50230   0.51826   0.00000  Uiso   1.00
C694   C     0.21080   0.35705   0.49055   0.00000  Uiso   1.00
C695   C     0.12253   0.64295   0.50945   0.00000  Uiso   1.00
C696   C     0.21205   0.64695   0.49135   0.00000  Uiso   1.00
Cu697  Cu    0.16667   0.50001   0.54689   0.00000  Uiso   1.00
Cu698  Cu    0.16667   0.49999   0.45311   0.00000  Uiso   1.00
H699   H     0.32625   0.49194   0.44685   0.00000  Uiso   1.00
H700   H     0.06042   0.36939   0.54840   0.00000  Uiso   1.00
H701   H     0.10724   0.41962   0.39290   0.00000  Uiso   1.00
H702   H     0.22610   0.58037   0.60709   0.00000  Uiso   1.00
H703   H     0.11309   0.41807   0.59662   0.00000  Uiso   1.00
H704   H     0.22023   0.58195   0.40336   0.00000  Uiso   1.00
H705   H     0.00708   0.50806   0.55315   0.00000  Uiso   1.00
H706   H     0.26778   0.41076   0.50096   0.00000  Uiso   1.00
H707   H     0.06555   0.58924   0.49904   0.00000  Uiso   1.00
H708   H     0.26125   0.59254   0.49477   0.00000  Uiso   1.00
H709   H     0.27291   0.63061   0.45160   0.00000  Uiso   1.00
H710   H     0.29332   0.64022   0.51280   0.00000  Uiso   1.00
H711   H     0.07208   0.40746   0.50522   0.00000  Uiso   1.00
H712   H     0.04001   0.35978   0.48719   0.00000  Uiso   1.00
N713   N     0.16668   0.50001   0.61736   0.00000  Uiso   1.00
N714   N     0.16665   0.49999   0.38264   0.00000  Uiso   1.00
O715   O     0.16666   0.43989   0.53958   0.00000  Uiso   1.00
O716   O     0.05315   0.62516   0.55141   0.00000  Uiso   1.00
O717   O     0.04915   0.45553   0.36998   0.00000  Uiso   1.00
O718   O     0.28419   0.54447   0.63003   0.00000  Uiso   1.00
O719   O     0.05124   0.44996   0.60376   0.00000  Uiso   1.00
O720   O     0.28209   0.55004   0.39625   0.00000  Uiso   1.00
O721   O     0.16667   0.56011   0.46042   0.00000  Uiso   1.00
O722   O     0.16666   0.43988   0.46039   0.00000  Uiso   1.00
O723   O     0.16667   0.56012   0.53961   0.00000  Uiso   1.00
O724   O     0.09161   0.50000   0.53046   0.00000  Uiso   1.00
O725   O     0.24172   0.50000   0.46954   0.00000  Uiso   1.00
O726   O     0.09161   0.49999   0.45127   0.00000  Uiso   1.00
O727   O     0.24172   0.50001   0.54873   0.00000  Uiso   1.00
O728   O     0.28018   0.37484   0.44859   0.00000  Uiso   1.00
C729   C     0.49920   0.42098   0.50006   0.00000  Uiso   1.00
C730   C     0.45462   0.35305   0.50865   0.00000  Uiso   1.00
C731   C     0.50067   0.62374   0.49974   0.00000  Uiso   1.00
C732   C     0.49933   0.37626   0.50026   0.00000  Uiso   1.00
C733   C     0.46544   0.47530   0.35426   0.00000  Uiso   1.00
C734   C     0.53456   0.52470   0.64574   0.00000  Uiso   1.00
C735   C     0.46571   0.47511   0.63815   0.00000  Uiso   1.00
C736   C     0.53429   0.52489   0.36185   0.00000  Uiso   1.00
C737   C     0.58980   0.38305   0.48072   0.00000  Uiso   1.00
C738   C     0.41020   0.61695   0.51928   0.00000  Uiso   1.00
C739   C     0.59565   0.62621   0.48726   0.00000  Uiso   1.00
C740   C     0.50080   0.57902   0.49994   0.00000  Uiso   1.00
C741   C     0.40435   0.37379   0.51274   0.00000  Uiso   1.00
C742   C     0.42813   0.44773   0.37486   0.00000  Uiso   1.00
C743   C     0.57188   0.55227   0.62514   0.00000  Uiso   1.00
C744   C     0.43101   0.44541   0.60985   0.00000  Uiso   1.00
C745   C     0.56898   0.55459   0.39015   0.00000  Uiso   1.00
C746   C     0.40140   0.49944   0.48808   0.00000  Uiso   1.00
C747   C     0.59860   0.50056   0.51192   0.00000  Uiso   1.00
C748   C     0.34608   0.49770   0.48174   0.00000  Uiso   1.00
C749   C     0.65392   0.50230   0.51826   0.00000  Uiso   1.00
C750   C     0.54413   0.35705   0.49055   0.00000  Uiso   1.00
C751   C     0.45586   0.64295   0.50945   0.00000  Uiso   1.00
C752   C     0.54538   0.64695   0.49135   0.00000  Uiso   1.00
Cu753  Cu    0.50000   0.50001   0.54689   0.00000  Uiso   1.00
Cu754  Cu    0.50000   0.49999   0.45311   0.00000  Uiso   1.00
H755   H     0.65958   0.49194   0.44685   0.00000  Uiso   1.00
H756   H     0.39375   0.36939   0.54840   0.00000  Uiso   1.00
H757   H     0.44058   0.41962   0.39290   0.00000  Uiso   1.00
H758   H     0.55943   0.58037   0.60709   0.00000  Uiso   1.00
H759   H     0.44643   0.41807   0.59662   0.00000  Uiso   1.00
H760   H     0.55356   0.58195   0.40336   0.00000  Uiso   1.00
H761   H     0.34042   0.50806   0.55315   0.00000  Uiso   1.00
H762   H     0.60111   0.41076   0.50096   0.00000  Uiso   1.00
H763   H     0.39889   0.58924   0.49904   0.00000  Uiso   1.00
H764   H     0.59458   0.59254   0.49477   0.00000  Uiso   1.00
H765   H     0.60625   0.63061   0.45160   0.00000  Uiso   1.00
H766   H     0.62665   0.64022   0.51280   0.00000  Uiso   1.00
H767   H     0.40542   0.40746   0.50522   0.00000  Uiso   1.00
H768   H     0.37335   0.35978   0.48719   0.00000  Uiso   1.00
N769   N     0.50001   0.50001   0.61736   0.00000  Uiso   1.00
N770   N     0.49999   0.49999   0.38264   0.00000  Uiso   1.00
O771   O     0.50000   0.43989   0.53958   0.00000  Uiso   1.00
O772   O     0.38648   0.62516   0.55141   0.00000  Uiso   1.00
O773   O     0.38248   0.45553   0.36998   0.00000  Uiso   1.00
O774   O     0.61753   0.54447   0.63003   0.00000  Uiso   1.00
O775   O     0.38457   0.44996   0.60376   0.00000  Uiso   1.00
O776   O     0.61542   0.55004   0.39625   0.00000  Uiso   1.00
O777   O     0.50000   0.56011   0.46042   0.00000  Uiso   1.00
O778   O     0.50000   0.43988   0.46039   0.00000  Uiso   1.00
O779   O     0.50000   0.56012   0.53961   0.00000  Uiso   1.00
O780   O     0.42495   0.50000   0.53046   0.00000  Uiso   1.00
O781   O     0.57505   0.50000   0.46954   0.00000  Uiso   1.00
O782   O     0.42494   0.49999   0.45127   0.00000  Uiso   1.00
O783   O     0.57506   0.50001   0.54873   0.00000  Uiso   1.00
O784   O     0.61352   0.37484   0.44859   0.00000  Uiso   1.00
C785   C     0.83253   0.42098   0.50006   0.00000  Uiso   1.00
C786   C     0.78795   0.35305   0.50865   0.00000  Uiso   1.00
C787   C     0.83400   0.62374   0.49974   0.00000  Uiso   1.00
C788   C     0.83267   0.37626   0.50026   0.00000  Uiso   1.00
C789   C     0.79877   0.47530   0.35426   0.00000  Uiso   1.00
C790   C     0.86789   0.52470   0.64574   0.00000  Uiso   1.00
C791   C     0.79904   0.47511   0.63815   0.00000  Uiso   1.00
C792   C     0.86762   0.52489   0.36185   0.00000  Uiso   1.00
C793   C     0.92313   0.38305   0.48072   0.00000  Uiso   1.00
C794   C     0.74353   0.61695   0.51928   0.00000  Uiso   1.00
C795   C     0.92898   0.62621   0.48726   0.00000  Uiso   1.00
C796   C     0.83413   0.57902   0.49994   0.00000  Uiso   1.00
C797   C     0.73768   0.37379   0.51274   0.00000  Uiso   1.00
C798   C     0.76146   0.44773   0.37486   0.00000  Uiso   1.00
C799   C     0.90521   0.55227   0.62514   0.00000  Uiso   1.00
C800   C     0.76434   0.44541   0.60985   0.00000  Uiso   1.00
C801   C     0.90232   0.55459   0.39015   0.00000  Uiso   1.00
C802   C     0.73474   0.49944   0.48808   0.00000  Uiso   1.00
C803   C     0.93193   0.50056   0.51192   0.00000  Uiso   1.00
C804   C     0.67941   0.49770   0.48174   0.00000  Uiso   1.00
C805   C     0.98725   0.50230   0.51826   0.00000  Uiso   1.00
C806   C     0.87747   0.35705   0.49055   0.00000  Uiso   1.00
C807   C     0.78920   0.64295   0.50945   0.00000  Uiso   1.00
C808   C     0.87871   0.64695   0.49135   0.00000  Uiso   1.00
Cu809  Cu    0.83333   0.50001   0.54689   0.00000  Uiso   1.00
Cu810  Cu    0.83333   0.49999   0.45311   0.00000  Uiso   1.00
H811   H     0.99291   0.49194   0.44685   0.00000  Uiso   1.00
H812   H     0.72708   0.36939   0.54840   0.00000  Uiso   1.00
H813   H     0.77391   0.41962   0.39290   0.00000  Uiso   1.00
H814   H     0.89277   0.58037   0.60709   0.00000  Uiso   1.00
H815   H     0.77976   0.41807   0.59662   0.00000  Uiso   1.00
H816   H     0.88690   0.58195   0.40336   0.00000  Uiso   1.00
H817   H     0.67375   0.50806   0.55315   0.00000  Uiso   1.00
H818   H     0.93445   0.41076   0.50096   0.00000  Uiso   1.00
H819   H     0.73222   0.58924   0.49904   0.00000  Uiso   1.00
H820   H     0.92792   0.59254   0.49477   0.00000  Uiso   1.00
H821   H     0.93958   0.63061   0.45160   0.00000  Uiso   1.00
H822   H     0.95999   0.64022   0.51280   0.00000  Uiso   1.00
H823   H     0.73875   0.40746   0.50522   0.00000  Uiso   1.00
H824   H     0.70668   0.35978   0.48719   0.00000  Uiso   1.00
N825   N     0.83335   0.50001   0.61736   0.00000  Uiso   1.00
N826   N     0.83332   0.49999   0.38264   0.00000  Uiso   1.00
O827   O     0.83333   0.43989   0.53958   0.00000  Uiso   1.00
O828   O     0.71981   0.62516   0.55141   0.00000  Uiso   1.00
O829   O     0.71581   0.45553   0.36998   0.00000  Uiso   1.00
O830   O     0.95086   0.54447   0.63003   0.00000  Uiso   1.00
O831   O     0.71791   0.44996   0.60376   0.00000  Uiso   1.00
O832   O     0.94875   0.55004   0.39625   0.00000  Uiso   1.00
O833   O     0.83334   0.56011   0.46042   0.00000  Uiso   1.00
O834   O     0.83333   0.43988   0.46039   0.00000  Uiso   1.00
O835   O     0.83334   0.56012   0.53961   0.00000  Uiso   1.00
O836   O     0.75828   0.50000   0.53046   0.00000  Uiso   1.00
O837   O     0.90839   0.50000   0.46954   0.00000  Uiso   1.00
O838   O     0.75828   0.49999   0.45127   0.00000  Uiso   1.00
O839   O     0.90839   0.50001   0.54873   0.00000  Uiso   1.00
O840   O     0.94685   0.37484   0.44859   0.00000  Uiso   1.00
C841   C     0.16587   0.75431   0.50006   0.00000  Uiso   1.00
C842   C     0.12128   0.68638   0.50865   0.00000  Uiso   1.00
C843   C     0.16733   0.95707   0.49974   0.00000  Uiso   1.00
C844   C     0.16600   0.70959   0.50026   0.00000  Uiso   1.00
C845   C     0.13211   0.80864   0.35426   0.00000  Uiso   1.00
C846   C     0.20123   0.85803   0.64574   0.00000  Uiso   1.00
C847   C     0.13237   0.80844   0.63815   0.00000  Uiso   1.00
C848   C     0.20096   0.85822   0.36185   0.00000  Uiso   1.00
C849   C     0.25647   0.71638   0.48072   0.00000  Uiso   1.00
C850   C     0.07687   0.95028   0.51928   0.00000  Uiso   1.00
C851   C     0.26232   0.95954   0.48726   0.00000  Uiso   1.00
C852   C     0.16747   0.91235   0.49994   0.00000  Uiso   1.00
C853   C     0.07102   0.70713   0.51274   0.00000  Uiso   1.00
C854   C     0.09479   0.78106   0.37486   0.00000  Uiso   1.00
C855   C     0.23855   0.88560   0.62514   0.00000  Uiso   1.00
C856   C     0.09767   0.77875   0.60985   0.00000  Uiso   1.00
C857   C     0.23565   0.88792   0.39015   0.00000  Uiso   1.00
C858   C     0.06807   0.83278   0.48808   0.00000  Uiso   1.00
C859   C     0.26526   0.83389   0.51192   0.00000  Uiso   1.00
C860   C     0.01275   0.83103   0.48174   0.00000  Uiso   1.00
C861   C     0.32059   0.83564   0.51826   0.00000  Uiso   1.00
C862   C     0.21080   0.69038   0.49055   0.00000  Uiso   1.00
C863   C     0.12253   0.97628   0.50945   0.00000  Uiso   1.00
C864   C     0.21205   0.98028   0.49135   0.00000  Uiso   1.00
Cu865  Cu    0.16667   0.83334   0.54689   0.00000  Uiso   1.00
Cu866  Cu    0.16667   0.83333   0.45311   0.00000  Uiso   1.00
H867   H     0.32625   0.82527   0.44685   0.00000  Uiso   1.00
H868   H     0.06042   0.70273   0.54840   0.00000  Uiso   1.00
H869   H     0.10724   0.75296   0.39290   0.00000  Uiso   1.00
H870   H     0.22610   0.91370   0.60709   0.00000  Uiso   1.00
H871   H     0.11309   0.75140   0.59662   0.00000  Uiso   1.00
H872   H     0.22023   0.91528   0.40336   0.00000  Uiso   1.00
H873   H     0.00708   0.84140   0.55315   0.00000  Uiso   1.00
H874   H     0.26778   0.74409   0.50096   0.00000  Uiso   1.00
H875   H     0.06555   0.92257   0.49904   0.00000  Uiso   1.00
H876   H     0.26125   0.92588   0.49477   0.00000  Uiso   1.00
H877   H     0.27291   0.96394   0.45160   0.00000  Uiso   1.00
H878   H     0.29332   0.97356   0.51280   0.00000  Uiso   1.00
H879   H     0.07208   0.74079   0.50522   0.00000  Uiso   1.00
H880   H     0.04001   0.69311   0.48719   0.00000  Uiso   1.00
N881   N     0.16668   0.83334   0.61736   0.00000  Uiso   1.00
N882   N     0.16665   0.83332   0.38264   0.00000  Uiso   1.00
O883   O     0.16666   0.77322   0.53958   0.00000  Uiso   1.00
O884   O     0.05315   0.95849   0.55141   0.00000  Uiso   1.00
O885   O     0.04915   0.78886   0.36998   0.00000  Uiso   1.00
O886   O     0.28419   0.87781   0.63003   0.00000  Uiso   1.00
O887   O     0.05124   0.78330   0.60376   0.00000  Uiso   1.00
O888   O     0.28209   0.88337   0.39625   0.00000  Uiso   1.00
O889   O     0.16667   0.89345   0.46042   0.00000  Uiso   1.00
O890   O     0.16666   0.77321   0.46039   0.00000  Uiso   1.00
O891   O     0.16667   0.89346   0.53961   0.00000  Uiso   1.00
O892   O     0.09161   0.83334   0.53046   0.00000  Uiso   1.00
O893   O     0.24172   0.83333   0.46954   0.00000  Uiso   1.00
O894   O     0.09161   0.83333   0.45127   0.00000  Uiso   1.00
O895   O     0.24172   0.83334   0.54873   0.00000  Uiso   1.00
O896   O     0.28018   0.70817   0.44859   0.00000  Uiso   1.00
C897   C     0.49920   0.75431   0.50006   0.00000  Uiso   1.00
C898   C     0.45462   0.68638   0.50865   0.00000  Uiso   1.00
C899   C     0.50067   0.95707   0.49974   0.00000  Uiso   1.00
C900   C     0.49933   0.70959   0.50026   0.00000  Uiso   1.00
C901   C     0.46544   0.80864   0.35426   0.00000  Uiso   1.00
C902   C     0.53456   0.85803   0.64574   0.00000  Uiso   1.00
C903   C     0.46571   0.80844   0.63815   0.00000  Uiso   1.00
C904   C     0.53429   0.85822   0.36185   0.00000  Uiso   1.00
C905   C     0.58980   0.71638   0.48072   0.00000  Uiso   1.00
C906   C     0.41020   0.95028   0.51928   0.00000  Uiso   1.00
C907   C     0.59565   0.95954   0.48726   0.00000  Uiso   1.00
C908   C     0.50080   0.91235   0.49994   0.00000  Uiso   1.00
C909   C     0.40435   0.70713   0.51274   0.00000  Uiso   1.00
C910   C     0.42813   0.78106   0.37486   0.00000  Uiso   1.00
C911   C     0.57188   0.88560   0.62514   0.00000  Uiso   1.00
C912   C     0.43101   0.77875   0.60985   0.00000  Uiso   1.00
C913   C     0.56898   0.88792   0.39015   0.00000  Uiso   1.00
C914   C     0.40140   0.83278   0.48808   0.00000  Uiso   1.00
C915   C     0.59860   0.83389   0.51192   0.00000  Uiso   1.00
C916   C     0.34608   0.83103   0.48174   0.00000  Uiso   1.00
C917   C     0.65392   0.83564   0.51826   0.00000  Uiso   1.00
C918   C     0.54413   0.69038   0.49055   0.00000  Uiso   1.00
C919   C     0.45586   0.97628   0.50945   0.00000  Uiso   1.00
C920   C     0.54538   0.98028   0.49135   0.00000  Uiso   1.00
Cu921  Cu    0.50000   0.83334   0.54689   0.00000  Uiso   1.00
Cu922  Cu    0.50000   0.83333   0.45311   0.00000  Uiso   1.00
H923   H     0.65958   0.82527   0.44685   0.00000  Uiso   1.00
H924   H     0.39375   0.70273   0.54840   0.00000  Uiso   1.00
H925   H     0.44058   0.75296   0.39290   0.00000  Uiso   1.00
H926   H     0.55943   0.91370   0.60709   0.00000  Uiso   1.00
H927   H     0.44643   0.75140   0.59662   0.00000  Uiso   1.00
H928   H     0.55356   0.91528   0.40336   0.00000  Uiso   1.00
H929   H     0.34042   0.84140   0.55315   0.00000  Uiso   1.00
H930   H     0.60111   0.74409   0.50096   0.00000  Uiso   1.00
H931   H     0.39889   0.92257   0.49904   0.00000  Uiso   1.00
H932   H     0.59458   0.92588   0.49477   0.00000  Uiso   1.00
H933   H     0.60625   0.96394   0.45160   0.00000  Uiso   1.00
H934   H     0.62665   0.97356   0.51280   0.00000  Uiso   1.00
H935   H     0.40542   0.74079   0.50522   0.00000  Uiso   1.00
H936   H     0.37335   0.69311   0.48719   0.00000  Uiso   1.00
N937   N     0.50001   0.83334   0.61736   0.00000  Uiso   1.00
N938   N     0.49999   0.83332   0.38264   0.00000  Uiso   1.00
O939   O     0.50000   0.77322   0.53958   0.00000  Uiso   1.00
O940   O     0.38648   0.95849   0.55141   0.00000  Uiso   1.00
O941   O     0.38248   0.78886   0.36998   0.00000  Uiso   1.00
O942   O     0.61753   0.87781   0.63003   0.00000  Uiso   1.00
O943   O     0.38457   0.78330   0.60376   0.00000  Uiso   1.00
O944   O     0.61542   0.88337   0.39625   0.00000  Uiso   1.00
O945   O     0.50000   0.89345   0.46042   0.00000  Uiso   1.00
O946   O     0.50000   0.77321   0.46039   0.00000  Uiso   1.00
O947   O     0.50000   0.89346   0.53961   0.00000  Uiso   1.00
O948   O     0.42495   0.83334   0.53046   0.00000  Uiso   1.00
O949   O     0.57505   0.83333   0.46954   0.00000  Uiso   1.00
O950   O     0.42494   0.83333   0.45127   0.00000  Uiso   1.00
O951   O     0.57506   0.83334   0.54873   0.00000  Uiso   1.00
O952   O     0.61352   0.70817   0.44859   0.00000  Uiso   1.00
C953   C     0.83253   0.75431   0.50006   0.00000  Uiso   1.00
C954   C     0.78795   0.68638   0.50865   0.00000  Uiso   1.00
C955   C     0.83400   0.95707   0.49974   0.00000  Uiso   1.00
C956   C     0.83267   0.70959   0.50026   0.00000  Uiso   1.00
C957   C     0.79877   0.80864   0.35426   0.00000  Uiso   1.00
C958   C     0.86789   0.85803   0.64574   0.00000  Uiso   1.00
C959   C     0.79904   0.80844   0.63815   0.00000  Uiso   1.00
C960   C     0.86762   0.85822   0.36185   0.00000  Uiso   1.00
C961   C     0.92313   0.71638   0.48072   0.00000  Uiso   1.00
C962   C     0.74353   0.95028   0.51928   0.00000  Uiso   1.00
C963   C     0.92898   0.95954   0.48726   0.00000  Uiso   1.00
C964   C     0.83413   0.91235   0.49994   0.00000  Uiso   1.00
C965   C     0.73768   0.70713   0.51274   0.00000  Uiso   1.00
C966   C     0.76146   0.78106   0.37486   0.00000  Uiso   1.00
C967   C     0.90521   0.88560   0.62514   0.00000  Uiso   1.00
C968   C     0.76434   0.77875   0.60985   0.00000  Uiso   1.00
C969   C     0.90232   0.88792   0.39015   0.00000  Uiso   1.00
C970   C     0.73474   0.83278   0.48808   0.00000  Uiso   1.00
C971   C     0.93193   0.83389   0.51192   0.00000  Uiso   1.00
C972   C     0.67941   0.83103   0.48174   0.00000  Uiso   1.00
C973   C     0.98725   0.83564   0.51826   0.00000  Uiso   1.00
C974   C     0.87747   0.69038   0.49055   0.00000  Uiso   1.00
C975   C     0.78920   0.97628   0.50945   0.00000  Uiso   1.00
C976   C     0.87871   0.98028   0.49135   0.00000  Uiso   1.00
Cu977  Cu    0.83333   0.83334   0.54689   0.00000  Uiso   1.00
Cu978  Cu    0.83333   0.83333   0.45311   0.00000  Uiso   1.00
H979   H     0.99291   0.82527   0.44685   0.00000  Uiso   1.00
H980   H     0.72708   0.70273   0.54840   0.00000  Uiso   1.00
H981   H     0.77391   0.75296   0.39290   0.00000  Uiso   1.00
H982   H     0.89277   0.91370   0.60709   0.00000  Uiso   1.00
H983   H     0.77976   0.75140   0.59662   0.00000  Uiso   1.00
H984   H     0.88690   0.91528   0.40336   0.00000  Uiso   1.00
H985   H     0.67375   0.84140   0.55315   0.00000  Uiso   1.00
H986   H     0.93445   0.74409   0.50096   0.00000  Uiso   1.00
H987   H     0.73222   0.92257   0.49904   0.00000  Uiso   1.00
H988   H     0.92792   0.92588   0.49477   0.00000  Uiso   1.00
H989   H     0.93958   0.96394   0.45160   0.00000  Uiso   1.00
H990   H     0.95999   0.97356   0.51280   0.00000  Uiso   1.00
H991   H     0.73875   0.74079   0.50522   0.00000  Uiso   1.00
H992   H     0.70668   0.69311   0.48719   0.00000  Uiso   1.00
N993   N     0.83335   0.83334   0.61736   0.00000  Uiso   1.00
N994   N     0.83332   0.83332   0.38264   0.00000  Uiso   1.00
O995   O     0.83333   0.77322   0.53958   0.00000  Uiso   1.00
O996   O     0.71981   0.95849   0.55141   0.00000  Uiso   1.00
O997   O     0.71581   0.78886   0.36998   0.00000  Uiso   1.00
O998   O     0.95086   0.87781   0.63003   0.00000  Uiso   1.00
O999   O     0.71791   0.78330   0.60376   0.00000  Uiso   1.00
O1000  O     0.94875   0.88337   0.39625   0.00000  Uiso   1.00
O1001  O     0.83334   0.89345   0.46042   0.00000  Uiso   1.00
O1002  O     0.83333   0.77321   0.46039   0.00000  Uiso   1.00
O1003  O     0.83334   0.89346   0.53961   0.00000  Uiso   1.00
O1004  O     0.75828   0.83334   0.53046   0.00000  Uiso   1.00
O1005  O     0.90839   0.83333   0.46954   0.00000  Uiso   1.00
O1006  O     0.75828   0.83333   0.45127   0.00000  Uiso   1.00
O1007  O     0.90839   0.83334   0.54873   0.00000  Uiso   1.00
O1008  O     0.94685   0.70817   0.44859   0.00000  Uiso   1.00
C1009  C     0.16587   0.08765   0.83339   0.00000  Uiso   1.00
C1010  C     0.12128   0.01972   0.84198   0.00000  Uiso   1.00
C1011  C     0.16733   0.29041   0.83307   0.00000  Uiso   1.00
C1012  C     0.16600   0.04292   0.83359   0.00000  Uiso   1.00
C1013  C     0.13211   0.14197   0.68759   0.00000  Uiso   1.00
C1014  C     0.20123   0.19136   0.97907   0.00000  Uiso   1.00
C1015  C     0.13237   0.14178   0.97149   0.00000  Uiso   1.00
C1016  C     0.20096   0.19156   0.69518   0.00000  Uiso   1.00
C1017  C     0.25647   0.04972   0.81405   0.00000  Uiso   1.00
C1018  C     0.07687   0.28362   0.85261   0.00000  Uiso   1.00
C1019  C     0.26232   0.29287   0.82059   0.00000  Uiso   1.00
C1020  C     0.16747   0.24569   0.83327   0.00000  Uiso   1.00
C1021  C     0.07102   0.04046   0.84608   0.00000  Uiso   1.00
C1022  C     0.09479   0.11439   0.70819   0.00000  Uiso   1.00
C1023  C     0.23855   0.21893   0.95848   0.00000  Uiso   1.00
C1024  C     0.09767   0.11208   0.94319   0.00000  Uiso   1.00
C1025  C     0.23565   0.22126   0.72348   0.00000  Uiso   1.00
C1026  C     0.06807   0.16611   0.82141   0.00000  Uiso   1.00
C1027  C     0.26526   0.16722   0.84525   0.00000  Uiso   1.00
C1028  C     0.01275   0.16436   0.81507   0.00000  Uiso   1.00
C1029  C     0.32059   0.16897   0.85160   0.00000  Uiso   1.00
C1030  C     0.21080   0.02372   0.82388   0.00000  Uiso   1.00
C1031  C     0.12253   0.30962   0.84279   0.00000  Uiso   1.00
C1032  C     0.21205   0.31362   0.82469   0.00000  Uiso   1.00
Cu1033 Cu    0.16667   0.16667   0.88022   0.00000  Uiso   1.00
Cu1034 Cu    0.16667   0.16666   0.78645   0.00000  Uiso   1.00
H1035  H     0.32625   0.15860   0.78018   0.00000  Uiso   1.00
H1036  H     0.06042   0.03606   0.88173   0.00000  Uiso   1.00
H1037  H     0.10724   0.08629   0.72624   0.00000  Uiso   1.00
H1038  H     0.22610   0.24704   0.94042   0.00000  Uiso   1.00
H1039  H     0.11309   0.08473   0.92995   0.00000  Uiso   1.00
H1040  H     0.22023   0.24861   0.73670   0.00000  Uiso   1.00
H1041  H     0.00708   0.17473   0.88648   0.00000  Uiso   1.00
H1042  H     0.26778   0.07743   0.83429   0.00000  Uiso   1.00
H1043  H     0.06555   0.25591   0.83237   0.00000  Uiso   1.00
H1044  H     0.26125   0.25921   0.82811   0.00000  Uiso   1.00
H1045  H     0.27291   0.29728   0.78493   0.00000  Uiso   1.00
H1046  H     0.29332   0.30689   0.84614   0.00000  Uiso   1.00
H1047  H     0.07208   0.07412   0.83856   0.00000  Uiso   1.00
H1048  H     0.04001   0.02644   0.82053   0.00000  Uiso   1.00
N1049  N     0.16668   0.16668   0.95069   0.00000  Uiso   1.00
N1050  N     0.16665   0.16666   0.71597   0.00000  Uiso   1.00
O1051  O     0.16666   0.10655   0.87291   0.00000  Uiso   1.00
O1052  O     0.05315   0.29183   0.88474   0.00000  Uiso   1.00
O1053  O     0.04915   0.12219   0.70332   0.00000  Uiso   1.00
O1054  O     0.28419   0.21114   0.96336   0.00000  Uiso   1.00
O1055  O     0.05124   0.11663   0.93709   0.00000  Uiso   1.00
O1056  O     0.28209   0.21671   0.72959   0.00000  Uiso   1.00
O1057  O     0.16667   0.22678   0.79375   0.00000  Uiso   1.00
O1058  O     0.16666   0.10654   0.79372   0.00000  Uiso   1.00
O1059  O     0.16667   0.22679   0.87294   0.00000  Uiso   1.00
O1060  O     0.09161   0.16667   0.86379   0.00000  Uiso   1.00
O1061  O     0.24172   0.16666   0.80288   0.00000  Uiso   1.00
O1062  O     0.09161   0.16666   0.78460   0.00000  Uiso   1.00
O1063  O     0.24172   0.16667   0.88207   0.00000  Uiso   1.00
O1064  O     0.28018   0.04151   0.78193   0.00000  Uiso   1.00
C1065  C     0.49920   0.08765   0.83339   0.00000  Uiso   1.00
C1066  C     0.45462   0.01972   0.84198   0.00000  Uiso   1.00
C1067  C     0.50067   0.29041   0.83307   0.00000  Uiso   1.00
C1068  C     0.49933   0.04292   0.83359   0.00000  Uiso   1.00
C1069  C     0.46544   0.14197   0.68759   0.00000  Uiso   1.00
C1070  C     0.53456   0.19136   0.97907   0.00000  Uiso   1.00
C1071  C     0.46571   0.14178   0.97149   0.00000  Uiso   1.00
C1072  C     0.53429   0.19156   0.69518   0.00000  Uiso   1.00
C1073  C     0.58980   0.04972   0.81405   0.00000  Uiso   1.00
C1074  C     0.41020   0.28362   0.85261   0.00000  Uiso   1.00
C1075  C     0.59565   0.29287   0.82059   0.00000  Uiso   1.00
C1076  C     0.50080   0.24569   0.83327   0.00000  Uiso   1.00
C1077  C     0.40435   0.04046   0.84608   0.00000  Uiso   1.00
C1078  C     0.42813   0.11439   0.70819   0.00000  Uiso   1.00
C1079  C     0.57188   0.21893   0.95848   0.00000  Uiso   1.00
C1080  C     0.43101   0.11208   0.94319   0.00000  Uiso   1.00
C1081  C     0.56898   0.22126   0.72348   0.00000  Uiso   1.00
C1082  C     0.40140   0.16611   0.82141   0.00000  Uiso   1.00
C1083  C     0.59860   0.16722   0.84525   0.00000  Uiso   1.00
C1084  C     0.34608   0.16436   0.81507   0.00000  Uiso   1.00
C1085  C     0.65392   0.16897   0.85160   0.00000  Uiso   1.00
C1086  C     0.54413   0.02372   0.82388   0.00000  Uiso   1.00
C1087  C     0.45586   0.30962   0.84279   0.00000  Uiso   1.00
C1088  C     0.54538   0.31362   0.82469   0.00000  Uiso   1.00
Cu1089 Cu    0.50000   0.16667   0.88022   0.00000  Uiso   1.00
Cu1090 Cu    0.50000   0.16666   0.78645   0.00000  Uiso   1.00
H1091  H     0.65958   0.15860   0.78018   0.00000  Uiso   1.00
H1092  H     0.39375   0.03606   0.88173   0.00000  Uiso   1.00
H1093  H     0.44058   0.08629   0.72624   0.00000  Uiso   1.00
H1094  H     0.55943   0.24704   0.94042   0.00000  Uiso   1.00
H1095  H     0.44643   0.08473   0.92995   0.00000  Uiso   1.00
H1096  H     0.55356   0.24861   0.73670   0.00000  Uiso   1.00
H1097  H     0.34042   0.17473   0.88648   0.00000  Uiso   1.00
H1098  H     0.60111   0.07743   0.83429   0.00000  Uiso   1.00
H1099  H     0.39889   0.25591   0.83237   0.00000  Uiso   1.00
H1100  H     0.59458   0.25921   0.82811   0.00000  Uiso   1.00
H1101  H     0.60625   0.29728   0.78493   0.00000  Uiso   1.00
H1102  H     0.62665   0.30689   0.84614   0.00000  Uiso   1.00
H1103  H     0.40542   0.07412   0.83856   0.00000  Uiso   1.00
H1104  H     0.37335   0.02644   0.82053   0.00000  Uiso   1.00
N1105  N     0.50001   0.16668   0.95069   0.00000  Uiso   1.00
N1106  N     0.49999   0.16666   0.71597   0.00000  Uiso   1.00
O1107  O     0.50000   0.10655   0.87291   0.00000  Uiso   1.00
O1108  O     0.38648   0.29183   0.88474   0.00000  Uiso   1.00
O1109  O     0.38248   0.12219   0.70332   0.00000  Uiso   1.00
O1110  O     0.61753   0.21114   0.96336   0.00000  Uiso   1.00
O1111  O     0.38457   0.11663   0.93709   0.00000  Uiso   1.00
O1112  O     0.61542   0.21671   0.72959   0.00000  Uiso   1.00
O1113  O     0.50000   0.22678   0.79375   0.00000  Uiso   1.00
O1114  O     0.50000   0.10654   0.79372   0.00000  Uiso   1.00
O1115  O     0.50000   0.22679   0.87294   0.00000  Uiso   1.00
O1116  O     0.42495   0.16667   0.86379   0.00000  Uiso   1.00
O1117  O     0.57505   0.16666   0.80288   0.00000  Uiso   1.00
O1118  O     0.42494   0.16666   0.78460   0.00000  Uiso   1.00
O1119  O     0.57506   0.16667   0.88207   0.00000  Uiso   1.00
O1120  O     0.61352   0.04151   0.78193   0.00000  Uiso   1.00
C1121  C     0.83253   0.08765   0.83339   0.00000  Uiso   1.00
C1122  C     0.78795   0.01972   0.84198   0.00000  Uiso   1.00
C1123  C     0.83400   0.29041   0.83307   0.00000  Uiso   1.00
C1124  C     0.83267   0.04292   0.83359   0.00000  Uiso   1.00
C1125  C     0.79877   0.14197   0.68759   0.00000  Uiso   1.00
C1126  C     0.86789   0.19136   0.97907   0.00000  Uiso   1.00
C1127  C     0.79904   0.14178   0.97149   0.00000  Uiso   1.00
C1128  C     0.86762   0.19156   0.69518   0.00000  Uiso   1.00
C1129  C     0.92313   0.04972   0.81405   0.00000  Uiso   1.00
C1130  C     0.74353   0.28362   0.85261   0.00000  Uiso   1.00
C1131  C     0.92898   0.29287   0.82059   0.00000  Uiso   1.00
C1132  C     0.83413   0.24569   0.83327   0.00000  Uiso   1.00
C1133  C     0.73768   0.04046   0.84608   0.00000  Uiso   1.00
C1134  C     0.76146   0.11439   0.70819   0.00000  Uiso   1.00
C1135  C     0.90521   0.21893   0.95848   0.00000  Uiso   1.00
C1136  C     0.76434   0.11208   0.94319   0.00000  Uiso   1.00
C1137  C     0.90232   0.22126   0.72348   0.00000  Uiso   1.00
C1138  C     0.73474   0.16611   0.82141   0.00000  Uiso   1.00
C1139  C     0.93193   0.16722   0.84525   0.00000  Uiso   1.00
C1140  C     0.67941   0.16436   0.81507   0.00000  Uiso   1.00
C1141  C     0.98725   0.16897   0.85160   0.00000  Uiso   1.00
C1142  C     0.87747   0.02372   0.82388   0.00000  Uiso   1.00
C1143  C     0.78920   0.30962   0.84279   0.00000  Uiso   1.00
C1144  C     0.87871   0.31362   0.82469   0.00000  Uiso   1.00
Cu1145 Cu    0.83333   0.16667   0.88022   0.00000  Uiso   1.00
Cu1146 Cu    0.83333   0.16666   0.78645   0.00000  Uiso   1.00
H1147  H     0.99291   0.15860   0.78018   0.00000  Uiso   1.00
H1148  H     0.72708   0.03606   0.88173   0.00000  Uiso   1.00
H1149  H     0.77391   0.08629   0.72624   0.00000  Uiso   1.00
H1150  H     0.89277   0.24704   0.94042   0.00000  Uiso   1.00
H1151  H     0.77976   0.08473   0.92995   0.00000  Uiso   1.00
H1152  H     0.88690   0.24861   0.73670   0.00000  Uiso   1.00
H1153  H     0.67375   0.17473   0.88648   0.00000  Uiso   1.00
H1154  H     0.93445   0.07743   0.83429   0.00000  Uiso   1.00
H1155  H     0.73222   0.25591   0.83237   0.00000  Uiso   1.00
H1156  H     0.92792   0.25921   0.82811   0.00000  Uiso   1.00
H1157  H     0.93958   0.29728   0.78493   0.00000  Uiso   1.00
H1158  H     0.95999   0.30689   0.84614   0.00000  Uiso   1.00
H1159  H     0.73875   0.07412   0.83856   0.00000  Uiso   1.00
H1160  H     0.70668   0.02644   0.82053   0.00000  Uiso   1.00
N1161  N     0.83335   0.16668   0.95069   0.00000  Uiso   1.00
N1162  N     0.83332   0.16666   0.71597   0.00000  Uiso   1.00
O1163  O     0.83333   0.10655   0.87291   0.00000  Uiso   1.00
O1164  O     0.71981   0.29183   0.88474   0.00000  Uiso   1.00
O1165  O     0.71581   0.12219   0.70332   0.00000  Uiso   1.00
O1166  O     0.95086   0.21114   0.96336   0.00000  Uiso   1.00
O1167  O     0.71791   0.11663   0.93709   0.00000  Uiso   1.00
O1168  O     0.94875   0.21671   0.72959   0.00000  Uiso   1.00
O1169  O     0.83334   0.22678   0.79375   0.00000  Uiso   1.00
O1170  O     0.83333   0.10654   0.79372   0.00000  Uiso   1.00
O1171  O     0.83334   0.22679   0.87294   0.00000  Uiso   1.00
O1172  O     0.75828   0.16667   0.86379   0.00000  Uiso   1.00
O1173  O     0.90839   0.16666   0.80288   0.00000  Uiso   1.00
O1174  O     0.75828   0.16666   0.78460   0.00000  Uiso   1.00
O1175  O     0.90839   0.16667   0.88207   0.00000  Uiso   1.00
O1176  O     0.94685   0.04151   0.78193   0.00000  Uiso   1.00
C1177  C     0.16587   0.42098   0.83339   0.00000  Uiso   1.00
C1178  C     0.12128   0.35305   0.84198   0.00000  Uiso   1.00
C1179  C     0.16733   0.62374   0.83307   0.00000  Uiso   1.00
C1180  C     0.16600   0.37626   0.83359   0.00000  Uiso   1.00
C1181  C     0.13211   0.47530   0.68759   0.00000  Uiso   1.00
C1182  C     0.20123   0.52470   0.97907   0.00000  Uiso   1.00
C1183  C     0.13237   0.47511   0.97149   0.00000  Uiso   1.00
C1184  C     0.20096   0.52489   0.69518   0.00000  Uiso   1.00
C1185  C     0.25647   0.38305   0.81405   0.00000  Uiso   1.00
C1186  C     0.07687   0.61695   0.85261   0.00000  Uiso   1.00
C1187  C     0.26232   0.62621   0.82059   0.00000  Uiso   1.00
C1188  C     0.16747   0.57902   0.83327   0.00000  Uiso   1.00
C1189  C     0.07102   0.37379   0.84608   0.00000  Uiso   1.00
C1190  C     0.09479   0.44773   0.70819   0.00000  Uiso   1.00
C1191  C     0.23855   0.55227   0.95848   0.00000  Uiso   1.00
C1192  C     0.09767   0.44541   0.94319   0.00000  Uiso   1.00
C1193  C     0.23565   0.55459   0.72348   0.00000  Uiso   1.00
C1194  C     0.06807   0.49944   0.82141   0.00000  Uiso   1.00
C1195  C     0.26526   0.50056   0.84525   0.00000  Uiso   1.00
C1196  C     0.01275   0.49770   0.81507   0.00000  Uiso   1.00
C1197  C     0.32059   0.50230   0.85160   0.00000  Uiso   1.00
C1198  C     0.21080   0.35705   0.82388   0.00000  Uiso   1.00
C1199  C     0.12253   0.64295   0.84279   0.00000  Uiso   1.00
C1200  C     0.21205   0.64695   0.82469   0.00000  Uiso   1.00
Cu1201 Cu    0.16667   0.50001   0.88022   0.00000  Uiso   1.00
Cu1202 Cu    0.16667   0.49999   0.78645   0.00000  Uiso   1.00
H1203  H     0.32625   0.49194   0.78018   0.00000  Uiso   1.00
H1204  H     0.06042   0.36939   0.88173   0.00000  Uiso   1.00
H1205  H     0.10724   0.41962   0.72624   0.00000  Uiso   1.00
H1206  H     0.22610   0.58037   0.94042   0.00000  Uiso   1.00
H1207  H     0.11309   0.41807   0.92995   0.00000  Uiso   1.00
H1208  H     0.22023   0.58195   0.73670   0.00000  Uiso   1.00
H1209  H     0.00708   0.50806   0.88648   0.00000  Uiso   1.00
H1210  H     0.26778   0.41076   0.83429   0.00000  Uiso   1.00
H1211  H     0.06555   0.58924   0.83237   0.00000  Uiso   1.00
H1212  H     0.26125   0.59254   0.82811   0.00000  Uiso   1.00
H1213  H     0.27291   0.63061   0.78493   0.00000  Uiso   1.00
H1214  H     0.29332   0.64022   0.84614   0.00000  Uiso   1.00
H1215  H     0.07208   0.40746   0.83856   0.00000  Uiso   1.00
H1216  H     0.04001   0.35978   0.82053   0.00000  Uiso   1.00
N1217  N     0.16668   0.50001   0.95069   0.00000  Uiso   1.00
N1218  N     0.16665   0.49999   0.71597   0.00000  Uiso   1.00
O1219  O     0.16666   0.43989   0.87291   0.00000  Uiso   1.00
O1220  O     0.05315   0.62516   0.88474   0.00000  Uiso   1.00
O1221  O     0.04915   0.45553   0.70332   0.00000  Uiso   1.00
O1222  O     0.28419   0.54447   0.96336   0.00000  Uiso   1.00
O1223  O     0.05124   0.44996   0.93709   0.00000  Uiso   1.00
O1224  O     0.28209   0.55004   0.72959   0.00000  Uiso   1.00
O1225  O     0.16667   0.56011   0.79375   0.00000  Uiso   1.00
O1226  O     0.16666   0.43988   0.79372   0.00000  Uiso   1.00
O1227  O     0.16667   0.56012   0.87294   0.00000  Uiso   1.00
O1228  O     0.09161   0.50000   0.86379   0.00000  Uiso   1.00
O1229  O     0.24172   0.50000   0.80288   0.00000  Uiso   1.00
O1230  O     0.09161   0.49999   0.78460   0.00000  Uiso   1.00
O1231  O     0.24172   0.50001   0.88207   0.00000  Uiso   1.00
O1232  O     0.28018   0.37484   0.78193   0.00000  Uiso   1.00
C1233  C     0.49920   0.42098   0.83339   0.00000  Uiso   1.00
C1234  C     0.45462   0.35305   0.84198   0.00000  Uiso   1.00
C1235  C     0.50067   0.62374   0.83307   0.00000  Uiso   1.00
C1236  C     0.49933   0.37626   0.83359   0.00000  Uiso   1.00
C1237  C     0.46544   0.47530   0.68759   0.00000  Uiso   1.00
C1238  C     0.53456   0.52470   0.97907   0.00000  Uiso   1.00
C1239  C     0.46571   0.47511   0.97149   0.00000  Uiso   1.00
C1240  C     0.53429   0.52489   0.69518   0.00000  Uiso   1.00
C1241  C     0.58980   0.38305   0.81405   0.00000  Uiso   1.00
C1242  C     0.41020   0.61695   0.85261   0.00000  Uiso   1.00
C1243  C     0.59565   0.62621   0.82059   0.00000  Uiso   1.00
C1244  C     0.50080   0.57902   0.83327   0.00000  Uiso   1.00
C1245  C     0.40435   0.37379   0.84608   0.00000  Uiso   1.00
C1246  C     0.42813   0.44773   0.70819   0.00000  Uiso   1.00
C1247  C     0.57188   0.55227   0.95848   0.00000  Uiso   1.00
C1248  C     0.43101   0.44541   0.94319   0.00000  Uiso   1.00
C1249  C     0.56898   0.55459   0.72348   0.00000  Uiso   1.00
C1250  C     0.40140   0.49944   0.82141   0.00000  Uiso   1.00
C1251  C     0.59860   0.50056   0.84525   0.00000  Uiso   1.00
C1252  C     0.34608   0.49770   0.81507   0.00000  Uiso   1.00
C1253  C     0.65392   0.50230   0.85160   0.00000  Uiso   1.00
C1254  C     0.54413   0.35705   0.82388   0.00000  Uiso   1.00
C1255  C     0.45586   0.64295   0.84279   0.00000  Uiso   1.00
C1256  C     0.54538   0.64695   0.82469   0.00000  Uiso   1.00
Cu1257 Cu    0.50000   0.50001   0.88022   0.00000  Uiso   1.00
Cu1258 Cu    0.50000   0.49999   0.78645   0.00000  Uiso   1.00
H1259  H     0.65958   0.49194   0.78018   0.00000  Uiso   1.00
H1260  H     0.39375   0.36939   0.88173   0.00000  Uiso   1.00
H1261  H     0.44058   0.41962   0.72624   0.00000  Uiso   1.00
H1262  H     0.55943   0.58037   0.94042   0.00000  Uiso   1.00
H1263  H     0.44643   0.41807   0.92995   0.00000  Uiso   1.00
H1264  H     0.55356   0.58195   0.73670   0.00000  Uiso   1.00
H1265  H     0.34042   0.50806   0.88648   0.00000  Uiso   1.00
H1266  H     0.60111   0.41076   0.83429   0.00000  Uiso   1.00
H1267  H     0.39889   0.58924   0.83237   0.00000  Uiso   1.00
H1268  H     0.59458   0.59254   0.82811   0.00000  Uiso   1.00
H1269  H     0.60625   0.63061   0.78493   0.00000  Uiso   1.00
H1270  H     0.62665   0.64022   0.84614   0.00000  Uiso   1.00
H1271  H     0.40542   0.40746   0.83856   0.00000  Uiso   1.00
H1272  H     0.37335   0.35978   0.82053   0.00000  Uiso   1.00
N1273  N     0.50001   0.50001   0.95069   0.00000  Uiso   1.00
N1274  N     0.49999   0.49999   0.71597   0.00000  Uiso   1.00
O1275  O     0.50000   0.43989   0.87291   0.00000  Uiso   1.00
O1276  O     0.38648   0.62516   0.88474   0.00000  Uiso   1.00
O1277  O     0.38248   0.45553   0.70332   0.00000  Uiso   1.00
O1278  O     0.61753   0.54447   0.96336   0.00000  Uiso   1.00
O1279  O     0.38457   0.44996   0.93709   0.00000  Uiso   1.00
O1280  O     0.61542   0.55004   0.72959   0.00000  Uiso   1.00
O1281  O     0.50000   0.56011   0.79375   0.00000  Uiso   1.00
O1282  O     0.50000   0.43988   0.79372   0.00000  Uiso   1.00
O1283  O     0.50000   0.56012   0.87294   0.00000  Uiso   1.00
O1284  O     0.42495   0.50000   0.86379   0.00000  Uiso   1.00
O1285  O     0.57505   0.50000   0.80288   0.00000  Uiso   1.00
O1286  O     0.42494   0.49999   0.78460   0.00000  Uiso   1.00
O1287  O     0.57506   0.50001   0.88207   0.00000  Uiso   1.00
O1288  O     0.61352   0.37484   0.78193   0.00000  Uiso   1.00
C1289  C     0.83253   0.42098   0.83339   0.00000  Uiso   1.00
C1290  C     0.78795   0.35305   0.84198   0.00000  Uiso   1.00
C1291  C     0.83400   0.62374   0.83307   0.00000  Uiso   1.00
C1292  C     0.83267   0.37626   0.83359   0.00000  Uiso   1.00
C1293  C     0.79877   0.47530   0.68759   0.00000  Uiso   1.00
C1294  C     0.86789   0.52470   0.97907   0.00000  Uiso   1.00
C1295  C     0.79904   0.47511   0.97149   0.00000  Uiso   1.00
C1296  C     0.86762   0.52489   0.69518   0.00000  Uiso   1.00
C1297  C     0.92313   0.38305   0.81405   0.00000  Uiso   1.00
C1298  C     0.74353   0.61695   0.85261   0.00000  Uiso   1.00
C1299  C     0.92898   0.62621   0.82059   0.00000  Uiso   1.00
C1300  C     0.83413   0.57902   0.83327   0.00000  Uiso   1.00
C1301  C     0.73768   0.37379   0.84608   0.00000  Uiso   1.00
C1302  C     0.76146   0.44773   0.70819   0.00000  Uiso   1.00
C1303  C     0.90521   0.55227   0.95848   0.00000  Uiso   1.00
C1304  C     0.76434   0.44541   0.94319   0.00000  Uiso   1.00
C1305  C     0.90232   0.55459   0.72348   0.00000  Uiso   1.00
C1306  C     0.73474   0.49944   0.82141   0.00000  Uiso   1.00
C1307  C     0.93193   0.50056   0.84525   0.00000  Uiso   1.00
C1308  C     0.67941   0.49770   0.81507   0.00000  Uiso   1.00
C1309  C     0.98725   0.50230   0.85160   0.00000  Uiso   1.00
C1310  C     0.87747   0.35705   0.82388   0.00000  Uiso   1.00
C1311  C     0.78920   0.64295   0.84279   0.00000  Uiso   1.00
C1312  C     0.87871   0.64695   0.82469   0.00000  Uiso   1.00
Cu1313 Cu    0.83333   0.50001   0.88022   0.00000  Uiso   1.00
Cu1314 Cu    0.83333   0.49999   0.78645   0.00000  Uiso   1.00
H1315  H     0.99291   0.49194   0.78018   0.00000  Uiso   1.00
H1316  H     0.72708   0.36939   0.88173   0.00000  Uiso   1.00
H1317  H     0.77391   0.41962   0.72624   0.00000  Uiso   1.00
H1318  H     0.89277   0.58037   0.94042   0.00000  Uiso   1.00
H1319  H     0.77976   0.41807   0.92995   0.00000  Uiso   1.00
H1320  H     0.88690   0.58195   0.73670   0.00000  Uiso   1.00
H1321  H     0.67375   0.50806   0.88648   0.00000  Uiso   1.00
H1322  H     0.93445   0.41076   0.83429   0.00000  Uiso   1.00
H1323  H     0.73222   0.58924   0.83237   0.00000  Uiso   1.00
H1324  H     0.92792   0.59254   0.82811   0.00000  Uiso   1.00
H1325  H     0.93958   0.63061   0.78493   0.00000  Uiso   1.00
H1326  H     0.95999   0.64022   0.84614   0.00000  Uiso   1.00
H1327  H     0.73875   0.40746   0.83856   0.00000  Uiso   1.00
H1328  H     0.70668   0.35978   0.82053   0.00000  Uiso   1.00
N1329  N     0.83335   0.50001   0.95069   0.00000  Uiso   1.00
N1330  N     0.83332   0.49999   0.71597   0.00000  Uiso   1.00
O1331  O     0.83333   0.43989   0.87291   0.00000  Uiso   1.00
O1332  O     0.71981   0.62516   0.88474   0.00000  Uiso   1.00
O1333  O     0.71581   0.45553   0.70332   0.00000  Uiso   1.00
O1334  O     0.95086   0.54447   0.96336   0.00000  Uiso   1.00
O1335  O     0.71791   0.44996   0.93709   0.00000  Uiso   1.00
O1336  O     0.94875   0.55004   0.72959   0.00000  Uiso   1.00
O1337  O     0.83334   0.56011   0.79375   0.00000  Uiso   1.00
O1338  O     0.83333   0.43988   0.79372   0.00000  Uiso   1.00
O1339  O     0.83334   0.56012   0.87294   0.00000  Uiso   1.00
O1340  O     0.75828   0.50000   0.86379   0.00000  Uiso   1.00
O1341  O     0.90839   0.50000   0.80288   0.00000  Uiso   1.00
O1342  O     0.75828   0.49999   0.78460   0.00000  Uiso   1.00
O1343  O     0.90839   0.50001   0.88207   0.00000  Uiso   1.00
O1344  O     0.94685   0.37484   0.78193   0.00000  Uiso   1.00
C1345  C     0.16587   0.75431   0.83339   0.00000  Uiso   1.00
C1346  C     0.12128   0.68638   0.84198   0.00000  Uiso   1.00
C1347  C     0.16733   0.95707   0.83307   0.00000  Uiso   1.00
C1348  C     0.16600   0.70959   0.83359   0.00000  Uiso   1.00
C1349  C     0.13211   0.80864   0.68759   0.00000  Uiso   1.00
C1350  C     0.20123   0.85803   0.97907   0.00000  Uiso   1.00
C1351  C     0.13237   0.80844   0.97149   0.00000  Uiso   1.00
C1352  C     0.20096   0.85822   0.69518   0.00000  Uiso   1.00
C1353  C     0.25647   0.71638   0.81405   0.00000  Uiso   1.00
C1354  C     0.07687   0.95028   0.85261   0.00000  Uiso   1.00
C1355  C     0.26232   0.95954   0.82059   0.00000  Uiso   1.00
C1356  C     0.16747   0.91235   0.83327   0.00000  Uiso   1.00
C1357  C     0.07102   0.70713   0.84608   0.00000  Uiso   1.00
C1358  C     0.09479   0.78106   0.70819   0.00000  Uiso   1.00
C1359  C     0.23855   0.88560   0.95848   0.00000  Uiso   1.00
C1360  C     0.09767   0.77875   0.94319   0.00000  Uiso   1.00
C1361  C     0.23565   0.88792   0.72348   0.00000  Uiso   1.00
C1362  C     0.06807   0.83278   0.82141   0.00000  Uiso   1.00
C1363  C     0.26526   0.83389   0.84525   0.00000  Uiso   1.00
C1364  C     0.01275   0.83103   0.81507   0.00000  Uiso   1.00
C1365  C     0.32059   0.83564   0.85160   0.00000  Uiso   1.00
C1366  C     0.21080   0.69038   0.82388   0.00000  Uiso   1.00
C1367  C     0.12253   0.97628   0.84279   0.00000  Uiso   1.00
C1368  C     0.21205   0.98028   0.82469   0.00000  Uiso   1.00
Cu1369 Cu    0.16667   0.83334   0.88022   0.00000  Uiso   1.00
Cu1370 Cu    0.16667   0.83333   0.78645   0.00000  Uiso   1.00
H1371  H     0.32625   0.82527   0.78018   0.00000  Uiso   1.00
H1372  H     0.06042   0.70273   0.88173   0.00000  Uiso   1.00
H1373  H     0.10724   0.75296   0.72624   0.00000  Uiso   1.00
H1374  H     0.22610   0.91370   0.94042   0.00000  Uiso   1.00
H1375  H     0.11309   0.75140   0.92995   0.00000  Uiso   1.00
H1376  H     0.22023   0.91528   0.73670   0.00000  Uiso   1.00
H1377  H     0.00708   0.84140   0.88648   0.00000  Uiso   1.00
H1378  H     0.26778   0.74409   0.83429   0.00000  Uiso   1.00
H1379  H     0.06555   0.92257   0.83237   0.00000  Uiso   1.00
H1380  H     0.26125   0.92588   0.82811   0.00000  Uiso   1.00
H1381  H     0.27291   0.96394   0.78493   0.00000  Uiso   1.00
H1382  H     0.29332   0.97356   0.84614   0.00000  Uiso   1.00
H1383  H     0.07208   0.74079   0.83856   0.00000  Uiso   1.00
H1384  H     0.04001   0.69311   0.82053   0.00000  Uiso   1.00
N1385  N     0.16668   0.83334   0.95069   0.00000  Uiso   1.00
N1386  N     0.16665   0.83332   0.71597   0.00000  Uiso   1.00
O1387  O     0.16666   0.77322   0.87291   0.00000  Uiso   1.00
O1388  O     0.05315   0.95849   0.88474   0.00000  Uiso   1.00
O1389  O     0.04915   0.78886   0.70332   0.00000  Uiso   1.00
O1390  O     0.28419   0.87781   0.96336   0.00000  Uiso   1.00
O1391  O     0.05124   0.78330   0.93709   0.00000  Uiso   1.00
O1392  O     0.28209   0.88337   0.72959   0.00000  Uiso   1.00
O1393  O     0.16667   0.89345   0.79375   0.00000  Uiso   1.00
O1394  O     0.16666   0.77321   0.79372   0.00000  Uiso   1.00
O1395  O     0.16667   0.89346   0.87294   0.00000  Uiso   1.00
O1396  O     0.09161   0.83334   0.86379   0.00000  Uiso   1.00
O1397  O     0.24172   0.83333   0.80288   0.00000  Uiso   1.00
O1398  O     0.09161   0.83333   0.78460   0.00000  Uiso   1.00
O1399  O     0.24172   0.83334   0.88207   0.00000  Uiso   1.00
O1400  O     0.28018   0.70817   0.78193   0.00000  Uiso   1.00
C1401  C     0.49920   0.75431   0.83339   0.00000  Uiso   1.00
C1402  C     0.45462   0.68638   0.84198   0.00000  Uiso   1.00
C1403  C     0.50067   0.95707   0.83307   0.00000  Uiso   1.00
C1404  C     0.49933   0.70959   0.83359   0.00000  Uiso   1.00
C1405  C     0.46544   0.80864   0.68759   0.00000  Uiso   1.00
C1406  C     0.53456   0.85803   0.97907   0.00000  Uiso   1.00
C1407  C     0.46571   0.80844   0.97149   0.00000  Uiso   1.00
C1408  C     0.53429   0.85822   0.69518   0.00000  Uiso   1.00
C1409  C     0.58980   0.71638   0.81405   0.00000  Uiso   1.00
C1410  C     0.41020   0.95028   0.85261   0.00000  Uiso   1.00
C1411  C     0.59565   0.95954   0.82059   0.00000  Uiso   1.00
C1412  C     0.50080   0.91235   0.83327   0.00000  Uiso   1.00
C1413  C     0.40435   0.70713   0.84608   0.00000  Uiso   1.00
C1414  C     0.42813   0.78106   0.70819   0.00000  Uiso   1.00
C1415  C     0.57188   0.88560   0.95848   0.00000  Uiso   1.00
C1416  C     0.43101   0.77875   0.94319   0.00000  Uiso   1.00
C1417  C     0.56898   0.88792   0.72348   0.00000  Uiso   1.00
C1418  C     0.40140   0.83278   0.82141   0.00000  Uiso   1.00
C1419  C     0.59860   0.83389   0.84525   0.00000  Uiso   1.00
C1420  C     0.34608   0.83103   0.81507   0.00000  Uiso   1.00
C1421  C     0.65392   0.83564   0.85160   0.00000  Uiso   1.00
C1422  C     0.54413   0.69038   0.82388   0.00000  Uiso   1.00
C1423  C     0.45586   0.97628   0.84279   0.00000  Uiso   1.00
C1424  C     0.54538   0.98028   0.82469   0.00000  Uiso   1.00
Cu1425 Cu    0.50000   0.83334   0.88022   0.00000  Uiso   1.00
Cu1426 Cu    0.50000   0.83333   0.78645   0.00000  Uiso   1.00
H1427  H     0.65958   0.82527   0.78018   0.00000  Uiso   1.00
H1428  H     0.39375   0.70273   0.88173   0.00000  Uiso   1.00
H1429  H     0.44058   0.75296   0.72624   0.00000  Uiso   1.00
H1430  H     0.55943   0.91370   0.94042   0.00000  Uiso   1.00
H1431  H     0.44643   0.75140   0.92995   0.00000  Uiso   1.00
H1432  H     0.55356   0.91528   0.73670   0.00000  Uiso   1.00
H1433  H     0.34042   0.84140   0.88648   0.00000  Uiso   1.00
H1434  H     0.60111   0.74409   0.83429   0.00000  Uiso   1.00
H1435  H     0.39889   0.92257   0.83237   0.00000  Uiso   1.00
H1436  H     0.59458   0.92588   0.82811   0.00000  Uiso   1.00
H1437  H     0.60625   0.96394   0.78493   0.00000  Uiso   1.00
H1438  H     0.62665   0.97356   0.84614   0.00000  Uiso   1.00
H1439  H     0.40542   0.74079   0.83856   0.00000  Uiso   1.00
H1440  H     0.37335   0.69311   0.82053   0.00000  Uiso   1.00
N1441  N     0.50001   0.83334   0.95069   0.00000  Uiso   1.00
N1442  N     0.49999   0.83332   0.71597   0.00000  Uiso   1.00
O1443  O     0.50000   0.77322   0.87291   0.00000  Uiso   1.00
O1444  O     0.38648   0.95849   0.88474   0.00000  Uiso   1.00
O1445  O     0.38248   0.78886   0.70332   0.00000  Uiso   1.00
O1446  O     0.61753   0.87781   0.96336   0.00000  Uiso   1.00
O1447  O     0.38457   0.78330   0.93709   0.00000  Uiso   1.00
O1448  O     0.61542   0.88337   0.72959   0.00000  Uiso   1.00
O1449  O     0.50000   0.89345   0.79375   0.00000  Uiso   1.00
O1450  O     0.50000   0.77321   0.79372   0.00000  Uiso   1.00
O1451  O     0.50000   0.89346   0.87294   0.00000  Uiso   1.00
O1452  O     0.42495   0.83334   0.86379   0.00000  Uiso   1.00
O1453  O     0.57505   0.83333   0.80288   0.00000  Uiso   1.00
O1454  O     0.42494   0.83333   0.78460   0.00000  Uiso   1.00
O1455  O     0.57506   0.83334   0.88207   0.00000  Uiso   1.00
O1456  O     0.61352   0.70817   0.78193   0.00000  Uiso   1.00
C1457  C     0.83253   0.75431   0.83339   0.00000  Uiso   1.00
C1458  C     0.78795   0.68638   0.84198   0.00000  Uiso   1.00
C1459  C     0.83400   0.95707   0.83307   0.00000  Uiso   1.00
C1460  C     0.83267   0.70959   0.83359   0.00000  Uiso   1.00
C1461  C     0.79877   0.80864   0.68759   0.00000  Uiso   1.00
C1462  C     0.86789   0.85803   0.97907   0.00000  Uiso   1.00
C1463  C     0.79904   0.80844   0.97149   0.00000  Uiso   1.00
C1464  C     0.86762   0.85822   0.69518   0.00000  Uiso   1.00
C1465  C     0.92313   0.71638   0.81405   0.00000  Uiso   1.00
C1466  C     0.74353   0.95028   0.85261   0.00000  Uiso   1.00
C1467  C     0.92898   0.95954   0.82059   0.00000  Uiso   1.00
C1468  C     0.83413   0.91235   0.83327   0.00000  Uiso   1.00
C1469  C     0.73768   0.70713   0.84608   0.00000  Uiso   1.00
C1470  C     0.76146   0.78106   0.70819   0.00000  Uiso   1.00
C1471  C     0.90521   0.88560   0.95848   0.00000  Uiso   1.00
C1472  C     0.76434   0.77875   0.94319   0.00000  Uiso   1.00
C1473  C     0.90232   0.88792   0.72348   0.00000  Uiso   1.00
C1474  C     0.73474   0.83278   0.82141   0.00000  Uiso   1.00
C1475  C     0.93193   0.83389   0.84525   0.00000  Uiso   1.00
C1476  C     0.67941   0.83103   0.81507   0.00000  Uiso   1.00
C1477  C     0.98725   0.83564   0.85160   0.00000  Uiso   1.00
C1478  C     0.87747   0.69038   0.82388   0.00000  Uiso   1.00
C1479  C     0.78920   0.97628   0.84279   0.00000  Uiso   1.00
C1480  C     0.87871   0.98028   0.82469   0.00000  Uiso   1.00
Cu1481 Cu    0.83333   0.83334   0.88022   0.00000  Uiso   1.00
Cu1482 Cu    0.83333   0.83333   0.78645   0.00000  Uiso   1.00
H1483  H     0.99291   0.82527   0.78018   0.00000  Uiso   1.00
H1484  H     0.72708   0.70273   0.88173   0.00000  Uiso   1.00
H1485  H     0.77391   0.75296   0.72624   0.00000  Uiso   1.00
H1486  H     0.89277   0.91370   0.94042   0.00000  Uiso   1.00
H1487  H     0.77976   0.75140   0.92995   0.00000  Uiso   1.00
H1488  H     0.88690   0.91528   0.73670   0.00000  Uiso   1.00
H1489  H     0.67375   0.84140   0.88648   0.00000  Uiso   1.00
H1490  H     0.93445   0.74409   0.83429   0.00000  Uiso   1.00
H1491  H     0.73222   0.92257   0.83237   0.00000  Uiso   1.00
H1492  H     0.92792   0.92588   0.82811   0.00000  Uiso   1.00
H1493  H     0.93958   0.96394   0.78493   0.00000  Uiso   1.00
H1494  H     0.95999   0.97356   0.84614   0.00000  Uiso   1.00
H1495  H     0.73875   0.74079   0.83856   0.00000  Uiso   1.00
H1496  H     0.70668   0.69311   0.82053   0.00000  Uiso   1.00
N1497  N     0.83335   0.83334   0.95069   0.00000  Uiso   1.00
N1498  N     0.83332   0.83332   0.71597   0.00000  Uiso   1.00
O1499  O     0.83333   0.77322   0.87291   0.00000  Uiso   1.00
O1500  O     0.71981   0.95849   0.88474   0.00000  Uiso   1.00
O1501  O     0.71581   0.78886   0.70332   0.00000  Uiso   1.00
O1502  O     0.95086   0.87781   0.96336   0.00000  Uiso   1.00
O1503  O     0.71791   0.78330   0.93709   0.00000  Uiso   1.00
O1504  O     0.94875   0.88337   0.72959   0.00000  Uiso   1.00
O1505  O     0.83334   0.89345   0.79375   0.00000  Uiso   1.00
O1506  O     0.83333   0.77321   0.79372   0.00000  Uiso   1.00
O1507  O     0.83334   0.89346   0.87294   0.00000  Uiso   1.00
O1508  O     0.75828   0.83334   0.86379   0.00000  Uiso   1.00
O1509  O     0.90839   0.83333   0.80288   0.00000  Uiso   1.00
O1510  O     0.75828   0.83333   0.78460   0.00000  Uiso   1.00
O1511  O     0.90839   0.83334   0.88207   0.00000  Uiso   1.00
O1512  O     0.94685   0.70817   0.78193   0.00000  Uiso   1.00
loop_
_geom_bond_atom_site_label_1
_geom_bond_atom_site_label_2
_geom_bond_distance
_geom_bond_site_symmetry_2
_ccdc_geom_bond_type
C1     O50     1.296   .     A
C1     C4      1.445   .     S
C1     O43     1.298   .     A
C2     C4      1.412   .     A
C2     C13     1.519   .     S
C2     C359    1.405   1_545 S
C3     C23     1.410   .     A
C3     C24     1.412   .     A
C3     C12     1.445   .     S
C4     C22     1.410   .     A
C5     N42     1.374   .     A
C5     C14     1.476   .     S
C5     C1015   1.430   1_554 S
C6     C15     1.476   .     S
C6     N41     1.374   .     A
C6     C512    1.430   .     S
C7     C16     1.472   .     S
C7     N41     1.375   .     A
C7     C509    1.430   .     S
C8     C17     1.472   .     S
C8     N42     1.375   .     A
C8     C1014   1.430   1_554 S
C9     O56     1.220   .     D
C9     H34     1.085   .     S
C9     C22     1.491   .     S
C10    H35     1.085   .     S
C10    C23     1.491   .     S
C10    O44     1.220   .     D
C11    H38     1.109   .     S
C11    C24     1.519   .     S
C11    H37     1.108   .     S
C11    H36     1.107   .     S
C12    O49     1.298   .     A
C12    O51     1.296   .     A
C13    H28     1.108   .     S
C13    H39     1.107   .     S
C13    H40     1.109   .     S
C14    O45     1.221   .     D
C14    H29     1.082   .     S
C15    H30     1.082   .     S
C15    O46     1.221   .     D
C16    H31     1.080   .     S
C16    O47     1.220   .     D
C17    O48     1.220   .     D
C17    H32     1.080   .     S
C18    O52     1.296   .     A
C18    C20     1.435   .     S
C18    O54     1.298   .     A
C19    O53     1.296   .     A
C19    C21     1.435   .     S
C19    O55     1.298   .     A
C20    C133    1.334   1_455 S
C20    H139    1.086   1_455 S
C21    C76     1.334   .     S
C21    H89     1.086   .     S
C22    C360    1.405   1_545 S
C23    C170    1.405   .     S
C24    C190    1.405   .     S
Cu25   O51     1.952   .     S
Cu25   O52     1.960   .     S
Cu25   Cu26    2.710   .     S
Cu25   O43     1.956   .     S
Cu25   N41     2.037   .     S
Cu25   O55     1.959   .     S
Cu26   O50     1.952   .     S
Cu26   O54     1.959   .     S
Cu26   O53     1.960   .     S
Cu26   N42     2.037   .     S
Cu26   O49     1.956   .     S
H27    C76     1.086   .     S
H33    C133    1.086   1_455 S
C57    O106    1.296   .     A
C57    C60     1.445   .     S
C57    O99     1.298   .     A
C58    C60     1.412   .     A
C58    C69     1.519   .     S
C58    C415    1.405   1_545 S
C59    C79     1.410   .     A
C59    C80     1.412   .     A
C59    C68     1.445   .     S
C60    C78     1.410   .     A
C61    N98     1.374   .     A
C61    C70     1.476   .     S
C61    C1071   1.430   1_554 S
C62    C71     1.476   .     S
C62    N97     1.374   .     A
C62    C568    1.430   .     S
C63    C72     1.472   .     S
C63    N97     1.375   .     A
C63    C565    1.430   .     S
C64    C73     1.472   .     S
C64    N98     1.375   .     A
C64    C1070   1.430   1_554 S
C65    O112    1.220   .     D
C65    H90     1.085   .     S
C65    C78     1.491   .     S
C66    H91     1.085   .     S
C66    C79     1.491   .     S
C66    O100    1.220   .     D
C67    H94     1.109   .     S
C67    C80     1.519   .     S
C67    H93     1.108   .     S
C67    H92     1.107   .     S
C68    O105    1.298   .     A
C68    O107    1.296   .     A
C69    H84     1.108   .     S
C69    H95     1.107   .     S
C69    H96     1.109   .     S
C70    O101    1.221   .     D
C70    H85     1.082   .     S
C71    H86     1.082   .     S
C71    O102    1.221   .     D
C72    H87     1.080   .     S
C72    O103    1.220   .     D
C73    O104    1.220   .     D
C73    H88     1.080   .     S
C74    O108    1.296   .     A
C74    C76     1.435   .     S
C74    O110    1.298   .     A
C75    O109    1.296   .     A
C75    C77     1.435   .     S
C75    O111    1.298   .     A
C77    C132    1.334   .     S
C77    H145    1.086   .     S
C78    C416    1.405   1_545 S
C79    C226    1.405   .     S
C80    C246    1.405   .     S
Cu81   O107    1.952   .     S
Cu81   O108    1.960   .     S
Cu81   Cu82    2.710   .     S
Cu81   O99     1.956   .     S
Cu81   N97     2.037   .     S
Cu81   O111    1.959   .     S
Cu82   O106    1.952   .     S
Cu82   O110    1.959   .     S
Cu82   O109    1.960   .     S
Cu82   N98     2.037   .     S
Cu82   O105    1.956   .     S
H83    C132    1.086   .     S
C113   O162    1.296   .     A
C113   C116    1.445   .     S
C113   O155    1.298   .     A
C114   C116    1.412   .     A
C114   C125    1.519   .     S
C114   C471    1.405   1_545 S
C115   C135    1.410   .     A
C115   C136    1.412   .     A
C115   C124    1.445   .     S
C116   C134    1.410   .     A
C117   N154    1.374   .     A
C117   C126    1.476   .     S
C117   C1127   1.430   1_554 S
C118   C127    1.476   .     S
C118   N153    1.374   .     A
C118   C624    1.430   .     S
C119   C128    1.472   .     S
C119   N153    1.375   .     A
C119   C621    1.430   .     S
C120   C129    1.472   .     S
C120   N154    1.375   .     A
C120   C1126   1.430   1_554 S
C121   O168    1.220   .     D
C121   H146    1.085   .     S
C121   C134    1.491   .     S
C122   H147    1.085   .     S
C122   C135    1.491   .     S
C122   O156    1.220   .     D
C123   H150    1.109   .     S
C123   C136    1.519   .     S
C123   H149    1.108   .     S
C123   H148    1.107   .     S
C124   O161    1.298   .     A
C124   O163    1.296   .     A
C125   H140    1.108   .     S
C125   H151    1.107   .     S
C125   H152    1.109   .     S
C126   O157    1.221   .     D
C126   H141    1.082   .     S
C127   H142    1.082   .     S
C127   O158    1.221   .     D
C128   H143    1.080   .     S
C128   O159    1.220   .     D
C129   O160    1.220   .     D
C129   H144    1.080   .     S
C130   O164    1.296   .     A
C130   C132    1.435   .     S
C130   O166    1.298   .     A
C131   O165    1.296   .     A
C131   C133    1.435   .     S
C131   O167    1.298   .     A
C133   C20     1.334   1_655 S
C133   H33     1.086   1_655 S
C134   C472    1.405   1_545 S
C135   C282    1.405   .     S
C136   C302    1.405   .     S
Cu137  O163    1.952   .     S
Cu137  O164    1.960   .     S
Cu137  Cu138   2.710   .     S
Cu137  O155    1.956   .     S
Cu137  N153    2.037   .     S
Cu137  O167    1.959   .     S
Cu138  O162    1.952   .     S
Cu138  O166    1.959   .     S
Cu138  O165    1.960   .     S
Cu138  N154    2.037   .     S
Cu138  O161    1.956   .     S
H139   C20     1.086   1_655 S
C169   O218    1.296   .     A
C169   C172    1.445   .     S
C169   O211    1.298   .     A
C170   C172    1.412   .     A
C170   C181    1.519   .     S
C171   C191    1.410   .     A
C171   C192    1.412   .     A
C171   C180    1.445   .     S
C172   C190    1.410   .     A
C173   N210    1.374   .     A
C173   C182    1.476   .     S
C173   C1183   1.430   1_554 S
C174   C183    1.476   .     S
C174   N209    1.374   .     A
C174   C680    1.430   .     S
C175   C184    1.472   .     S
C175   N209    1.375   .     A
C175   C677    1.430   .     S
C176   C185    1.472   .     S
C176   N210    1.375   .     A
C176   C1182   1.430   1_554 S
C177   O224    1.220   .     D
C177   H202    1.085   .     S
C177   C190    1.491   .     S
C178   H203    1.085   .     S
C178   C191    1.491   .     S
C178   O212    1.220   .     D
C179   H206    1.109   .     S
C179   C192    1.519   .     S
C179   H205    1.108   .     S
C179   H204    1.107   .     S
C180   O217    1.298   .     A
C180   O219    1.296   .     A
C181   H196    1.108   .     S
C181   H207    1.107   .     S
C181   H208    1.109   .     S
C182   O213    1.221   .     D
C182   H197    1.082   .     S
C183   H198    1.082   .     S
C183   O214    1.221   .     D
C184   H199    1.080   .     S
C184   O215    1.220   .     D
C185   O216    1.220   .     D
C185   H200    1.080   .     S
C186   O220    1.296   .     A
C186   C188    1.435   .     S
C186   O222    1.298   .     A
C187   O221    1.296   .     A
C187   C189    1.435   .     S
C187   O223    1.298   .     A
C188   C301    1.334   1_455 S
C188   H307    1.086   1_455 S
C189   C244    1.334   .     S
C189   H257    1.086   .     S
C191   C338    1.405   .     S
C192   C358    1.405   .     S
Cu193  O219    1.952   .     S
Cu193  O220    1.960   .     S
Cu193  Cu194   2.710   .     S
Cu193  O211    1.956   .     S
Cu193  N209    2.037   .     S
Cu193  O223    1.959   .     S
Cu194  O218    1.952   .     S
Cu194  O222    1.959   .     S
Cu194  O221    1.960   .     S
Cu194  N210    2.037   .     S
Cu194  O217    1.956   .     S
H195   C244    1.086   .     S
H201   C301    1.086   1_455 S
C225   O274    1.296   .     A
C225   C228    1.445   .     S
C225   O267    1.298   .     A
C226   C228    1.412   .     A
C226   C237    1.519   .     S
C227   C247    1.410   .     A
C227   C248    1.412   .     A
C227   C236    1.445   .     S
C228   C246    1.410   .     A
C229   N266    1.374   .     A
C229   C238    1.476   .     S
C229   C1239   1.430   1_554 S
C230   C239    1.476   .     S
C230   N265    1.374   .     A
C230   C736    1.430   .     S
C231   C240    1.472   .     S
C231   N265    1.375   .     A
C231   C733    1.430   .     S
C232   C241    1.472   .     S
C232   N266    1.375   .     A
C232   C1238   1.430   1_554 S
C233   O280    1.220   .     D
C233   H258    1.085   .     S
C233   C246    1.491   .     S
C234   H259    1.085   .     S
C234   C247    1.491   .     S
C234   O268    1.220   .     D
C235   H262    1.109   .     S
C235   C248    1.519   .     S
C235   H261    1.108   .     S
C235   H260    1.107   .     S
C236   O273    1.298   .     A
C236   O275    1.296   .     A
C237   H252    1.108   .     S
C237   H263    1.107   .     S
C237   H264    1.109   .     S
C238   O269    1.221   .     D
C238   H253    1.082   .     S
C239   H254    1.082   .     S
C239   O270    1.221   .     D
C240   H255    1.080   .     S
C240   O271    1.220   .     D
C241   O272    1.220   .     D
C241   H256    1.080   .     S
C242   O276    1.296   .     A
C242   C244    1.435   .     S
C242   O278    1.298   .     A
C243   O277    1.296   .     A
C243   C245    1.435   .     S
C243   O279    1.298   .     A
C245   C300    1.334   .     S
C245   H313    1.086   .     S
C247   C394    1.405   .     S
C248   C414    1.405   .     S
Cu249  O275    1.952   .     S
Cu249  O276    1.960   .     S
Cu249  Cu250   2.710   .     S
Cu249  O267    1.956   .     S
Cu249  N265    2.037   .     S
Cu249  O279    1.959   .     S
Cu250  O274    1.952   .     S
Cu250  O278    1.959   .     S
Cu250  O277    1.960   .     S
Cu250  N266    2.037   .     S
Cu250  O273    1.956   .     S
H251   C300    1.086   .     S
C281   O330    1.296   .     A
C281   C284    1.445   .     S
C281   O323    1.298   .     A
C282   C284    1.412   .     A
C282   C293    1.519   .     S
C283   C303    1.410   .     A
C283   C304    1.412   .     A
C283   C292    1.445   .     S
C284   C302    1.410   .     A
C285   N322    1.374   .     A
C285   C294    1.476   .     S
C285   C1295   1.430   1_554 S
C286   C295    1.476   .     S
C286   N321    1.374   .     A
C286   C792    1.430   .     S
C287   C296    1.472   .     S
C287   N321    1.375   .     A
C287   C789    1.430   .     S
C288   C297    1.472   .     S
C288   N322    1.375   .     A
C288   C1294   1.430   1_554 S
C289   O336    1.220   .     D
C289   H314    1.085   .     S
C289   C302    1.491   .     S
C290   H315    1.085   .     S
C290   C303    1.491   .     S
C290   O324    1.220   .     D
C291   H318    1.109   .     S
C291   C304    1.519   .     S
C291   H317    1.108   .     S
C291   H316    1.107   .     S
C292   O329    1.298   .     A
C292   O331    1.296   .     A
C293   H308    1.108   .     S
C293   H319    1.107   .     S
C293   H320    1.109   .     S
C294   O325    1.221   .     D
C294   H309    1.082   .     S
C295   H310    1.082   .     S
C295   O326    1.221   .     D
C296   H311    1.080   .     S
C296   O327    1.220   .     D
C297   O328    1.220   .     D
C297   H312    1.080   .     S
C298   O332    1.296   .     A
C298   C300    1.435   .     S
C298   O334    1.298   .     A
C299   O333    1.296   .     A
C299   C301    1.435   .     S
C299   O335    1.298   .     A
C301   C188    1.334   1_655 S
C301   H201    1.086   1_655 S
C303   C450    1.405   .     S
C304   C470    1.405   .     S
Cu305  O331    1.952   .     S
Cu305  O332    1.960   .     S
Cu305  Cu306   2.710   .     S
Cu305  O323    1.956   .     S
Cu305  N321    2.037   .     S
Cu305  O335    1.959   .     S
Cu306  O330    1.952   .     S
Cu306  O334    1.959   .     S
Cu306  O333    1.960   .     S
Cu306  N322    2.037   .     S
Cu306  O329    1.956   .     S
H307   C188    1.086   1_655 S
C337   O386    1.296   .     A
C337   C340    1.445   .     S
C337   O379    1.298   .     A
C338   C340    1.412   .     A
C338   C349    1.519   .     S
C339   C359    1.410   .     A
C339   C360    1.412   .     A
C339   C348    1.445   .     S
C340   C358    1.410   .     A
C341   N378    1.374   .     A
C341   C350    1.476   .     S
C341   C1351   1.430   1_554 S
C342   C351    1.476   .     S
C342   N377    1.374   .     A
C342   C848    1.430   .     S
C343   C352    1.472   .     S
C343   N377    1.375   .     A
C343   C845    1.430   .     S
C344   C353    1.472   .     S
C344   N378    1.375   .     A
C344   C1350   1.430   1_554 S
C345   O392    1.220   .     D
C345   H370    1.085   .     S
C345   C358    1.491   .     S
C346   H371    1.085   .     S
C346   C359    1.491   .     S
C346   O380    1.220   .     D
C347   H374    1.109   .     S
C347   C360    1.519   .     S
C347   H373    1.108   .     S
C347   H372    1.107   .     S
C348   O385    1.298   .     A
C348   O387    1.296   .     A
C349   H364    1.108   .     S
C349   H375    1.107   .     S
C349   H376    1.109   .     S
C350   O381    1.221   .     D
C350   H365    1.082   .     S
C351   H366    1.082   .     S
C351   O382    1.221   .     D
C352   H367    1.080   .     S
C352   O383    1.220   .     D
C353   O384    1.220   .     D
C353   H368    1.080   .     S
C354   O388    1.296   .     A
C354   C356    1.435   .     S
C354   O390    1.298   .     A
C355   O389    1.296   .     A
C355   C357    1.435   .     S
C355   O391    1.298   .     A
C356   C469    1.334   1_455 S
C356   H475    1.086   1_455 S
C357   C412    1.334   .     S
C357   H425    1.086   .     S
C359   C2      1.405   1_565 S
C360   C22     1.405   1_565 S
Cu361  O387    1.952   .     S
Cu361  O388    1.960   .     S
Cu361  Cu362   2.710   .     S
Cu361  O379    1.956   .     S
Cu361  N377    2.037   .     S
Cu361  O391    1.959   .     S
Cu362  O386    1.952   .     S
Cu362  O390    1.959   .     S
Cu362  O389    1.960   .     S
Cu362  N378    2.037   .     S
Cu362  O385    1.956   .     S
H363   C412    1.086   .     S
H369   C469    1.086   1_455 S
C393   O442    1.296   .     A
C393   C396    1.445   .     S
C393   O435    1.298   .     A
C394   C396    1.412   .     A
C394   C405    1.519   .     S
C395   C415    1.410   .     A
C395   C416    1.412   .     A
C395   C404    1.445   .     S
C396   C414    1.410   .     A
C397   N434    1.374   .     A
C397   C406    1.476   .     S
C397   C1407   1.430   1_554 S
C398   C407    1.476   .     S
C398   N433    1.374   .     A
C398   C904    1.430   .     S
C399   C408    1.472   .     S
C399   N433    1.375   .     A
C399   C901    1.430   .     S
C400   C409    1.472   .     S
C400   N434    1.375   .     A
C400   C1406   1.430   1_554 S
C401   O448    1.220   .     D
C401   H426    1.085   .     S
C401   C414    1.491   .     S
C402   H427    1.085   .     S
C402   C415    1.491   .     S
C402   O436    1.220   .     D
C403   H430    1.109   .     S
C403   C416    1.519   .     S
C403   H429    1.108   .     S
C403   H428    1.107   .     S
C404   O441    1.298   .     A
C404   O443    1.296   .     A
C405   H420    1.108   .     S
C405   H431    1.107   .     S
C405   H432    1.109   .     S
C406   O437    1.221   .     D
C406   H421    1.082   .     S
C407   H422    1.082   .     S
C407   O438    1.221   .     D
C408   H423    1.080   .     S
C408   O439    1.220   .     D
C409   O440    1.220   .     D
C409   H424    1.080   .     S
C410   O444    1.296   .     A
C410   C412    1.435   .     S
C410   O446    1.298   .     A
C411   O445    1.296   .     A
C411   C413    1.435   .     S
C411   O447    1.298   .     A
C413   C468    1.334   .     S
C413   H481    1.086   .     S
C415   C58     1.405   1_565 S
C416   C78     1.405   1_565 S
Cu417  O443    1.952   .     S
Cu417  O444    1.960   .     S
Cu417  Cu418   2.710   .     S
Cu417  O435    1.956   .     S
Cu417  N433    2.037   .     S
Cu417  O447    1.959   .     S
Cu418  O442    1.952   .     S
Cu418  O446    1.959   .     S
Cu418  O445    1.960   .     S
Cu418  N434    2.037   .     S
Cu418  O441    1.956   .     S
H419   C468    1.086   .     S
C449   O498    1.296   .     A
C449   C452    1.445   .     S
C449   O491    1.298   .     A
C450   C452    1.412   .     A
C450   C461    1.519   .     S
C451   C471    1.410   .     A
C451   C472    1.412   .     A
C451   C460    1.445   .     S
C452   C470    1.410   .     A
C453   N490    1.374   .     A
C453   C462    1.476   .     S
C453   C1463   1.430   1_554 S
C454   C463    1.476   .     S
C454   N489    1.374   .     A
C454   C960    1.430   .     S
C455   C464    1.472   .     S
C455   N489    1.375   .     A
C455   C957    1.430   .     S
C456   C465    1.472   .     S
C456   N490    1.375   .     A
C456   C1462   1.430   1_554 S
C457   O504    1.220   .     D
C457   H482    1.085   .     S
C457   C470    1.491   .     S
C458   H483    1.085   .     S
C458   C471    1.491   .     S
C458   O492    1.220   .     D
C459   H486    1.109   .     S
C459   C472    1.519   .     S
C459   H485    1.108   .     S
C459   H484    1.107   .     S
C460   O497    1.298   .     A
C460   O499    1.296   .     A
C461   H476    1.108   .     S
C461   H487    1.107   .     S
C461   H488    1.109   .     S
C462   O493    1.221   .     D
C462   H477    1.082   .     S
C463   H478    1.082   .     S
C463   O494    1.221   .     D
C464   H479    1.080   .     S
C464   O495    1.220   .     D
C465   O496    1.220   .     D
C465   H480    1.080   .     S
C466   O500    1.296   .     A
C466   C468    1.435   .     S
C466   O502    1.298   .     A
C467   O501    1.296   .     A
C467   C469    1.435   .     S
C467   O503    1.298   .     A
C469   C356    1.334   1_655 S
C469   H369    1.086   1_655 S
C471   C114    1.405   1_565 S
C472   C134    1.405   1_565 S
Cu473  O499    1.952   .     S
Cu473  O500    1.960   .     S
Cu473  Cu474   2.710   .     S
Cu473  O491    1.956   .     S
Cu473  N489    2.037   .     S
Cu473  O503    1.959   .     S
Cu474  O498    1.952   .     S
Cu474  O502    1.959   .     S
Cu474  O501    1.960   .     S
Cu474  N490    2.037   .     S
Cu474  O497    1.956   .     S
H475   C356    1.086   1_655 S
C505   O554    1.296   .     A
C505   C508    1.445   .     S
C505   O547    1.298   .     A
C506   C508    1.412   .     A
C506   C517    1.519   .     S
C506   C863    1.405   1_545 S
C507   C527    1.410   .     A
C507   C528    1.412   .     A
C507   C516    1.445   .     S
C508   C526    1.410   .     A
C509   N546    1.374   .     A
C509   C518    1.476   .     S
C510   C519    1.476   .     S
C510   N545    1.374   .     A
C510   C1016   1.430   .     S
C511   C520    1.472   .     S
C511   N545    1.375   .     A
C511   C1013   1.430   .     S
C512   C521    1.472   .     S
C512   N546    1.375   .     A
C513   O560    1.220   .     D
C513   H538    1.085   .     S
C513   C526    1.491   .     S
C514   H539    1.085   .     S
C514   C527    1.491   .     S
C514   O548    1.220   .     D
C515   H542    1.109   .     S
C515   C528    1.519   .     S
C515   H541    1.108   .     S
C515   H540    1.107   .     S
C516   O553    1.298   .     A
C516   O555    1.296   .     A
C517   H532    1.108   .     S
C517   H543    1.107   .     S
C517   H544    1.109   .     S
C518   O549    1.221   .     D
C518   H533    1.082   .     S
C519   H534    1.082   .     S
C519   O550    1.221   .     D
C520   H535    1.080   .     S
C520   O551    1.220   .     D
C521   O552    1.220   .     D
C521   H536    1.080   .     S
C522   O556    1.296   .     A
C522   C524    1.435   .     S
C522   O558    1.298   .     A
C523   O557    1.296   .     A
C523   C525    1.435   .     S
C523   O559    1.298   .     A
C524   C637    1.334   1_455 S
C524   H643    1.086   1_455 S
C525   C580    1.334   .     S
C525   H593    1.086   .     S
C526   C864    1.405   1_545 S
C527   C674    1.405   .     S
C528   C694    1.405   .     S
Cu529  O555    1.952   .     S
Cu529  O556    1.960   .     S
Cu529  Cu530   2.710   .     S
Cu529  O547    1.956   .     S
Cu529  N545    2.037   .     S
Cu529  O559    1.959   .     S
Cu530  O554    1.952   .     S
Cu530  O558    1.959   .     S
Cu530  O557    1.960   .     S
Cu530  N546    2.037   .     S
Cu530  O553    1.956   .     S
H531   C580    1.086   .     S
H537   C637    1.086   1_455 S
C561   O610    1.296   .     A
C561   C564    1.445   .     S
C561   O603    1.298   .     A
C562   C564    1.412   .     A
C562   C573    1.519   .     S
C562   C919    1.405   1_545 S
C563   C583    1.410   .     A
C563   C584    1.412   .     A
C563   C572    1.445   .     S
C564   C582    1.410   .     A
C565   N602    1.374   .     A
C565   C574    1.476   .     S
C566   C575    1.476   .     S
C566   N601    1.374   .     A
C566   C1072   1.430   .     S
C567   C576    1.472   .     S
C567   N601    1.375   .     A
C567   C1069   1.430   .     S
C568   C577    1.472   .     S
C568   N602    1.375   .     A
C569   O616    1.220   .     D
C569   H594    1.085   .     S
C569   C582    1.491   .     S
C570   H595    1.085   .     S
C570   C583    1.491   .     S
C570   O604    1.220   .     D
C571   H598    1.109   .     S
C571   C584    1.519   .     S
C571   H597    1.108   .     S
C571   H596    1.107   .     S
C572   O609    1.298   .     A
C572   O611    1.296   .     A
C573   H588    1.108   .     S
C573   H599    1.107   .     S
C573   H600    1.109   .     S
C574   O605    1.221   .     D
C574   H589    1.082   .     S
C575   H590    1.082   .     S
C575   O606    1.221   .     D
C576   H591    1.080   .     S
C576   O607    1.220   .     D
C577   O608    1.220   .     D
C577   H592    1.080   .     S
C578   O612    1.296   .     A
C578   C580    1.435   .     S
C578   O614    1.298   .     A
C579   O613    1.296   .     A
C579   C581    1.435   .     S
C579   O615    1.298   .     A
C581   C636    1.334   .     S
C581   H649    1.086   .     S
C582   C920    1.405   1_545 S
C583   C730    1.405   .     S
C584   C750    1.405   .     S
Cu585  O611    1.952   .     S
Cu585  O612    1.960   .     S
Cu585  Cu586   2.710   .     S
Cu585  O603    1.956   .     S
Cu585  N601    2.037   .     S
Cu585  O615    1.959   .     S
Cu586  O610    1.952   .     S
Cu586  O614    1.959   .     S
Cu586  O613    1.960   .     S
Cu586  N602    2.037   .     S
Cu586  O609    1.956   .     S
H587   C636    1.086   .     S
C617   O666    1.296   .     A
C617   C620    1.445   .     S
C617   O659    1.298   .     A
C618   C620    1.412   .     A
C618   C629    1.519   .     S
C618   C975    1.405   1_545 S
C619   C639    1.410   .     A
C619   C640    1.412   .     A
C619   C628    1.445   .     S
C620   C638    1.410   .     A
C621   N658    1.374   .     A
C621   C630    1.476   .     S
C622   C631    1.476   .     S
C622   N657    1.374   .     A
C622   C1128   1.430   .     S
C623   C632    1.472   .     S
C623   N657    1.375   .     A
C623   C1125   1.430   .     S
C624   C633    1.472   .     S
C624   N658    1.375   .     A
C625   O672    1.220   .     D
C625   H650    1.085   .     S
C625   C638    1.491   .     S
C626   H651    1.085   .     S
C626   C639    1.491   .     S
C626   O660    1.220   .     D
C627   H654    1.109   .     S
C627   C640    1.519   .     S
C627   H653    1.108   .     S
C627   H652    1.107   .     S
C628   O665    1.298   .     A
C628   O667    1.296   .     A
C629   H644    1.108   .     S
C629   H655    1.107   .     S
C629   H656    1.109   .     S
C630   O661    1.221   .     D
C630   H645    1.082   .     S
C631   H646    1.082   .     S
C631   O662    1.221   .     D
C632   H647    1.080   .     S
C632   O663    1.220   .     D
C633   O664    1.220   .     D
C633   H648    1.080   .     S
C634   O668    1.296   .     A
C634   C636    1.435   .     S
C634   O670    1.298   .     A
C635   O669    1.296   .     A
C635   C637    1.435   .     S
C635   O671    1.298   .     A
C637   C524    1.334   1_655 S
C637   H537    1.086   1_655 S
C638   C976    1.405   1_545 S
C639   C786    1.405   .     S
C640   C806    1.405   .     S
Cu641  O667    1.952   .     S
Cu641  O668    1.960   .     S
Cu641  Cu642   2.710   .     S
Cu641  O659    1.956   .     S
Cu641  N657    2.037   .     S
Cu641  O671    1.959   .     S
Cu642  O666    1.952   .     S
Cu642  O670    1.959   .     S
Cu642  O669    1.960   .     S
Cu642  N658    2.037   .     S
Cu642  O665    1.956   .     S
H643   C524    1.086   1_655 S
C673   O722    1.296   .     A
C673   C676    1.445   .     S
C673   O715    1.298   .     A
C674   C676    1.412   .     A
C674   C685    1.519   .     S
C675   C695    1.410   .     A
C675   C696    1.412   .     A
C675   C684    1.445   .     S
C676   C694    1.410   .     A
C677   N714    1.374   .     A
C677   C686    1.476   .     S
C678   C687    1.476   .     S
C678   N713    1.374   .     A
C678   C1184   1.430   .     S
C679   C688    1.472   .     S
C679   N713    1.375   .     A
C679   C1181   1.430   .     S
C680   C689    1.472   .     S
C680   N714    1.375   .     A
C681   O728    1.220   .     D
C681   H706    1.085   .     S
C681   C694    1.491   .     S
C682   H707    1.085   .     S
C682   C695    1.491   .     S
C682   O716    1.220   .     D
C683   H710    1.109   .     S
C683   C696    1.519   .     S
C683   H709    1.108   .     S
C683   H708    1.107   .     S
C684   O721    1.298   .     A
C684   O723    1.296   .     A
C685   H700    1.108   .     S
C685   H711    1.107   .     S
C685   H712    1.109   .     S
C686   O717    1.221   .     D
C686   H701    1.082   .     S
C687   H702    1.082   .     S
C687   O718    1.221   .     D
C688   H703    1.080   .     S
C688   O719    1.220   .     D
C689   O720    1.220   .     D
C689   H704    1.080   .     S
C690   O724    1.296   .     A
C690   C692    1.435   .     S
C690   O726    1.298   .     A
C691   O725    1.296   .     A
C691   C693    1.435   .     S
C691   O727    1.298   .     A
C692   C805    1.334   1_455 S
C692   H811    1.086   1_455 S
C693   C748    1.334   .     S
C693   H761    1.086   .     S
C695   C842    1.405   .     S
C696   C862    1.405   .     S
Cu697  O723    1.952   .     S
Cu697  O724    1.960   .     S
Cu697  Cu698   2.710   .     S
Cu697  O715    1.956   .     S
Cu697  N713    2.037   .     S
Cu697  O727    1.959   .     S
Cu698  O722    1.952   .     S
Cu698  O726    1.959   .     S
Cu698  O725    1.960   .     S
Cu698  N714    2.037   .     S
Cu698  O721    1.956   .     S
H699   C748    1.086   .     S
H705   C805    1.086   1_455 S
C729   O778    1.296   .     A
C729   C732    1.445   .     S
C729   O771    1.298   .     A
C730   C732    1.412   .     A
C730   C741    1.519   .     S
C731   C751    1.410   .     A
C731   C752    1.412   .     A
C731   C740    1.445   .     S
C732   C750    1.410   .     A
C733   N770    1.374   .     A
C733   C742    1.476   .     S
C734   C743    1.476   .     S
C734   N769    1.374   .     A
C734   C1240   1.430   .     S
C735   C744    1.472   .     S
C735   N769    1.375   .     A
C735   C1237   1.430   .     S
C736   C745    1.472   .     S
C736   N770    1.375   .     A
C737   O784    1.220   .     D
C737   H762    1.085   .     S
C737   C750    1.491   .     S
C738   H763    1.085   .     S
C738   C751    1.491   .     S
C738   O772    1.220   .     D
C739   H766    1.109   .     S
C739   C752    1.519   .     S
C739   H765    1.108   .     S
C739   H764    1.107   .     S
C740   O777    1.298   .     A
C740   O779    1.296   .     A
C741   H756    1.108   .     S
C741   H767    1.107   .     S
C741   H768    1.109   .     S
C742   O773    1.221   .     D
C742   H757    1.082   .     S
C743   H758    1.082   .     S
C743   O774    1.221   .     D
C744   H759    1.080   .     S
C744   O775    1.220   .     D
C745   O776    1.220   .     D
C745   H760    1.080   .     S
C746   O780    1.296   .     A
C746   C748    1.435   .     S
C746   O782    1.298   .     A
C747   O781    1.296   .     A
C747   C749    1.435   .     S
C747   O783    1.298   .     A
C749   C804    1.334   .     S
C749   H817    1.086   .     S
C751   C898    1.405   .     S
C752   C918    1.405   .     S
Cu753  O779    1.952   .     S
Cu753  O780    1.960   .     S
Cu753  Cu754   2.710   .     S
Cu753  O771    1.956   .     S
Cu753  N769    2.037   .     S
Cu753  O783    1.959   .     S
Cu754  O778    1.952   .     S
Cu754  O782    1.959   .     S
Cu754  O781    1.960   .     S
Cu754  N770    2.037   .     S
Cu754  O777    1.956   .     S
H755   C804    1.086   .     S
C785   O834    1.296   .     A
C785   C788    1.445   .     S
C785   O827    1.298   .     A
C786   C788    1.412   .     A
C786   C797    1.519   .     S
C787   C807    1.410   .     A
C787   C808    1.412   .     A
C787   C796    1.445   .     S
C788   C806    1.410   .     A
C789   N826    1.374   .     A
C789   C798    1.476   .     S
C790   C799    1.476   .     S
C790   N825    1.374   .     A
C790   C1296   1.430   .     S
C791   C800    1.472   .     S
C791   N825    1.375   .     A
C791   C1293   1.430   .     S
C792   C801    1.472   .     S
C792   N826    1.375   .     A
C793   O840    1.220   .     D
C793   H818    1.085   .     S
C793   C806    1.491   .     S
C794   H819    1.085   .     S
C794   C807    1.491   .     S
C794   O828    1.220   .     D
C795   H822    1.109   .     S
C795   C808    1.519   .     S
C795   H821    1.108   .     S
C795   H820    1.107   .     S
C796   O833    1.298   .     A
C796   O835    1.296   .     A
C797   H812    1.108   .     S
C797   H823    1.107   .     S
C797   H824    1.109   .     S
C798   O829    1.221   .     D
C798   H813    1.082   .     S
C799   H814    1.082   .     S
C799   O830    1.221   .     D
C800   H815    1.080   .     S
C800   O831    1.220   .     D
C801   O832    1.220   .     D
C801   H816    1.080   .     S
C802   O836    1.296   .     A
C802   C804    1.435   .     S
C802   O838    1.298   .     A
C803   O837    1.296   .     A
C803   C805    1.435   .     S
C803   O839    1.298   .     A
C805   C692    1.334   1_655 S
C805   H705    1.086   1_655 S
C807   C954    1.405   .     S
C808   C974    1.405   .     S
Cu809  O835    1.952   .     S
Cu809  O836    1.960   .     S
Cu809  Cu810   2.710   .     S
Cu809  O827    1.956   .     S
Cu809  N825    2.037   .     S
Cu809  O839    1.959   .     S
Cu810  O834    1.952   .     S
Cu810  O838    1.959   .     S
Cu810  O837    1.960   .     S
Cu810  N826    2.037   .     S
Cu810  O833    1.956   .     S
H811   C692    1.086   1_655 S
C841   O890    1.296   .     A
C841   C844    1.445   .     S
C841   O883    1.298   .     A
C842   C844    1.412   .     A
C842   C853    1.519   .     S
C843   C863    1.410   .     A
C843   C864    1.412   .     A
C843   C852    1.445   .     S
C844   C862    1.410   .     A
C845   N882    1.374   .     A
C845   C854    1.476   .     S
C846   C855    1.476   .     S
C846   N881    1.374   .     A
C846   C1352   1.430   .     S
C847   C856    1.472   .     S
C847   N881    1.375   .     A
C847   C1349   1.430   .     S
C848   C857    1.472   .     S
C848   N882    1.375   .     A
C849   O896    1.220   .     D
C849   H874    1.085   .     S
C849   C862    1.491   .     S
C850   H875    1.085   .     S
C850   C863    1.491   .     S
C850   O884    1.220   .     D
C851   H878    1.109   .     S
C851   C864    1.519   .     S
C851   H877    1.108   .     S
C851   H876    1.107   .     S
C852   O889    1.298   .     A
C852   O891    1.296   .     A
C853   H868    1.108   .     S
C853   H879    1.107   .     S
C853   H880    1.109   .     S
C854   O885    1.221   .     D
C854   H869    1.082   .     S
C855   H870    1.082   .     S
C855   O886    1.221   .     D
C856   H871    1.080   .     S
C856   O887    1.220   .     D
C857   O888    1.220   .     D
C857   H872    1.080   .     S
C858   O892    1.296   .     A
C858   C860    1.435   .     S
C858   O894    1.298   .     A
C859   O893    1.296   .     A
C859   C861    1.435   .     S
C859   O895    1.298   .     A
C860   C973    1.334   1_455 S
C860   H979    1.086   1_455 S
C861   C916    1.334   .     S
C861   H929    1.086   .     S
C863   C506    1.405   1_565 S
C864   C526    1.405   1_565 S
Cu865  O891    1.952   .     S
Cu865  O892    1.960   .     S
Cu865  Cu866   2.710   .     S
Cu865  O883    1.956   .     S
Cu865  N881    2.037   .     S
Cu865  O895    1.959   .     S
Cu866  O890    1.952   .     S
Cu866  O894    1.959   .     S
Cu866  O893    1.960   .     S
Cu866  N882    2.037   .     S
Cu866  O889    1.956   .     S
H867   C916    1.086   .     S
H873   C973    1.086   1_455 S
C897   O946    1.296   .     A
C897   C900    1.445   .     S
C897   O939    1.298   .     A
C898   C900    1.412   .     A
C898   C909    1.519   .     S
C899   C919    1.410   .     A
C899   C920    1.412   .     A
C899   C908    1.445   .     S
C900   C918    1.410   .     A
C901   N938    1.374   .     A
C901   C910    1.476   .     S
C902   C911    1.476   .     S
C902   N937    1.374   .     A
C902   C1408   1.430   .     S
C903   C912    1.472   .     S
C903   N937    1.375   .     A
C903   C1405   1.430   .     S
C904   C913    1.472   .     S
C904   N938    1.375   .     A
C905   O952    1.220   .     D
C905   H930    1.085   .     S
C905   C918    1.491   .     S
C906   H931    1.085   .     S
C906   C919    1.491   .     S
C906   O940    1.220   .     D
C907   H934    1.109   .     S
C907   C920    1.519   .     S
C907   H933    1.108   .     S
C907   H932    1.107   .     S
C908   O945    1.298   .     A
C908   O947    1.296   .     A
C909   H924    1.108   .     S
C909   H935    1.107   .     S
C909   H936    1.109   .     S
C910   O941    1.221   .     D
C910   H925    1.082   .     S
C911   H926    1.082   .     S
C911   O942    1.221   .     D
C912   H927    1.080   .     S
C912   O943    1.220   .     D
C913   O944    1.220   .     D
C913   H928    1.080   .     S
C914   O948    1.296   .     A
C914   C916    1.435   .     S
C914   O950    1.298   .     A
C915   O949    1.296   .     A
C915   C917    1.435   .     S
C915   O951    1.298   .     A
C917   C972    1.334   .     S
C917   H985    1.086   .     S
C919   C562    1.405   1_565 S
C920   C582    1.405   1_565 S
Cu921  O947    1.952   .     S
Cu921  O948    1.960   .     S
Cu921  Cu922   2.710   .     S
Cu921  O939    1.956   .     S
Cu921  N937    2.037   .     S
Cu921  O951    1.959   .     S
Cu922  O946    1.952   .     S
Cu922  O950    1.959   .     S
Cu922  O949    1.960   .     S
Cu922  N938    2.037   .     S
Cu922  O945    1.956   .     S
H923   C972    1.086   .     S
C953   O1002   1.296   .     A
C953   C956    1.445   .     S
C953   O995    1.298   .     A
C954   C956    1.412   .     A
C954   C965    1.519   .     S
C955   C975    1.410   .     A
C955   C976    1.412   .     A
C955   C964    1.445   .     S
C956   C974    1.410   .     A
C957   N994    1.374   .     A
C957   C966    1.476   .     S
C958   C967    1.476   .     S
C958   N993    1.374   .     A
C958   C1464   1.430   .     S
C959   C968    1.472   .     S
C959   N993    1.375   .     A
C959   C1461   1.430   .     S
C960   C969    1.472   .     S
C960   N994    1.375   .     A
C961   O1008   1.220   .     D
C961   H986    1.085   .     S
C961   C974    1.491   .     S
C962   H987    1.085   .     S
C962   C975    1.491   .     S
C962   O996    1.220   .     D
C963   H990    1.109   .     S
C963   C976    1.519   .     S
C963   H989    1.108   .     S
C963   H988    1.107   .     S
C964   O1001   1.298   .     A
C964   O1003   1.296   .     A
C965   H980    1.108   .     S
C965   H991    1.107   .     S
C965   H992    1.109   .     S
C966   O997    1.221   .     D
C966   H981    1.082   .     S
C967   H982    1.082   .     S
C967   O998    1.221   .     D
C968   H983    1.080   .     S
C968   O999    1.220   .     D
C969   O1000   1.220   .     D
C969   H984    1.080   .     S
C970   O1004   1.296   .     A
C970   C972    1.435   .     S
C970   O1006   1.298   .     A
C971   O1005   1.296   .     A
C971   C973    1.435   .     S
C971   O1007   1.298   .     A
C973   C860    1.334   1_655 S
C973   H873    1.086   1_655 S
C975   C618    1.405   1_565 S
C976   C638    1.405   1_565 S
Cu977  O1003   1.952   .     S
Cu977  O1004   1.960   .     S
Cu977  Cu978   2.710   .     S
Cu977  O995    1.956   .     S
Cu977  N993    2.037   .     S
Cu977  O1007   1.959   .     S
Cu978  O1002   1.952   .     S
Cu978  O1006   1.959   .     S
Cu978  O1005   1.960   .     S
Cu978  N994    2.037   .     S
Cu978  O1001   1.956   .     S
H979   C860    1.086   1_655 S
C1009  O1058   1.296   .     A
C1009  C1012   1.445   .     S
C1009  O1051   1.298   .     A
C1010  C1012   1.412   .     A
C1010  C1021   1.519   .     S
C1010  C1367   1.405   1_545 S
C1011  C1031   1.410   .     A
C1011  C1032   1.412   .     A
C1011  C1020   1.445   .     S
C1012  C1030   1.410   .     A
C1013  N1050   1.374   .     A
C1013  C1022   1.476   .     S
C1014  C1023   1.476   .     S
C1014  N1049   1.374   .     A
C1014  C8      1.430   1_556 S
C1015  C1024   1.472   .     S
C1015  N1049   1.375   .     A
C1015  C5      1.430   1_556 S
C1016  C1025   1.472   .     S
C1016  N1050   1.375   .     A
C1017  O1064   1.220   .     D
C1017  H1042   1.085   .     S
C1017  C1030   1.491   .     S
C1018  H1043   1.085   .     S
C1018  C1031   1.491   .     S
C1018  O1052   1.220   .     D
C1019  H1046   1.109   .     S
C1019  C1032   1.519   .     S
C1019  H1045   1.108   .     S
C1019  H1044   1.107   .     S
C1020  O1057   1.298   .     A
C1020  O1059   1.296   .     A
C1021  H1036   1.108   .     S
C1021  H1047   1.107   .     S
C1021  H1048   1.109   .     S
C1022  O1053   1.221   .     D
C1022  H1037   1.082   .     S
C1023  H1038   1.082   .     S
C1023  O1054   1.221   .     D
C1024  H1039   1.080   .     S
C1024  O1055   1.220   .     D
C1025  O1056   1.220   .     D
C1025  H1040   1.080   .     S
C1026  O1060   1.296   .     A
C1026  C1028   1.435   .     S
C1026  O1062   1.298   .     A
C1027  O1061   1.296   .     A
C1027  C1029   1.435   .     S
C1027  O1063   1.298   .     A
C1028  C1141   1.334   1_455 S
C1028  H1147   1.086   1_455 S
C1029  C1084   1.334   .     S
C1029  H1097   1.086   .     S
C1030  C1368   1.405   1_545 S
C1031  C1178   1.405   .     S
C1032  C1198   1.405   .     S
Cu1033 O1059   1.952   .     S
Cu1033 O1060   1.960   .     S
Cu1033 Cu1034  2.710   .     S
Cu1033 O1051   1.956   .     S
Cu1033 N1049   2.037   .     S
Cu1033 O1063   1.959   .     S
Cu1034 O1058   1.952   .     S
Cu1034 O1062   1.959   .     S
Cu1034 O1061   1.960   .     S
Cu1034 N1050   2.037   .     S
Cu1034 O1057   1.956   .     S
H1035  C1084   1.086   .     S
H1041  C1141   1.086   1_455 S
C1065  O1114   1.296   .     A
C1065  C1068   1.445   .     S
C1065  O1107   1.298   .     A
C1066  C1068   1.412   .     A
C1066  C1077   1.519   .     S
C1066  C1423   1.405   1_545 S
C1067  C1087   1.410   .     A
C1067  C1088   1.412   .     A
C1067  C1076   1.445   .     S
C1068  C1086   1.410   .     A
C1069  N1106   1.374   .     A
C1069  C1078   1.476   .     S
C1070  C1079   1.476   .     S
C1070  N1105   1.374   .     A
C1070  C64     1.430   1_556 S
C1071  C1080   1.472   .     S
C1071  N1105   1.375   .     A
C1071  C61     1.430   1_556 S
C1072  C1081   1.472   .     S
C1072  N1106   1.375   .     A
C1073  O1120   1.220   .     D
C1073  H1098   1.085   .     S
C1073  C1086   1.491   .     S
C1074  H1099   1.085   .     S
C1074  C1087   1.491   .     S
C1074  O1108   1.220   .     D
C1075  H1102   1.109   .     S
C1075  C1088   1.519   .     S
C1075  H1101   1.108   .     S
C1075  H1100   1.107   .     S
C1076  O1113   1.298   .     A
C1076  O1115   1.296   .     A
C1077  H1092   1.108   .     S
C1077  H1103   1.107   .     S
C1077  H1104   1.109   .     S
C1078  O1109   1.221   .     D
C1078  H1093   1.082   .     S
C1079  H1094   1.082   .     S
C1079  O1110   1.221   .     D
C1080  H1095   1.080   .     S
C1080  O1111   1.220   .     D
C1081  O1112   1.220   .     D
C1081  H1096   1.080   .     S
C1082  O1116   1.296   .     A
C1082  C1084   1.435   .     S
C1082  O1118   1.298   .     A
C1083  O1117   1.296   .     A
C1083  C1085   1.435   .     S
C1083  O1119   1.298   .     A
C1085  C1140   1.334   .     S
C1085  H1153   1.086   .     S
C1086  C1424   1.405   1_545 S
C1087  C1234   1.405   .     S
C1088  C1254   1.405   .     S
Cu1089 O1115   1.952   .     S
Cu1089 O1116   1.960   .     S
Cu1089 Cu1090  2.710   .     S
Cu1089 O1107   1.956   .     S
Cu1089 N1105   2.037   .     S
Cu1089 O1119   1.959   .     S
Cu1090 O1114   1.952   .     S
Cu1090 O1118   1.959   .     S
Cu1090 O1117   1.960   .     S
Cu1090 N1106   2.037   .     S
Cu1090 O1113   1.956   .     S
H1091  C1140   1.086   .     S
C1121  O1170   1.296   .     A
C1121  C1124   1.445   .     S
C1121  O1163   1.298   .     A
C1122  C1124   1.412   .     A
C1122  C1133   1.519   .     S
C1122  C1479   1.405   1_545 S
C1123  C1143   1.410   .     A
C1123  C1144   1.412   .     A
C1123  C1132   1.445   .     S
C1124  C1142   1.410   .     A
C1125  N1162   1.374   .     A
C1125  C1134   1.476   .     S
C1126  C1135   1.476   .     S
C1126  N1161   1.374   .     A
C1126  C120    1.430   1_556 S
C1127  C1136   1.472   .     S
C1127  N1161   1.375   .     A
C1127  C117    1.430   1_556 S
C1128  C1137   1.472   .     S
C1128  N1162   1.375   .     A
C1129  O1176   1.220   .     D
C1129  H1154   1.085   .     S
C1129  C1142   1.491   .     S
C1130  H1155   1.085   .     S
C1130  C1143   1.491   .     S
C1130  O1164   1.220   .     D
C1131  H1158   1.109   .     S
C1131  C1144   1.519   .     S
C1131  H1157   1.108   .     S
C1131  H1156   1.107   .     S
C1132  O1169   1.298   .     A
C1132  O1171   1.296   .     A
C1133  H1148   1.108   .     S
C1133  H1159   1.107   .     S
C1133  H1160   1.109   .     S
C1134  O1165   1.221   .     D
C1134  H1149   1.082   .     S
C1135  H1150   1.082   .     S
C1135  O1166   1.221   .     D
C1136  H1151   1.080   .     S
C1136  O1167   1.220   .     D
C1137  O1168   1.220   .     D
C1137  H1152   1.080   .     S
C1138  O1172   1.296   .     A
C1138  C1140   1.435   .     S
C1138  O1174   1.298   .     A
C1139  O1173   1.296   .     A
C1139  C1141   1.435   .     S
C1139  O1175   1.298   .     A
C1141  C1028   1.334   1_655 S
C1141  H1041   1.086   1_655 S
C1142  C1480   1.405   1_545 S
C1143  C1290   1.405   .     S
C1144  C1310   1.405   .     S
Cu1145 O1171   1.952   .     S
Cu1145 O1172   1.960   .     S
Cu1145 Cu1146  2.710   .     S
Cu1145 O1163   1.956   .     S
Cu1145 N1161   2.037   .     S
Cu1145 O1175   1.959   .     S
Cu1146 O1170   1.952   .     S
Cu1146 O1174   1.959   .     S
Cu1146 O1173   1.960   .     S
Cu1146 N1162   2.037   .     S
Cu1146 O1169   1.956   .     S
H1147  C1028   1.086   1_655 S
C1177  O1226   1.296   .     A
C1177  C1180   1.445   .     S
C1177  O1219   1.298   .     A
C1178  C1180   1.412   .     A
C1178  C1189   1.519   .     S
C1179  C1199   1.410   .     A
C1179  C1200   1.412   .     A
C1179  C1188   1.445   .     S
C1180  C1198   1.410   .     A
C1181  N1218   1.374   .     A
C1181  C1190   1.476   .     S
C1182  C1191   1.476   .     S
C1182  N1217   1.374   .     A
C1182  C176    1.430   1_556 S
C1183  C1192   1.472   .     S
C1183  N1217   1.375   .     A
C1183  C173    1.430   1_556 S
C1184  C1193   1.472   .     S
C1184  N1218   1.375   .     A
C1185  O1232   1.220   .     D
C1185  H1210   1.085   .     S
C1185  C1198   1.491   .     S
C1186  H1211   1.085   .     S
C1186  C1199   1.491   .     S
C1186  O1220   1.220   .     D
C1187  H1214   1.109   .     S
C1187  C1200   1.519   .     S
C1187  H1213   1.108   .     S
C1187  H1212   1.107   .     S
C1188  O1225   1.298   .     A
C1188  O1227   1.296   .     A
C1189  H1204   1.108   .     S
C1189  H1215   1.107   .     S
C1189  H1216   1.109   .     S
C1190  O1221   1.221   .     D
C1190  H1205   1.082   .     S
C1191  H1206   1.082   .     S
C1191  O1222   1.221   .     D
C1192  H1207   1.080   .     S
C1192  O1223   1.220   .     D
C1193  O1224   1.220   .     D
C1193  H1208   1.080   .     S
C1194  O1228   1.296   .     A
C1194  C1196   1.435   .     S
C1194  O1230   1.298   .     A
C1195  O1229   1.296   .     A
C1195  C1197   1.435   .     S
C1195  O1231   1.298   .     A
C1196  C1309   1.334   1_455 S
C1196  H1315   1.086   1_455 S
C1197  C1252   1.334   .     S
C1197  H1265   1.086   .     S
C1199  C1346   1.405   .     S
C1200  C1366   1.405   .     S
Cu1201 O1227   1.952   .     S
Cu1201 O1228   1.960   .     S
Cu1201 Cu1202  2.710   .     S
Cu1201 O1219   1.956   .     S
Cu1201 N1217   2.037   .     S
Cu1201 O1231   1.959   .     S
Cu1202 O1226   1.952   .     S
Cu1202 O1230   1.959   .     S
Cu1202 O1229   1.960   .     S
Cu1202 N1218   2.037   .     S
Cu1202 O1225   1.956   .     S
H1203  C1252   1.086   .     S
H1209  C1309   1.086   1_455 S
C1233  O1282   1.296   .     A
C1233  C1236   1.445   .     S
C1233  O1275   1.298   .     A
C1234  C1236   1.412   .     A
C1234  C1245   1.519   .     S
C1235  C1255   1.410   .     A
C1235  C1256   1.412   .     A
C1235  C1244   1.445   .     S
C1236  C1254   1.410   .     A
C1237  N1274   1.374   .     A
C1237  C1246   1.476   .     S
C1238  C1247   1.476   .     S
C1238  N1273   1.374   .     A
C1238  C232    1.430   1_556 S
C1239  C1248   1.472   .     S
C1239  N1273   1.375   .     A
C1239  C229    1.430   1_556 S
C1240  C1249   1.472   .     S
C1240  N1274   1.375   .     A
C1241  O1288   1.220   .     D
C1241  H1266   1.085   .     S
C1241  C1254   1.491   .     S
C1242  H1267   1.085   .     S
C1242  C1255   1.491   .     S
C1242  O1276   1.220   .     D
C1243  H1270   1.109   .     S
C1243  C1256   1.519   .     S
C1243  H1269   1.108   .     S
C1243  H1268   1.107   .     S
C1244  O1281   1.298   .     A
C1244  O1283   1.296   .     A
C1245  H1260   1.108   .     S
C1245  H1271   1.107   .     S
C1245  H1272   1.109   .     S
C1246  O1277   1.221   .     D
C1246  H1261   1.082   .     S
C1247  H1262   1.082   .     S
C1247  O1278   1.221   .     D
C1248  H1263   1.080   .     S
C1248  O1279   1.220   .     D
C1249  O1280   1.220   .     D
C1249  H1264   1.080   .     S
C1250  O1284   1.296   .     A
C1250  C1252   1.435   .     S
C1250  O1286   1.298   .     A
C1251  O1285   1.296   .     A
C1251  C1253   1.435   .     S
C1251  O1287   1.298   .     A
C1253  C1308   1.334   .     S
C1253  H1321   1.086   .     S
C1255  C1402   1.405   .     S
C1256  C1422   1.405   .     S
Cu1257 O1283   1.952   .     S
Cu1257 O1284   1.960   .     S
Cu1257 Cu1258  2.710   .     S
Cu1257 O1275   1.956   .     S
Cu1257 N1273   2.037   .     S
Cu1257 O1287   1.959   .     S
Cu1258 O1282   1.952   .     S
Cu1258 O1286   1.959   .     S
Cu1258 O1285   1.960   .     S
Cu1258 N1274   2.037   .     S
Cu1258 O1281   1.956   .     S
H1259  C1308   1.086   .     S
C1289  O1338   1.296   .     A
C1289  C1292   1.445   .     S
C1289  O1331   1.298   .     A
C1290  C1292   1.412   .     A
C1290  C1301   1.519   .     S
C1291  C1311   1.410   .     A
C1291  C1312   1.412   .     A
C1291  C1300   1.445   .     S
C1292  C1310   1.410   .     A
C1293  N1330   1.374   .     A
C1293  C1302   1.476   .     S
C1294  C1303   1.476   .     S
C1294  N1329   1.374   .     A
C1294  C288    1.430   1_556 S
C1295  C1304   1.472   .     S
C1295  N1329   1.375   .     A
C1295  C285    1.430   1_556 S
C1296  C1305   1.472   .     S
C1296  N1330   1.375   .     A
C1297  O1344   1.220   .     D
C1297  H1322   1.085   .     S
C1297  C1310   1.491   .     S
C1298  H1323   1.085   .     S
C1298  C1311   1.491   .     S
C1298  O1332   1.220   .     D
C1299  H1326   1.109   .     S
C1299  C1312   1.519   .     S
C1299  H1325   1.108   .     S
C1299  H1324   1.107   .     S
C1300  O1337   1.298   .     A
C1300  O1339   1.296   .     A
C1301  H1316   1.108   .     S
C1301  H1327   1.107   .     S
C1301  H1328   1.109   .     S
C1302  O1333   1.221   .     D
C1302  H1317   1.082   .     S
C1303  H1318   1.082   .     S
C1303  O1334   1.221   .     D
C1304  H1319   1.080   .     S
C1304  O1335   1.220   .     D
C1305  O1336   1.220   .     D
C1305  H1320   1.080   .     S
C1306  O1340   1.296   .     A
C1306  C1308   1.435   .     S
C1306  O1342   1.298   .     A
C1307  O1341   1.296   .     A
C1307  C1309   1.435   .     S
C1307  O1343   1.298   .     A
C1309  C1196   1.334   1_655 S
C1309  H1209   1.086   1_655 S
C1311  C1458   1.405   .     S
C1312  C1478   1.405   .     S
Cu1313 O1339   1.952   .     S
Cu1313 O1340   1.960   .     S
Cu1313 Cu1314  2.710   .     S
Cu1313 O1331   1.956   .     S
Cu1313 N1329   2.037   .     S
Cu1313 O1343   1.959   .     S
Cu1314 O1338   1.952   .     S
Cu1314 O1342   1.959   .     S
Cu1314 O1341   1.960   .     S
Cu1314 N1330   2.037   .     S
Cu1314 O1337   1.956   .     S
H1315  C1196   1.086   1_655 S
C1345  O1394   1.296   .     A
C1345  C1348   1.445   .     S
C1345  O1387   1.298   .     A
C1346  C1348   1.412   .     A
C1346  C1357   1.519   .     S
C1347  C1367   1.410   .     A
C1347  C1368   1.412   .     A
C1347  C1356   1.445   .     S
C1348  C1366   1.410   .     A
C1349  N1386   1.374   .     A
C1349  C1358   1.476   .     S
C1350  C1359   1.476   .     S
C1350  N1385   1.374   .     A
C1350  C344    1.430   1_556 S
C1351  C1360   1.472   .     S
C1351  N1385   1.375   .     A
C1351  C341    1.430   1_556 S
C1352  C1361   1.472   .     S
C1352  N1386   1.375   .     A
C1353  O1400   1.220   .     D
C1353  H1378   1.085   .     S
C1353  C1366   1.491   .     S
C1354  H1379   1.085   .     S
C1354  C1367   1.491   .     S
C1354  O1388   1.220   .     D
C1355  H1382   1.109   .     S
C1355  C1368   1.519   .     S
C1355  H1381   1.108   .     S
C1355  H1380   1.107   .     S
C1356  O1393   1.298   .     A
C1356  O1395   1.296   .     A
C1357  H1372   1.108   .     S
C1357  H1383   1.107   .     S
C1357  H1384   1.109   .     S
C1358  O1389   1.221   .     D
C1358  H1373   1.082   .     S
C1359  H1374   1.082   .     S
C1359  O1390   1.221   .     D
C1360  H1375   1.080   .     S
C1360  O1391   1.220   .     D
C1361  O1392   1.220   .     D
C1361  H1376   1.080   .     S
C1362  O1396   1.296   .     A
C1362  C1364   1.435   .     S
C1362  O1398   1.298   .     A
C1363  O1397   1.296   .     A
C1363  C1365   1.435   .     S
C1363  O1399   1.298   .     A
C1364  C1477   1.334   1_455 S
C1364  H1483   1.086   1_455 S
C1365  C1420   1.334   .     S
C1365  H1433   1.086   .     S
C1367  C1010   1.405   1_565 S
C1368  C1030   1.405   1_565 S
Cu1369 O1395   1.952   .     S
Cu1369 O1396   1.960   .     S
Cu1369 Cu1370  2.710   .     S
Cu1369 O1387   1.956   .     S
Cu1369 N1385   2.037   .     S
Cu1369 O1399   1.959   .     S
Cu1370 O1394   1.952   .     S
Cu1370 O1398   1.959   .     S
Cu1370 O1397   1.960   .     S
Cu1370 N1386   2.037   .     S
Cu1370 O1393   1.956   .     S
H1371  C1420   1.086   .     S
H1377  C1477   1.086   1_455 S
C1401  O1450   1.296   .     A
C1401  C1404   1.445   .     S
C1401  O1443   1.298   .     A
C1402  C1404   1.412   .     A
C1402  C1413   1.519   .     S
C1403  C1423   1.410   .     A
C1403  C1424   1.412   .     A
C1403  C1412   1.445   .     S
C1404  C1422   1.410   .     A
C1405  N1442   1.374   .     A
C1405  C1414   1.476   .     S
C1406  C1415   1.476   .     S
C1406  N1441   1.374   .     A
C1406  C400    1.430   1_556 S
C1407  C1416   1.472   .     S
C1407  N1441   1.375   .     A
C1407  C397    1.430   1_556 S
C1408  C1417   1.472   .     S
C1408  N1442   1.375   .     A
C1409  O1456   1.220   .     D
C1409  H1434   1.085   .     S
C1409  C1422   1.491   .     S
C1410  H1435   1.085   .     S
C1410  C1423   1.491   .     S
C1410  O1444   1.220   .     D
C1411  H1438   1.109   .     S
C1411  C1424   1.519   .     S
C1411  H1437   1.108   .     S
C1411  H1436   1.107   .     S
C1412  O1449   1.298   .     A
C1412  O1451   1.296   .     A
C1413  H1428   1.108   .     S
C1413  H1439   1.107   .     S
C1413  H1440   1.109   .     S
C1414  O1445   1.221   .     D
C1414  H1429   1.082   .     S
C1415  H1430   1.082   .     S
C1415  O1446   1.221   .     D
C1416  H1431   1.080   .     S
C1416  O1447   1.220   .     D
C1417  O1448   1.220   .     D
C1417  H1432   1.080   .     S
C1418  O1452   1.296   .     A
C1418  C1420   1.435   .     S
C1418  O1454   1.298   .     A
C1419  O1453   1.296   .     A
C1419  C1421   1.435   .     S
C1419  O1455   1.298   .     A
C1421  C1476   1.334   .     S
C1421  H1489   1.086   .     S
C1423  C1066   1.405   1_565 S
C1424  C1086   1.405   1_565 S
Cu1425 O1451   1.952   .     S
Cu1425 O1452   1.960   .     S
Cu1425 Cu1426  2.710   .     S
Cu1425 O1443   1.956   .     S
Cu1425 N1441   2.037   .     S
Cu1425 O1455   1.959   .     S
Cu1426 O1450   1.952   .     S
Cu1426 O1454   1.959   .     S
Cu1426 O1453   1.960   .     S
Cu1426 N1442   2.037   .     S
Cu1426 O1449   1.956   .     S
H1427  C1476   1.086   .     S
C1457  O1506   1.296   .     A
C1457  C1460   1.445   .     S
C1457  O1499   1.298   .     A
C1458  C1460   1.412   .     A
C1458  C1469   1.519   .     S
C1459  C1479   1.410   .     A
C1459  C1480   1.412   .     A
C1459  C1468   1.445   .     S
C1460  C1478   1.410   .     A
C1461  N1498   1.374   .     A
C1461  C1470   1.476   .     S
C1462  C1471   1.476   .     S
C1462  N1497   1.374   .     A
C1462  C456    1.430   1_556 S
C1463  C1472   1.472   .     S
C1463  N1497   1.375   .     A
C1463  C453    1.430   1_556 S
C1464  C1473   1.472   .     S
C1464  N1498   1.375   .     A
C1465  O1512   1.220   .     D
C1465  H1490   1.085   .     S
C1465  C1478   1.491   .     S
C1466  H1491   1.085   .     S
C1466  C1479   1.491   .     S
C1466  O1500   1.220   .     D
C1467  H1494   1.109   .     S
C1467  C1480   1.519   .     S
C1467  H1493   1.108   .     S
C1467  H1492   1.107   .     S
C1468  O1505   1.298   .     A
C1468  O1507   1.296   .     A
C1469  H1484   1.108   .     S
C1469  H1495   1.107   .     S
C1469  H1496   1.109   .     S
C1470  O1501   1.221   .     D
C1470  H1485   1.082   .     S
C1471  H1486   1.082   .     S
C1471  O1502   1.221   .     D
C1472  H1487   1.080   .     S
C1472  O1503   1.220   .     D
C1473  O1504   1.220   .     D
C1473  H1488   1.080   .     S
C1474  O1508   1.296   .     A
C1474  C1476   1.435   .     S
C1474  O1510   1.298   .     A
C1475  O1509   1.296   .     A
C1475  C1477   1.435   .     S
C1475  O1511   1.298   .     A
C1477  C1364   1.334   1_655 S
C1477  H1377   1.086   1_655 S
C1479  C1122   1.405   1_565 S
C1480  C1142   1.405   1_565 S
Cu1481 O1507   1.952   .     S
Cu1481 O1508   1.960   .     S
Cu1481 Cu1482  2.710   .     S
Cu1481 O1499   1.956   .     S
Cu1481 N1497   2.037   .     S
Cu1481 O1511   1.959   .     S
Cu1482 O1506   1.952   .     S
Cu1482 O1510   1.959   .     S
Cu1482 O1509   1.960   .     S
Cu1482 N1498   2.037   .     S
Cu1482 O1505   1.956   .     S
H1483  C1364   1.086   1_655 S
