data_str_m2_o1_o16_pcu_sym.244
_audit_creation_date              2020-01-03
_audit_creation_method            'Materials Studio'
_symmetry_space_group_name_H-M    'P1'
_symmetry_Int_Tables_number       1
_symmetry_cell_setting            triclinic
loop_
_symmetry_equiv_pos_as_xyz
  x,y,z
_cell_length_a                    28.7742
_cell_length_b                    32.3011
_cell_length_c                    27.1249
_cell_angle_alpha                 91.7416
_cell_angle_beta                  73.8201
_cell_angle_gamma                 91.4133
loop_
_atom_site_label
_atom_site_type_symbol
_atom_site_fract_x
_atom_site_fract_y
_atom_site_fract_z
_atom_site_U_iso_or_equiv
_atom_site_adp_type
_atom_site_occupancy
C1     C     0.16719   0.24580   0.24990   0.00000  Uiso   1.00
C2     C     0.14535   0.16869   0.48948   0.00000  Uiso   1.00
C3     C     0.16121   0.17064   0.43544   0.00000  Uiso   1.00
C4     C     0.18071   0.16415   0.01638   0.00000  Uiso   1.00
C5     C     0.22617   0.14734   0.48912   0.00000  Uiso   1.00
C6     C     0.23988   0.14802   0.43515   0.00000  Uiso   1.00
C7     C     0.21143   0.17107   0.41225   0.00000  Uiso   1.00
C8     C     0.17348   0.17686   0.06806   0.00000  Uiso   1.00
C9     C     0.24650   0.14034   0.06904   0.00000  Uiso   1.00
C10    C     0.12698   0.17283   0.40666   0.00000  Uiso   1.00
C11    C     0.20222   0.31262   0.21355   0.00000  Uiso   1.00
C12    C     0.14119   0.16888   0.34980   0.00000  Uiso   1.00
C13    C     0.20068   0.02219   0.21516   0.00000  Uiso   1.00
C14    C     0.16475   0.04290   0.25241   0.00000  Uiso   1.00
C15    C     0.12994   0.02118   0.29048   0.00000  Uiso   1.00
C16    C     0.13271   0.31102   0.29045   0.00000  Uiso   1.00
C17    C     0.16766   0.29054   0.25112   0.00000  Uiso   1.00
C18    C     0.30501   0.20040   0.26835   0.00000  Uiso   1.00
C19    C     0.02067   0.19932   0.27029   0.00000  Uiso   1.00
C20    C     0.02899   0.13456   0.22715   0.00000  Uiso   1.00
C21    C     0.31261   0.13439   0.22895   0.00000  Uiso   1.00
C22    C     0.16582   0.08756   0.25127   0.00000  Uiso   1.00
C23    C     0.19212   0.16629   0.15065   0.00000  Uiso   1.00
C24    C     0.25783   0.13401   0.01623   0.00000  Uiso   1.00
C25    C     0.20514   0.16233   0.09489   0.00000  Uiso   1.00
C26    C     0.07783   0.17671   0.43302   0.00000  Uiso   1.00
C27    C     0.06209   0.17439   0.48624   0.00000  Uiso   1.00
C28    C     0.09527   0.16903   0.01420   0.00000  Uiso   1.00
Cu29   Cu    0.11978   0.16666   0.25000   0.00000  Uiso   1.00
Cu30   Cu    0.21355   0.16667   0.25000   0.00000  Uiso   1.00
H31    H     0.27063   0.12876   0.08959   0.00000  Uiso   1.00
H32    H     0.22705   0.03976   0.18655   0.00000  Uiso   1.00
H33    H     0.03594   0.22527   0.28694   0.00000  Uiso   1.00
H34    H     0.29715   0.10873   0.21195   0.00000  Uiso   1.00
H35    H     0.29166   0.11930   0.49698   0.00000  Uiso   1.00
H36    H     0.05140   0.18091   0.41222   0.00000  Uiso   1.00
H37    H     0.08130   0.16408   0.05490   0.00000  Uiso   1.00
H38    H     0.02383   0.17581   0.00584   0.00000  Uiso   1.00
N39    N     0.04931   0.16666   0.24998   0.00000  Uiso   1.00
N40    N     0.28402   0.16669   0.24999   0.00000  Uiso   1.00
O41    O     0.12708   0.22678   0.25000   0.00000  Uiso   1.00
O42    O     0.20627   0.22679   0.25000   0.00000  Uiso   1.00
O43    O     0.10775   0.16665   0.32549   0.00000  Uiso   1.00
O44    O     0.18694   0.16666   0.32549   0.00000  Uiso   1.00
O45    O     0.12706   0.10654   0.24999   0.00000  Uiso   1.00
O46    O     0.20625   0.10655   0.24999   0.00000  Uiso   1.00
O47    O     0.14640   0.16667   0.17451   0.00000  Uiso   1.00
O48    O     0.22559   0.16668   0.17451   0.00000  Uiso   1.00
C49    C     0.09082   0.04438   0.33014   0.00000  Uiso   1.00
H50    H     0.06870   0.06214   0.31092   0.00000  Uiso   1.00
H51    H     0.06481   0.02402   0.35698   0.00000  Uiso   1.00
H52    H     0.10767   0.06607   0.35297   0.00000  Uiso   1.00
O53    O     0.10235   0.28762   0.32835   0.00000  Uiso   1.00
H54    H     0.10124   0.30126   0.36184   0.00000  Uiso   1.00
O55    O     0.27856   0.23573   0.28385   0.00000  Uiso   1.00
H56    H     0.29919   0.25750   0.29410   0.00000  Uiso   1.00
C57    C     0.05777   0.09882   0.19827   0.00000  Uiso   1.00
H58    H     0.03991   0.08434   0.17045   0.00000  Uiso   1.00
H59    H     0.09393   0.10880   0.17500   0.00000  Uiso   1.00
H60    H     0.06001   0.07438   0.22527   0.00000  Uiso   1.00
C61    C     0.28674   0.13048   0.40241   0.00000  Uiso   1.00
H62    H     0.29053   0.13423   0.36087   0.00000  Uiso   1.00
H63    H     0.31756   0.14648   0.41192   0.00000  Uiso   1.00
H64    H     0.28780   0.09686   0.40934   0.00000  Uiso   1.00
C65    C     0.13959   0.21216   0.09116   0.00000  Uiso   1.00
H66    H     0.15690   0.23390   0.11350   0.00000  Uiso   1.00
H67    H     0.13158   0.23097   0.06103   0.00000  Uiso   1.00
H68    H     0.10516   0.20027   0.11700   0.00000  Uiso   1.00
C69    C     0.23324   0.21234   0.39267   0.00000  Uiso   1.00
H70    H     0.23177   0.23375   0.42590   0.00000  Uiso   1.00
H71    H     0.27182   0.20916   0.37118   0.00000  Uiso   1.00
H72    H     0.21303   0.22696   0.36867   0.00000  Uiso   1.00
C73    C     0.23999   0.29110   0.17114   0.00000  Uiso   1.00
H74    H     0.26156   0.31339   0.14298   0.00000  Uiso   1.00
H75    H     0.26541   0.27459   0.18750   0.00000  Uiso   1.00
H76    H     0.22229   0.26859   0.15008   0.00000  Uiso   1.00
C77    C     0.50052   0.24580   0.24990   0.00000  Uiso   1.00
C78    C     0.47869   0.16869   0.48948   0.00000  Uiso   1.00
C79    C     0.49454   0.17064   0.43544   0.00000  Uiso   1.00
C80    C     0.51404   0.16415   0.01638   0.00000  Uiso   1.00
C81    C     0.55950   0.14734   0.48912   0.00000  Uiso   1.00
C82    C     0.57322   0.14802   0.43515   0.00000  Uiso   1.00
C83    C     0.54477   0.17107   0.41225   0.00000  Uiso   1.00
C84    C     0.50681   0.17686   0.06806   0.00000  Uiso   1.00
C85    C     0.57983   0.14034   0.06904   0.00000  Uiso   1.00
C86    C     0.46031   0.17283   0.40666   0.00000  Uiso   1.00
C87    C     0.53555   0.31262   0.21355   0.00000  Uiso   1.00
C88    C     0.47452   0.16888   0.34980   0.00000  Uiso   1.00
C89    C     0.53401   0.02219   0.21516   0.00000  Uiso   1.00
C90    C     0.49808   0.04290   0.25241   0.00000  Uiso   1.00
C91    C     0.46327   0.02118   0.29048   0.00000  Uiso   1.00
C92    C     0.46604   0.31102   0.29045   0.00000  Uiso   1.00
C93    C     0.50100   0.29054   0.25112   0.00000  Uiso   1.00
C94    C     0.63835   0.20040   0.26835   0.00000  Uiso   1.00
C95    C     0.35401   0.19932   0.27029   0.00000  Uiso   1.00
C96    C     0.36232   0.13456   0.22715   0.00000  Uiso   1.00
C97    C     0.64594   0.13439   0.22895   0.00000  Uiso   1.00
C98    C     0.49916   0.08756   0.25127   0.00000  Uiso   1.00
C99    C     0.52545   0.16629   0.15065   0.00000  Uiso   1.00
C100   C     0.59116   0.13401   0.01623   0.00000  Uiso   1.00
C101   C     0.53848   0.16233   0.09489   0.00000  Uiso   1.00
C102   C     0.41116   0.17671   0.43302   0.00000  Uiso   1.00
C103   C     0.39542   0.17439   0.48624   0.00000  Uiso   1.00
C104   C     0.42861   0.16903   0.01420   0.00000  Uiso   1.00
Cu105  Cu    0.45311   0.16666   0.25000   0.00000  Uiso   1.00
Cu106  Cu    0.54689   0.16667   0.25000   0.00000  Uiso   1.00
H107   H     0.60396   0.12876   0.08959   0.00000  Uiso   1.00
H108   H     0.56038   0.03976   0.18655   0.00000  Uiso   1.00
H109   H     0.36928   0.22527   0.28694   0.00000  Uiso   1.00
H110   H     0.63049   0.10873   0.21195   0.00000  Uiso   1.00
H111   H     0.62499   0.11930   0.49698   0.00000  Uiso   1.00
H112   H     0.38474   0.18091   0.41222   0.00000  Uiso   1.00
H113   H     0.41464   0.16408   0.05490   0.00000  Uiso   1.00
H114   H     0.35716   0.17581   0.00584   0.00000  Uiso   1.00
N115   N     0.38265   0.16666   0.24998   0.00000  Uiso   1.00
N116   N     0.61735   0.16669   0.24999   0.00000  Uiso   1.00
O117   O     0.46042   0.22678   0.25000   0.00000  Uiso   1.00
O118   O     0.53961   0.22679   0.25000   0.00000  Uiso   1.00
O119   O     0.44108   0.16665   0.32549   0.00000  Uiso   1.00
O120   O     0.52027   0.16666   0.32549   0.00000  Uiso   1.00
O121   O     0.46039   0.10654   0.24999   0.00000  Uiso   1.00
O122   O     0.53958   0.10655   0.24999   0.00000  Uiso   1.00
O123   O     0.47973   0.16667   0.17451   0.00000  Uiso   1.00
O124   O     0.55892   0.16668   0.17451   0.00000  Uiso   1.00
C125   C     0.42416   0.04438   0.33014   0.00000  Uiso   1.00
H126   H     0.40203   0.06214   0.31092   0.00000  Uiso   1.00
H127   H     0.39815   0.02402   0.35698   0.00000  Uiso   1.00
H128   H     0.44101   0.06607   0.35297   0.00000  Uiso   1.00
O129   O     0.43568   0.28762   0.32835   0.00000  Uiso   1.00
H130   H     0.43458   0.30126   0.36184   0.00000  Uiso   1.00
O131   O     0.61190   0.23573   0.28385   0.00000  Uiso   1.00
H132   H     0.63252   0.25750   0.29410   0.00000  Uiso   1.00
C133   C     0.39110   0.09882   0.19827   0.00000  Uiso   1.00
H134   H     0.37324   0.08434   0.17045   0.00000  Uiso   1.00
H135   H     0.42726   0.10880   0.17500   0.00000  Uiso   1.00
H136   H     0.39335   0.07438   0.22527   0.00000  Uiso   1.00
C137   C     0.62007   0.13048   0.40241   0.00000  Uiso   1.00
H138   H     0.62386   0.13423   0.36087   0.00000  Uiso   1.00
H139   H     0.65089   0.14648   0.41192   0.00000  Uiso   1.00
H140   H     0.62113   0.09686   0.40934   0.00000  Uiso   1.00
C141   C     0.47292   0.21216   0.09116   0.00000  Uiso   1.00
H142   H     0.49023   0.23390   0.11350   0.00000  Uiso   1.00
H143   H     0.46491   0.23097   0.06103   0.00000  Uiso   1.00
H144   H     0.43849   0.20027   0.11700   0.00000  Uiso   1.00
C145   C     0.56657   0.21234   0.39267   0.00000  Uiso   1.00
H146   H     0.56511   0.23375   0.42590   0.00000  Uiso   1.00
H147   H     0.60515   0.20916   0.37118   0.00000  Uiso   1.00
H148   H     0.54636   0.22696   0.36867   0.00000  Uiso   1.00
C149   C     0.57332   0.29110   0.17114   0.00000  Uiso   1.00
H150   H     0.59489   0.31339   0.14298   0.00000  Uiso   1.00
H151   H     0.59875   0.27459   0.18750   0.00000  Uiso   1.00
H152   H     0.55563   0.26859   0.15008   0.00000  Uiso   1.00
C153   C     0.83386   0.24580   0.24990   0.00000  Uiso   1.00
C154   C     0.81202   0.16869   0.48948   0.00000  Uiso   1.00
C155   C     0.82788   0.17064   0.43544   0.00000  Uiso   1.00
C156   C     0.84738   0.16415   0.01638   0.00000  Uiso   1.00
C157   C     0.89283   0.14734   0.48912   0.00000  Uiso   1.00
C158   C     0.90655   0.14802   0.43515   0.00000  Uiso   1.00
C159   C     0.87810   0.17107   0.41225   0.00000  Uiso   1.00
C160   C     0.84014   0.17686   0.06806   0.00000  Uiso   1.00
C161   C     0.91317   0.14034   0.06904   0.00000  Uiso   1.00
C162   C     0.79365   0.17283   0.40666   0.00000  Uiso   1.00
C163   C     0.86889   0.31262   0.21355   0.00000  Uiso   1.00
C164   C     0.80785   0.16888   0.34980   0.00000  Uiso   1.00
C165   C     0.86734   0.02219   0.21516   0.00000  Uiso   1.00
C166   C     0.83141   0.04290   0.25241   0.00000  Uiso   1.00
C167   C     0.79660   0.02118   0.29048   0.00000  Uiso   1.00
C168   C     0.79938   0.31102   0.29045   0.00000  Uiso   1.00
C169   C     0.83433   0.29054   0.25112   0.00000  Uiso   1.00
C170   C     0.97168   0.20040   0.26835   0.00000  Uiso   1.00
C171   C     0.68734   0.19932   0.27029   0.00000  Uiso   1.00
C172   C     0.69565   0.13456   0.22715   0.00000  Uiso   1.00
C173   C     0.97927   0.13439   0.22895   0.00000  Uiso   1.00
C174   C     0.83249   0.08756   0.25127   0.00000  Uiso   1.00
C175   C     0.85879   0.16629   0.15065   0.00000  Uiso   1.00
C176   C     0.92449   0.13401   0.01623   0.00000  Uiso   1.00
C177   C     0.87181   0.16233   0.09489   0.00000  Uiso   1.00
C178   C     0.74449   0.17671   0.43302   0.00000  Uiso   1.00
C179   C     0.72875   0.17439   0.48624   0.00000  Uiso   1.00
C180   C     0.76194   0.16903   0.01420   0.00000  Uiso   1.00
Cu181  Cu    0.78645   0.16666   0.25000   0.00000  Uiso   1.00
Cu182  Cu    0.88022   0.16667   0.25000   0.00000  Uiso   1.00
H183   H     0.93730   0.12876   0.08959   0.00000  Uiso   1.00
H184   H     0.89372   0.03976   0.18655   0.00000  Uiso   1.00
H185   H     0.70261   0.22527   0.28694   0.00000  Uiso   1.00
H186   H     0.96382   0.10873   0.21195   0.00000  Uiso   1.00
H187   H     0.95833   0.11930   0.49698   0.00000  Uiso   1.00
H188   H     0.71807   0.18091   0.41222   0.00000  Uiso   1.00
H189   H     0.74797   0.16408   0.05490   0.00000  Uiso   1.00
H190   H     0.69049   0.17581   0.00584   0.00000  Uiso   1.00
N191   N     0.71598   0.16666   0.24998   0.00000  Uiso   1.00
N192   N     0.95069   0.16669   0.24999   0.00000  Uiso   1.00
O193   O     0.79375   0.22678   0.25000   0.00000  Uiso   1.00
O194   O     0.87294   0.22679   0.25000   0.00000  Uiso   1.00
O195   O     0.77441   0.16665   0.32549   0.00000  Uiso   1.00
O196   O     0.85360   0.16666   0.32549   0.00000  Uiso   1.00
O197   O     0.79373   0.10654   0.24999   0.00000  Uiso   1.00
O198   O     0.87292   0.10655   0.24999   0.00000  Uiso   1.00
O199   O     0.81306   0.16667   0.17451   0.00000  Uiso   1.00
O200   O     0.89225   0.16668   0.17451   0.00000  Uiso   1.00
C201   C     0.75749   0.04438   0.33014   0.00000  Uiso   1.00
H202   H     0.73536   0.06214   0.31092   0.00000  Uiso   1.00
H203   H     0.73148   0.02402   0.35698   0.00000  Uiso   1.00
H204   H     0.77434   0.06607   0.35297   0.00000  Uiso   1.00
O205   O     0.76901   0.28762   0.32835   0.00000  Uiso   1.00
H206   H     0.76791   0.30126   0.36184   0.00000  Uiso   1.00
O207   O     0.94523   0.23573   0.28385   0.00000  Uiso   1.00
H208   H     0.96586   0.25750   0.29410   0.00000  Uiso   1.00
C209   C     0.72443   0.09882   0.19827   0.00000  Uiso   1.00
H210   H     0.70658   0.08434   0.17045   0.00000  Uiso   1.00
H211   H     0.76059   0.10880   0.17500   0.00000  Uiso   1.00
H212   H     0.72668   0.07438   0.22527   0.00000  Uiso   1.00
C213   C     0.95341   0.13048   0.40241   0.00000  Uiso   1.00
H214   H     0.95719   0.13423   0.36087   0.00000  Uiso   1.00
H215   H     0.98422   0.14648   0.41192   0.00000  Uiso   1.00
H216   H     0.95447   0.09686   0.40934   0.00000  Uiso   1.00
C217   C     0.80625   0.21216   0.09116   0.00000  Uiso   1.00
H218   H     0.82357   0.23390   0.11350   0.00000  Uiso   1.00
H219   H     0.79825   0.23097   0.06103   0.00000  Uiso   1.00
H220   H     0.77182   0.20027   0.11700   0.00000  Uiso   1.00
C221   C     0.89990   0.21234   0.39267   0.00000  Uiso   1.00
H222   H     0.89844   0.23375   0.42590   0.00000  Uiso   1.00
H223   H     0.93848   0.20916   0.37118   0.00000  Uiso   1.00
H224   H     0.87969   0.22696   0.36867   0.00000  Uiso   1.00
C225   C     0.90665   0.29110   0.17114   0.00000  Uiso   1.00
H226   H     0.92822   0.31339   0.14298   0.00000  Uiso   1.00
H227   H     0.93208   0.27459   0.18750   0.00000  Uiso   1.00
H228   H     0.88896   0.26859   0.15008   0.00000  Uiso   1.00
C229   C     0.16719   0.57913   0.24990   0.00000  Uiso   1.00
C230   C     0.14535   0.50203   0.48948   0.00000  Uiso   1.00
C231   C     0.16121   0.50397   0.43544   0.00000  Uiso   1.00
C232   C     0.18071   0.49748   0.01638   0.00000  Uiso   1.00
C233   C     0.22617   0.48068   0.48912   0.00000  Uiso   1.00
C234   C     0.23988   0.48136   0.43515   0.00000  Uiso   1.00
C235   C     0.21143   0.50441   0.41225   0.00000  Uiso   1.00
C236   C     0.17348   0.51019   0.06806   0.00000  Uiso   1.00
C237   C     0.24650   0.47367   0.06904   0.00000  Uiso   1.00
C238   C     0.12698   0.50616   0.40666   0.00000  Uiso   1.00
C239   C     0.20222   0.64595   0.21355   0.00000  Uiso   1.00
C240   C     0.14119   0.50222   0.34980   0.00000  Uiso   1.00
C241   C     0.20068   0.35552   0.21516   0.00000  Uiso   1.00
C242   C     0.16475   0.37623   0.25241   0.00000  Uiso   1.00
C243   C     0.12994   0.35451   0.29048   0.00000  Uiso   1.00
C244   C     0.13271   0.64435   0.29045   0.00000  Uiso   1.00
C245   C     0.16766   0.62387   0.25112   0.00000  Uiso   1.00
C246   C     0.30501   0.53373   0.26835   0.00000  Uiso   1.00
C247   C     0.02067   0.53266   0.27029   0.00000  Uiso   1.00
C248   C     0.02899   0.46790   0.22715   0.00000  Uiso   1.00
C249   C     0.31261   0.46773   0.22895   0.00000  Uiso   1.00
C250   C     0.16582   0.42090   0.25127   0.00000  Uiso   1.00
C251   C     0.19212   0.49962   0.15065   0.00000  Uiso   1.00
C252   C     0.25783   0.46735   0.01623   0.00000  Uiso   1.00
C253   C     0.20514   0.49567   0.09489   0.00000  Uiso   1.00
C254   C     0.07783   0.51005   0.43302   0.00000  Uiso   1.00
C255   C     0.06209   0.50773   0.48624   0.00000  Uiso   1.00
C256   C     0.09527   0.50237   0.01420   0.00000  Uiso   1.00
Cu257  Cu    0.11978   0.49999   0.25000   0.00000  Uiso   1.00
Cu258  Cu    0.21355   0.50001   0.25000   0.00000  Uiso   1.00
H259   H     0.27063   0.46209   0.08959   0.00000  Uiso   1.00
H260   H     0.22705   0.37310   0.18655   0.00000  Uiso   1.00
H261   H     0.03594   0.55860   0.28694   0.00000  Uiso   1.00
H262   H     0.29715   0.44206   0.21195   0.00000  Uiso   1.00
H263   H     0.29166   0.45264   0.49698   0.00000  Uiso   1.00
H264   H     0.05140   0.51425   0.41222   0.00000  Uiso   1.00
H265   H     0.08130   0.49741   0.05490   0.00000  Uiso   1.00
H266   H     0.02383   0.50914   0.00584   0.00000  Uiso   1.00
N267   N     0.04931   0.49999   0.24998   0.00000  Uiso   1.00
N268   N     0.28402   0.50002   0.24999   0.00000  Uiso   1.00
O269   O     0.12708   0.56011   0.25000   0.00000  Uiso   1.00
O270   O     0.20627   0.56012   0.25000   0.00000  Uiso   1.00
O271   O     0.10775   0.49998   0.32549   0.00000  Uiso   1.00
O272   O     0.18694   0.49999   0.32549   0.00000  Uiso   1.00
O273   O     0.12706   0.43988   0.24999   0.00000  Uiso   1.00
O274   O     0.20625   0.43989   0.24999   0.00000  Uiso   1.00
O275   O     0.14640   0.50001   0.17451   0.00000  Uiso   1.00
O276   O     0.22559   0.50002   0.17451   0.00000  Uiso   1.00
C277   C     0.09082   0.37771   0.33014   0.00000  Uiso   1.00
H278   H     0.06870   0.39547   0.31092   0.00000  Uiso   1.00
H279   H     0.06481   0.35735   0.35698   0.00000  Uiso   1.00
H280   H     0.10767   0.39940   0.35297   0.00000  Uiso   1.00
O281   O     0.10235   0.62095   0.32835   0.00000  Uiso   1.00
H282   H     0.10124   0.63459   0.36184   0.00000  Uiso   1.00
O283   O     0.27856   0.56907   0.28385   0.00000  Uiso   1.00
H284   H     0.29919   0.59084   0.29410   0.00000  Uiso   1.00
C285   C     0.05777   0.43215   0.19827   0.00000  Uiso   1.00
H286   H     0.03991   0.41767   0.17045   0.00000  Uiso   1.00
H287   H     0.09393   0.44214   0.17500   0.00000  Uiso   1.00
H288   H     0.06001   0.40771   0.22527   0.00000  Uiso   1.00
C289   C     0.28674   0.46381   0.40241   0.00000  Uiso   1.00
H290   H     0.29053   0.46757   0.36087   0.00000  Uiso   1.00
H291   H     0.31756   0.47981   0.41192   0.00000  Uiso   1.00
H292   H     0.28780   0.43020   0.40934   0.00000  Uiso   1.00
C293   C     0.13959   0.54549   0.09116   0.00000  Uiso   1.00
H294   H     0.15690   0.56723   0.11350   0.00000  Uiso   1.00
H295   H     0.13158   0.56430   0.06103   0.00000  Uiso   1.00
H296   H     0.10516   0.53360   0.11700   0.00000  Uiso   1.00
C297   C     0.23324   0.54567   0.39267   0.00000  Uiso   1.00
H298   H     0.23177   0.56709   0.42590   0.00000  Uiso   1.00
H299   H     0.27182   0.54249   0.37118   0.00000  Uiso   1.00
H300   H     0.21303   0.56029   0.36867   0.00000  Uiso   1.00
C301   C     0.23999   0.62443   0.17114   0.00000  Uiso   1.00
H302   H     0.26156   0.64672   0.14298   0.00000  Uiso   1.00
H303   H     0.26541   0.60792   0.18750   0.00000  Uiso   1.00
H304   H     0.22229   0.60192   0.15008   0.00000  Uiso   1.00
C305   C     0.50052   0.57913   0.24990   0.00000  Uiso   1.00
C306   C     0.47869   0.50203   0.48948   0.00000  Uiso   1.00
C307   C     0.49454   0.50397   0.43544   0.00000  Uiso   1.00
C308   C     0.51404   0.49748   0.01638   0.00000  Uiso   1.00
C309   C     0.55950   0.48068   0.48912   0.00000  Uiso   1.00
C310   C     0.57322   0.48136   0.43515   0.00000  Uiso   1.00
C311   C     0.54477   0.50441   0.41225   0.00000  Uiso   1.00
C312   C     0.50681   0.51019   0.06806   0.00000  Uiso   1.00
C313   C     0.57983   0.47367   0.06904   0.00000  Uiso   1.00
C314   C     0.46031   0.50616   0.40666   0.00000  Uiso   1.00
C315   C     0.53555   0.64595   0.21355   0.00000  Uiso   1.00
C316   C     0.47452   0.50222   0.34980   0.00000  Uiso   1.00
C317   C     0.53401   0.35552   0.21516   0.00000  Uiso   1.00
C318   C     0.49808   0.37623   0.25241   0.00000  Uiso   1.00
C319   C     0.46327   0.35451   0.29048   0.00000  Uiso   1.00
C320   C     0.46604   0.64435   0.29045   0.00000  Uiso   1.00
C321   C     0.50100   0.62387   0.25112   0.00000  Uiso   1.00
C322   C     0.63835   0.53373   0.26835   0.00000  Uiso   1.00
C323   C     0.35401   0.53266   0.27029   0.00000  Uiso   1.00
C324   C     0.36232   0.46790   0.22715   0.00000  Uiso   1.00
C325   C     0.64594   0.46773   0.22895   0.00000  Uiso   1.00
C326   C     0.49916   0.42090   0.25127   0.00000  Uiso   1.00
C327   C     0.52545   0.49962   0.15065   0.00000  Uiso   1.00
C328   C     0.59116   0.46735   0.01623   0.00000  Uiso   1.00
C329   C     0.53848   0.49567   0.09489   0.00000  Uiso   1.00
C330   C     0.41116   0.51005   0.43302   0.00000  Uiso   1.00
C331   C     0.39542   0.50773   0.48624   0.00000  Uiso   1.00
C332   C     0.42861   0.50237   0.01420   0.00000  Uiso   1.00
Cu333  Cu    0.45311   0.49999   0.25000   0.00000  Uiso   1.00
Cu334  Cu    0.54689   0.50001   0.25000   0.00000  Uiso   1.00
H335   H     0.60396   0.46209   0.08959   0.00000  Uiso   1.00
H336   H     0.56038   0.37310   0.18655   0.00000  Uiso   1.00
H337   H     0.36928   0.55860   0.28694   0.00000  Uiso   1.00
H338   H     0.63049   0.44206   0.21195   0.00000  Uiso   1.00
H339   H     0.62499   0.45264   0.49698   0.00000  Uiso   1.00
H340   H     0.38474   0.51425   0.41222   0.00000  Uiso   1.00
H341   H     0.41464   0.49741   0.05490   0.00000  Uiso   1.00
H342   H     0.35716   0.50914   0.00584   0.00000  Uiso   1.00
N343   N     0.38265   0.49999   0.24998   0.00000  Uiso   1.00
N344   N     0.61735   0.50002   0.24999   0.00000  Uiso   1.00
O345   O     0.46042   0.56011   0.25000   0.00000  Uiso   1.00
O346   O     0.53961   0.56012   0.25000   0.00000  Uiso   1.00
O347   O     0.44108   0.49998   0.32549   0.00000  Uiso   1.00
O348   O     0.52027   0.49999   0.32549   0.00000  Uiso   1.00
O349   O     0.46039   0.43988   0.24999   0.00000  Uiso   1.00
O350   O     0.53958   0.43989   0.24999   0.00000  Uiso   1.00
O351   O     0.47973   0.50001   0.17451   0.00000  Uiso   1.00
O352   O     0.55892   0.50002   0.17451   0.00000  Uiso   1.00
C353   C     0.42416   0.37771   0.33014   0.00000  Uiso   1.00
H354   H     0.40203   0.39547   0.31092   0.00000  Uiso   1.00
H355   H     0.39815   0.35735   0.35698   0.00000  Uiso   1.00
H356   H     0.44101   0.39940   0.35297   0.00000  Uiso   1.00
O357   O     0.43568   0.62095   0.32835   0.00000  Uiso   1.00
H358   H     0.43458   0.63459   0.36184   0.00000  Uiso   1.00
O359   O     0.61190   0.56907   0.28385   0.00000  Uiso   1.00
H360   H     0.63252   0.59084   0.29410   0.00000  Uiso   1.00
C361   C     0.39110   0.43215   0.19827   0.00000  Uiso   1.00
H362   H     0.37324   0.41767   0.17045   0.00000  Uiso   1.00
H363   H     0.42726   0.44214   0.17500   0.00000  Uiso   1.00
H364   H     0.39335   0.40771   0.22527   0.00000  Uiso   1.00
C365   C     0.62007   0.46381   0.40241   0.00000  Uiso   1.00
H366   H     0.62386   0.46757   0.36087   0.00000  Uiso   1.00
H367   H     0.65089   0.47981   0.41192   0.00000  Uiso   1.00
H368   H     0.62113   0.43020   0.40934   0.00000  Uiso   1.00
C369   C     0.47292   0.54549   0.09116   0.00000  Uiso   1.00
H370   H     0.49023   0.56723   0.11350   0.00000  Uiso   1.00
H371   H     0.46491   0.56430   0.06103   0.00000  Uiso   1.00
H372   H     0.43849   0.53360   0.11700   0.00000  Uiso   1.00
C373   C     0.56657   0.54567   0.39267   0.00000  Uiso   1.00
H374   H     0.56511   0.56709   0.42590   0.00000  Uiso   1.00
H375   H     0.60515   0.54249   0.37118   0.00000  Uiso   1.00
H376   H     0.54636   0.56029   0.36867   0.00000  Uiso   1.00
C377   C     0.57332   0.62443   0.17114   0.00000  Uiso   1.00
H378   H     0.59489   0.64672   0.14298   0.00000  Uiso   1.00
H379   H     0.59875   0.60792   0.18750   0.00000  Uiso   1.00
H380   H     0.55563   0.60192   0.15008   0.00000  Uiso   1.00
C381   C     0.83386   0.57913   0.24990   0.00000  Uiso   1.00
C382   C     0.81202   0.50203   0.48948   0.00000  Uiso   1.00
C383   C     0.82788   0.50397   0.43544   0.00000  Uiso   1.00
C384   C     0.84738   0.49748   0.01638   0.00000  Uiso   1.00
C385   C     0.89283   0.48068   0.48912   0.00000  Uiso   1.00
C386   C     0.90655   0.48136   0.43515   0.00000  Uiso   1.00
C387   C     0.87810   0.50441   0.41225   0.00000  Uiso   1.00
C388   C     0.84014   0.51019   0.06806   0.00000  Uiso   1.00
C389   C     0.91317   0.47367   0.06904   0.00000  Uiso   1.00
C390   C     0.79365   0.50616   0.40666   0.00000  Uiso   1.00
C391   C     0.86889   0.64595   0.21355   0.00000  Uiso   1.00
C392   C     0.80785   0.50222   0.34980   0.00000  Uiso   1.00
C393   C     0.86734   0.35552   0.21516   0.00000  Uiso   1.00
C394   C     0.83141   0.37623   0.25241   0.00000  Uiso   1.00
C395   C     0.79660   0.35451   0.29048   0.00000  Uiso   1.00
C396   C     0.79938   0.64435   0.29045   0.00000  Uiso   1.00
C397   C     0.83433   0.62387   0.25112   0.00000  Uiso   1.00
C398   C     0.97168   0.53373   0.26835   0.00000  Uiso   1.00
C399   C     0.68734   0.53266   0.27029   0.00000  Uiso   1.00
C400   C     0.69565   0.46790   0.22715   0.00000  Uiso   1.00
C401   C     0.97927   0.46773   0.22895   0.00000  Uiso   1.00
C402   C     0.83249   0.42090   0.25127   0.00000  Uiso   1.00
C403   C     0.85879   0.49962   0.15065   0.00000  Uiso   1.00
C404   C     0.92449   0.46735   0.01623   0.00000  Uiso   1.00
C405   C     0.87181   0.49567   0.09489   0.00000  Uiso   1.00
C406   C     0.74449   0.51005   0.43302   0.00000  Uiso   1.00
C407   C     0.72875   0.50773   0.48624   0.00000  Uiso   1.00
C408   C     0.76194   0.50237   0.01420   0.00000  Uiso   1.00
Cu409  Cu    0.78645   0.49999   0.25000   0.00000  Uiso   1.00
Cu410  Cu    0.88022   0.50001   0.25000   0.00000  Uiso   1.00
H411   H     0.93730   0.46209   0.08959   0.00000  Uiso   1.00
H412   H     0.89372   0.37310   0.18655   0.00000  Uiso   1.00
H413   H     0.70261   0.55860   0.28694   0.00000  Uiso   1.00
H414   H     0.96382   0.44206   0.21195   0.00000  Uiso   1.00
H415   H     0.95833   0.45264   0.49698   0.00000  Uiso   1.00
H416   H     0.71807   0.51425   0.41222   0.00000  Uiso   1.00
H417   H     0.74797   0.49741   0.05490   0.00000  Uiso   1.00
H418   H     0.69049   0.50914   0.00584   0.00000  Uiso   1.00
N419   N     0.71598   0.49999   0.24998   0.00000  Uiso   1.00
N420   N     0.95069   0.50002   0.24999   0.00000  Uiso   1.00
O421   O     0.79375   0.56011   0.25000   0.00000  Uiso   1.00
O422   O     0.87294   0.56012   0.25000   0.00000  Uiso   1.00
O423   O     0.77441   0.49998   0.32549   0.00000  Uiso   1.00
O424   O     0.85360   0.49999   0.32549   0.00000  Uiso   1.00
O425   O     0.79373   0.43988   0.24999   0.00000  Uiso   1.00
O426   O     0.87292   0.43989   0.24999   0.00000  Uiso   1.00
O427   O     0.81306   0.50001   0.17451   0.00000  Uiso   1.00
O428   O     0.89225   0.50002   0.17451   0.00000  Uiso   1.00
C429   C     0.75749   0.37771   0.33014   0.00000  Uiso   1.00
H430   H     0.73536   0.39547   0.31092   0.00000  Uiso   1.00
H431   H     0.73148   0.35735   0.35698   0.00000  Uiso   1.00
H432   H     0.77434   0.39940   0.35297   0.00000  Uiso   1.00
O433   O     0.76901   0.62095   0.32835   0.00000  Uiso   1.00
H434   H     0.76791   0.63459   0.36184   0.00000  Uiso   1.00
O435   O     0.94523   0.56907   0.28385   0.00000  Uiso   1.00
H436   H     0.96586   0.59084   0.29410   0.00000  Uiso   1.00
C437   C     0.72443   0.43215   0.19827   0.00000  Uiso   1.00
H438   H     0.70658   0.41767   0.17045   0.00000  Uiso   1.00
H439   H     0.76059   0.44214   0.17500   0.00000  Uiso   1.00
H440   H     0.72668   0.40771   0.22527   0.00000  Uiso   1.00
C441   C     0.95341   0.46381   0.40241   0.00000  Uiso   1.00
H442   H     0.95719   0.46757   0.36087   0.00000  Uiso   1.00
H443   H     0.98422   0.47981   0.41192   0.00000  Uiso   1.00
H444   H     0.95447   0.43020   0.40934   0.00000  Uiso   1.00
C445   C     0.80625   0.54549   0.09116   0.00000  Uiso   1.00
H446   H     0.82357   0.56723   0.11350   0.00000  Uiso   1.00
H447   H     0.79825   0.56430   0.06103   0.00000  Uiso   1.00
H448   H     0.77182   0.53360   0.11700   0.00000  Uiso   1.00
C449   C     0.89990   0.54567   0.39267   0.00000  Uiso   1.00
H450   H     0.89844   0.56709   0.42590   0.00000  Uiso   1.00
H451   H     0.93848   0.54249   0.37118   0.00000  Uiso   1.00
H452   H     0.87969   0.56029   0.36867   0.00000  Uiso   1.00
C453   C     0.90665   0.62443   0.17114   0.00000  Uiso   1.00
H454   H     0.92822   0.64672   0.14298   0.00000  Uiso   1.00
H455   H     0.93208   0.60792   0.18750   0.00000  Uiso   1.00
H456   H     0.88896   0.60192   0.15008   0.00000  Uiso   1.00
C457   C     0.16719   0.91246   0.24990   0.00000  Uiso   1.00
C458   C     0.14535   0.83536   0.48948   0.00000  Uiso   1.00
C459   C     0.16121   0.83730   0.43544   0.00000  Uiso   1.00
C460   C     0.18071   0.83081   0.01638   0.00000  Uiso   1.00
C461   C     0.22617   0.81401   0.48912   0.00000  Uiso   1.00
C462   C     0.23988   0.81469   0.43515   0.00000  Uiso   1.00
C463   C     0.21143   0.83774   0.41225   0.00000  Uiso   1.00
C464   C     0.17348   0.84352   0.06806   0.00000  Uiso   1.00
C465   C     0.24650   0.80701   0.06904   0.00000  Uiso   1.00
C466   C     0.12698   0.83950   0.40666   0.00000  Uiso   1.00
C467   C     0.20222   0.97929   0.21355   0.00000  Uiso   1.00
C468   C     0.14119   0.83555   0.34980   0.00000  Uiso   1.00
C469   C     0.20068   0.68886   0.21516   0.00000  Uiso   1.00
C470   C     0.16475   0.70956   0.25241   0.00000  Uiso   1.00
C471   C     0.12994   0.68784   0.29048   0.00000  Uiso   1.00
C472   C     0.13271   0.97769   0.29045   0.00000  Uiso   1.00
C473   C     0.16766   0.95720   0.25112   0.00000  Uiso   1.00
C474   C     0.30501   0.86706   0.26835   0.00000  Uiso   1.00
C475   C     0.02067   0.86599   0.27029   0.00000  Uiso   1.00
C476   C     0.02899   0.80123   0.22715   0.00000  Uiso   1.00
C477   C     0.31261   0.80106   0.22895   0.00000  Uiso   1.00
C478   C     0.16582   0.75423   0.25127   0.00000  Uiso   1.00
C479   C     0.19212   0.83295   0.15065   0.00000  Uiso   1.00
C480   C     0.25783   0.80068   0.01623   0.00000  Uiso   1.00
C481   C     0.20514   0.82900   0.09489   0.00000  Uiso   1.00
C482   C     0.07783   0.84338   0.43302   0.00000  Uiso   1.00
C483   C     0.06209   0.84106   0.48624   0.00000  Uiso   1.00
C484   C     0.09527   0.83570   0.01420   0.00000  Uiso   1.00
Cu485  Cu    0.11978   0.83333   0.25000   0.00000  Uiso   1.00
Cu486  Cu    0.21355   0.83334   0.25000   0.00000  Uiso   1.00
H487   H     0.27063   0.79542   0.08959   0.00000  Uiso   1.00
H488   H     0.22705   0.70643   0.18655   0.00000  Uiso   1.00
H489   H     0.03594   0.89193   0.28694   0.00000  Uiso   1.00
H490   H     0.29715   0.77539   0.21195   0.00000  Uiso   1.00
H491   H     0.29166   0.78597   0.49698   0.00000  Uiso   1.00
H492   H     0.05140   0.84758   0.41222   0.00000  Uiso   1.00
H493   H     0.08130   0.83074   0.05490   0.00000  Uiso   1.00
H494   H     0.02383   0.84248   0.00584   0.00000  Uiso   1.00
N495   N     0.04931   0.83332   0.24998   0.00000  Uiso   1.00
N496   N     0.28402   0.83335   0.24999   0.00000  Uiso   1.00
O497   O     0.12708   0.89345   0.25000   0.00000  Uiso   1.00
O498   O     0.20627   0.89346   0.25000   0.00000  Uiso   1.00
O499   O     0.10775   0.83332   0.32549   0.00000  Uiso   1.00
O500   O     0.18694   0.83333   0.32549   0.00000  Uiso   1.00
O501   O     0.12706   0.77321   0.24999   0.00000  Uiso   1.00
O502   O     0.20625   0.77322   0.24999   0.00000  Uiso   1.00
O503   O     0.14640   0.83334   0.17451   0.00000  Uiso   1.00
O504   O     0.22559   0.83335   0.17451   0.00000  Uiso   1.00
C505   C     0.09082   0.71104   0.33014   0.00000  Uiso   1.00
H506   H     0.06870   0.72881   0.31092   0.00000  Uiso   1.00
H507   H     0.06481   0.69068   0.35698   0.00000  Uiso   1.00
H508   H     0.10767   0.73274   0.35297   0.00000  Uiso   1.00
O509   O     0.10235   0.95429   0.32835   0.00000  Uiso   1.00
H510   H     0.10124   0.96792   0.36184   0.00000  Uiso   1.00
O511   O     0.27856   0.90240   0.28385   0.00000  Uiso   1.00
H512   H     0.29919   0.92417   0.29410   0.00000  Uiso   1.00
C513   C     0.05777   0.76549   0.19827   0.00000  Uiso   1.00
H514   H     0.03991   0.75100   0.17045   0.00000  Uiso   1.00
H515   H     0.09393   0.77547   0.17500   0.00000  Uiso   1.00
H516   H     0.06001   0.74105   0.22527   0.00000  Uiso   1.00
C517   C     0.28674   0.79714   0.40241   0.00000  Uiso   1.00
H518   H     0.29053   0.80090   0.36087   0.00000  Uiso   1.00
H519   H     0.31756   0.81314   0.41192   0.00000  Uiso   1.00
H520   H     0.28780   0.76353   0.40934   0.00000  Uiso   1.00
C521   C     0.13959   0.87882   0.09116   0.00000  Uiso   1.00
H522   H     0.15690   0.90057   0.11350   0.00000  Uiso   1.00
H523   H     0.13158   0.89763   0.06103   0.00000  Uiso   1.00
H524   H     0.10516   0.86694   0.11700   0.00000  Uiso   1.00
C525   C     0.23324   0.87901   0.39267   0.00000  Uiso   1.00
H526   H     0.23177   0.90042   0.42590   0.00000  Uiso   1.00
H527   H     0.27182   0.87583   0.37118   0.00000  Uiso   1.00
H528   H     0.21303   0.89363   0.36867   0.00000  Uiso   1.00
C529   C     0.23999   0.95777   0.17114   0.00000  Uiso   1.00
H530   H     0.26156   0.98005   0.14298   0.00000  Uiso   1.00
H531   H     0.26541   0.94125   0.18750   0.00000  Uiso   1.00
H532   H     0.22229   0.93526   0.15008   0.00000  Uiso   1.00
C533   C     0.50052   0.91246   0.24990   0.00000  Uiso   1.00
C534   C     0.47869   0.83536   0.48948   0.00000  Uiso   1.00
C535   C     0.49454   0.83730   0.43544   0.00000  Uiso   1.00
C536   C     0.51404   0.83081   0.01638   0.00000  Uiso   1.00
C537   C     0.55950   0.81401   0.48912   0.00000  Uiso   1.00
C538   C     0.57322   0.81469   0.43515   0.00000  Uiso   1.00
C539   C     0.54477   0.83774   0.41225   0.00000  Uiso   1.00
C540   C     0.50681   0.84352   0.06806   0.00000  Uiso   1.00
C541   C     0.57983   0.80701   0.06904   0.00000  Uiso   1.00
C542   C     0.46031   0.83950   0.40666   0.00000  Uiso   1.00
C543   C     0.53555   0.97929   0.21355   0.00000  Uiso   1.00
C544   C     0.47452   0.83555   0.34980   0.00000  Uiso   1.00
C545   C     0.53401   0.68886   0.21516   0.00000  Uiso   1.00
C546   C     0.49808   0.70956   0.25241   0.00000  Uiso   1.00
C547   C     0.46327   0.68784   0.29048   0.00000  Uiso   1.00
C548   C     0.46604   0.97769   0.29045   0.00000  Uiso   1.00
C549   C     0.50100   0.95720   0.25112   0.00000  Uiso   1.00
C550   C     0.63835   0.86706   0.26835   0.00000  Uiso   1.00
C551   C     0.35401   0.86599   0.27029   0.00000  Uiso   1.00
C552   C     0.36232   0.80123   0.22715   0.00000  Uiso   1.00
C553   C     0.64594   0.80106   0.22895   0.00000  Uiso   1.00
C554   C     0.49916   0.75423   0.25127   0.00000  Uiso   1.00
C555   C     0.52545   0.83295   0.15065   0.00000  Uiso   1.00
C556   C     0.59116   0.80068   0.01623   0.00000  Uiso   1.00
C557   C     0.53848   0.82900   0.09489   0.00000  Uiso   1.00
C558   C     0.41116   0.84338   0.43302   0.00000  Uiso   1.00
C559   C     0.39542   0.84106   0.48624   0.00000  Uiso   1.00
C560   C     0.42861   0.83570   0.01420   0.00000  Uiso   1.00
Cu561  Cu    0.45311   0.83333   0.25000   0.00000  Uiso   1.00
Cu562  Cu    0.54689   0.83334   0.25000   0.00000  Uiso   1.00
H563   H     0.60396   0.79542   0.08959   0.00000  Uiso   1.00
H564   H     0.56038   0.70643   0.18655   0.00000  Uiso   1.00
H565   H     0.36928   0.89193   0.28694   0.00000  Uiso   1.00
H566   H     0.63049   0.77539   0.21195   0.00000  Uiso   1.00
H567   H     0.62499   0.78597   0.49698   0.00000  Uiso   1.00
H568   H     0.38474   0.84758   0.41222   0.00000  Uiso   1.00
H569   H     0.41464   0.83074   0.05490   0.00000  Uiso   1.00
H570   H     0.35716   0.84248   0.00584   0.00000  Uiso   1.00
N571   N     0.38265   0.83332   0.24998   0.00000  Uiso   1.00
N572   N     0.61735   0.83335   0.24999   0.00000  Uiso   1.00
O573   O     0.46042   0.89345   0.25000   0.00000  Uiso   1.00
O574   O     0.53961   0.89346   0.25000   0.00000  Uiso   1.00
O575   O     0.44108   0.83332   0.32549   0.00000  Uiso   1.00
O576   O     0.52027   0.83333   0.32549   0.00000  Uiso   1.00
O577   O     0.46039   0.77321   0.24999   0.00000  Uiso   1.00
O578   O     0.53958   0.77322   0.24999   0.00000  Uiso   1.00
O579   O     0.47973   0.83334   0.17451   0.00000  Uiso   1.00
O580   O     0.55892   0.83335   0.17451   0.00000  Uiso   1.00
C581   C     0.42416   0.71104   0.33014   0.00000  Uiso   1.00
H582   H     0.40203   0.72881   0.31092   0.00000  Uiso   1.00
H583   H     0.39815   0.69068   0.35698   0.00000  Uiso   1.00
H584   H     0.44101   0.73274   0.35297   0.00000  Uiso   1.00
O585   O     0.43568   0.95429   0.32835   0.00000  Uiso   1.00
H586   H     0.43458   0.96792   0.36184   0.00000  Uiso   1.00
O587   O     0.61190   0.90240   0.28385   0.00000  Uiso   1.00
H588   H     0.63252   0.92417   0.29410   0.00000  Uiso   1.00
C589   C     0.39110   0.76549   0.19827   0.00000  Uiso   1.00
H590   H     0.37324   0.75100   0.17045   0.00000  Uiso   1.00
H591   H     0.42726   0.77547   0.17500   0.00000  Uiso   1.00
H592   H     0.39335   0.74105   0.22527   0.00000  Uiso   1.00
C593   C     0.62007   0.79714   0.40241   0.00000  Uiso   1.00
H594   H     0.62386   0.80090   0.36087   0.00000  Uiso   1.00
H595   H     0.65089   0.81314   0.41192   0.00000  Uiso   1.00
H596   H     0.62113   0.76353   0.40934   0.00000  Uiso   1.00
C597   C     0.47292   0.87882   0.09116   0.00000  Uiso   1.00
H598   H     0.49023   0.90057   0.11350   0.00000  Uiso   1.00
H599   H     0.46491   0.89763   0.06103   0.00000  Uiso   1.00
H600   H     0.43849   0.86694   0.11700   0.00000  Uiso   1.00
C601   C     0.56657   0.87901   0.39267   0.00000  Uiso   1.00
H602   H     0.56511   0.90042   0.42590   0.00000  Uiso   1.00
H603   H     0.60515   0.87583   0.37118   0.00000  Uiso   1.00
H604   H     0.54636   0.89363   0.36867   0.00000  Uiso   1.00
C605   C     0.57332   0.95777   0.17114   0.00000  Uiso   1.00
H606   H     0.59489   0.98005   0.14298   0.00000  Uiso   1.00
H607   H     0.59875   0.94125   0.18750   0.00000  Uiso   1.00
H608   H     0.55563   0.93526   0.15008   0.00000  Uiso   1.00
C609   C     0.83386   0.91246   0.24990   0.00000  Uiso   1.00
C610   C     0.81202   0.83536   0.48948   0.00000  Uiso   1.00
C611   C     0.82788   0.83730   0.43544   0.00000  Uiso   1.00
C612   C     0.84738   0.83081   0.01638   0.00000  Uiso   1.00
C613   C     0.89283   0.81401   0.48912   0.00000  Uiso   1.00
C614   C     0.90655   0.81469   0.43515   0.00000  Uiso   1.00
C615   C     0.87810   0.83774   0.41225   0.00000  Uiso   1.00
C616   C     0.84014   0.84352   0.06806   0.00000  Uiso   1.00
C617   C     0.91317   0.80701   0.06904   0.00000  Uiso   1.00
C618   C     0.79365   0.83950   0.40666   0.00000  Uiso   1.00
C619   C     0.86889   0.97929   0.21355   0.00000  Uiso   1.00
C620   C     0.80785   0.83555   0.34980   0.00000  Uiso   1.00
C621   C     0.86734   0.68886   0.21516   0.00000  Uiso   1.00
C622   C     0.83141   0.70956   0.25241   0.00000  Uiso   1.00
C623   C     0.79660   0.68784   0.29048   0.00000  Uiso   1.00
C624   C     0.79938   0.97769   0.29045   0.00000  Uiso   1.00
C625   C     0.83433   0.95720   0.25112   0.00000  Uiso   1.00
C626   C     0.97168   0.86706   0.26835   0.00000  Uiso   1.00
C627   C     0.68734   0.86599   0.27029   0.00000  Uiso   1.00
C628   C     0.69565   0.80123   0.22715   0.00000  Uiso   1.00
C629   C     0.97927   0.80106   0.22895   0.00000  Uiso   1.00
C630   C     0.83249   0.75423   0.25127   0.00000  Uiso   1.00
C631   C     0.85879   0.83295   0.15065   0.00000  Uiso   1.00
C632   C     0.92449   0.80068   0.01623   0.00000  Uiso   1.00
C633   C     0.87181   0.82900   0.09489   0.00000  Uiso   1.00
C634   C     0.74449   0.84338   0.43302   0.00000  Uiso   1.00
C635   C     0.72875   0.84106   0.48624   0.00000  Uiso   1.00
C636   C     0.76194   0.83570   0.01420   0.00000  Uiso   1.00
Cu637  Cu    0.78645   0.83333   0.25000   0.00000  Uiso   1.00
Cu638  Cu    0.88022   0.83334   0.25000   0.00000  Uiso   1.00
H639   H     0.93730   0.79542   0.08959   0.00000  Uiso   1.00
H640   H     0.89372   0.70643   0.18655   0.00000  Uiso   1.00
H641   H     0.70261   0.89193   0.28694   0.00000  Uiso   1.00
H642   H     0.96382   0.77539   0.21195   0.00000  Uiso   1.00
H643   H     0.95833   0.78597   0.49698   0.00000  Uiso   1.00
H644   H     0.71807   0.84758   0.41222   0.00000  Uiso   1.00
H645   H     0.74797   0.83074   0.05490   0.00000  Uiso   1.00
H646   H     0.69049   0.84248   0.00584   0.00000  Uiso   1.00
N647   N     0.71598   0.83332   0.24998   0.00000  Uiso   1.00
N648   N     0.95069   0.83335   0.24999   0.00000  Uiso   1.00
O649   O     0.79375   0.89345   0.25000   0.00000  Uiso   1.00
O650   O     0.87294   0.89346   0.25000   0.00000  Uiso   1.00
O651   O     0.77441   0.83332   0.32549   0.00000  Uiso   1.00
O652   O     0.85360   0.83333   0.32549   0.00000  Uiso   1.00
O653   O     0.79373   0.77321   0.24999   0.00000  Uiso   1.00
O654   O     0.87292   0.77322   0.24999   0.00000  Uiso   1.00
O655   O     0.81306   0.83334   0.17451   0.00000  Uiso   1.00
O656   O     0.89225   0.83335   0.17451   0.00000  Uiso   1.00
C657   C     0.75749   0.71104   0.33014   0.00000  Uiso   1.00
H658   H     0.73536   0.72881   0.31092   0.00000  Uiso   1.00
H659   H     0.73148   0.69068   0.35698   0.00000  Uiso   1.00
H660   H     0.77434   0.73274   0.35297   0.00000  Uiso   1.00
O661   O     0.76901   0.95429   0.32835   0.00000  Uiso   1.00
H662   H     0.76791   0.96792   0.36184   0.00000  Uiso   1.00
O663   O     0.94523   0.90240   0.28385   0.00000  Uiso   1.00
H664   H     0.96586   0.92417   0.29410   0.00000  Uiso   1.00
C665   C     0.72443   0.76549   0.19827   0.00000  Uiso   1.00
H666   H     0.70658   0.75100   0.17045   0.00000  Uiso   1.00
H667   H     0.76059   0.77547   0.17500   0.00000  Uiso   1.00
H668   H     0.72668   0.74105   0.22527   0.00000  Uiso   1.00
C669   C     0.95341   0.79714   0.40241   0.00000  Uiso   1.00
H670   H     0.95719   0.80090   0.36087   0.00000  Uiso   1.00
H671   H     0.98422   0.81314   0.41192   0.00000  Uiso   1.00
H672   H     0.95447   0.76353   0.40934   0.00000  Uiso   1.00
C673   C     0.80625   0.87882   0.09116   0.00000  Uiso   1.00
H674   H     0.82357   0.90057   0.11350   0.00000  Uiso   1.00
H675   H     0.79825   0.89763   0.06103   0.00000  Uiso   1.00
H676   H     0.77182   0.86694   0.11700   0.00000  Uiso   1.00
C677   C     0.89990   0.87901   0.39267   0.00000  Uiso   1.00
H678   H     0.89844   0.90042   0.42590   0.00000  Uiso   1.00
H679   H     0.93848   0.87583   0.37118   0.00000  Uiso   1.00
H680   H     0.87969   0.89363   0.36867   0.00000  Uiso   1.00
C681   C     0.90665   0.95777   0.17114   0.00000  Uiso   1.00
H682   H     0.92822   0.98005   0.14298   0.00000  Uiso   1.00
H683   H     0.93208   0.94125   0.18750   0.00000  Uiso   1.00
H684   H     0.88896   0.93526   0.15008   0.00000  Uiso   1.00
C685   C     0.16719   0.24580   0.74990   0.00000  Uiso   1.00
C686   C     0.14535   0.16869   0.98948   0.00000  Uiso   1.00
C687   C     0.16121   0.17064   0.93544   0.00000  Uiso   1.00
C688   C     0.18071   0.16415   0.51638   0.00000  Uiso   1.00
C689   C     0.22617   0.14734   0.98912   0.00000  Uiso   1.00
C690   C     0.23988   0.14802   0.93515   0.00000  Uiso   1.00
C691   C     0.21143   0.17107   0.91225   0.00000  Uiso   1.00
C692   C     0.17348   0.17686   0.56806   0.00000  Uiso   1.00
C693   C     0.24650   0.14034   0.56904   0.00000  Uiso   1.00
C694   C     0.12698   0.17283   0.90666   0.00000  Uiso   1.00
C695   C     0.20222   0.31262   0.71355   0.00000  Uiso   1.00
C696   C     0.14119   0.16888   0.84980   0.00000  Uiso   1.00
C697   C     0.20068   0.02219   0.71516   0.00000  Uiso   1.00
C698   C     0.16475   0.04290   0.75241   0.00000  Uiso   1.00
C699   C     0.12994   0.02118   0.79048   0.00000  Uiso   1.00
C700   C     0.13271   0.31102   0.79045   0.00000  Uiso   1.00
C701   C     0.16766   0.29054   0.75112   0.00000  Uiso   1.00
C702   C     0.30501   0.20040   0.76835   0.00000  Uiso   1.00
C703   C     0.02067   0.19932   0.77029   0.00000  Uiso   1.00
C704   C     0.02899   0.13456   0.72715   0.00000  Uiso   1.00
C705   C     0.31261   0.13439   0.72895   0.00000  Uiso   1.00
C706   C     0.16582   0.08756   0.75127   0.00000  Uiso   1.00
C707   C     0.19212   0.16629   0.65065   0.00000  Uiso   1.00
C708   C     0.25783   0.13401   0.51623   0.00000  Uiso   1.00
C709   C     0.20514   0.16233   0.59489   0.00000  Uiso   1.00
C710   C     0.07783   0.17671   0.93302   0.00000  Uiso   1.00
C711   C     0.06209   0.17439   0.98624   0.00000  Uiso   1.00
C712   C     0.09527   0.16903   0.51420   0.00000  Uiso   1.00
Cu713  Cu    0.11978   0.16666   0.75000   0.00000  Uiso   1.00
Cu714  Cu    0.21355   0.16667   0.75000   0.00000  Uiso   1.00
H715   H     0.27063   0.12876   0.58959   0.00000  Uiso   1.00
H716   H     0.22705   0.03976   0.68655   0.00000  Uiso   1.00
H717   H     0.03594   0.22527   0.78694   0.00000  Uiso   1.00
H718   H     0.29715   0.10873   0.71195   0.00000  Uiso   1.00
H719   H     0.29166   0.11930   0.99698   0.00000  Uiso   1.00
H720   H     0.05140   0.18091   0.91222   0.00000  Uiso   1.00
H721   H     0.08130   0.16408   0.55490   0.00000  Uiso   1.00
H722   H     0.02383   0.17581   0.50584   0.00000  Uiso   1.00
N723   N     0.04931   0.16666   0.74998   0.00000  Uiso   1.00
N724   N     0.28402   0.16669   0.74999   0.00000  Uiso   1.00
O725   O     0.12708   0.22678   0.75000   0.00000  Uiso   1.00
O726   O     0.20627   0.22679   0.75000   0.00000  Uiso   1.00
O727   O     0.10775   0.16665   0.82549   0.00000  Uiso   1.00
O728   O     0.18694   0.16666   0.82549   0.00000  Uiso   1.00
O729   O     0.12706   0.10654   0.74999   0.00000  Uiso   1.00
O730   O     0.20625   0.10655   0.74999   0.00000  Uiso   1.00
O731   O     0.14640   0.16667   0.67451   0.00000  Uiso   1.00
O732   O     0.22559   0.16668   0.67451   0.00000  Uiso   1.00
C733   C     0.09082   0.04438   0.83014   0.00000  Uiso   1.00
H734   H     0.06870   0.06214   0.81092   0.00000  Uiso   1.00
H735   H     0.06481   0.02402   0.85698   0.00000  Uiso   1.00
H736   H     0.10767   0.06607   0.85297   0.00000  Uiso   1.00
O737   O     0.10235   0.28762   0.82835   0.00000  Uiso   1.00
H738   H     0.10124   0.30126   0.86184   0.00000  Uiso   1.00
O739   O     0.27856   0.23573   0.78385   0.00000  Uiso   1.00
H740   H     0.29919   0.25750   0.79410   0.00000  Uiso   1.00
C741   C     0.05777   0.09882   0.69827   0.00000  Uiso   1.00
H742   H     0.03991   0.08434   0.67045   0.00000  Uiso   1.00
H743   H     0.09393   0.10880   0.67500   0.00000  Uiso   1.00
H744   H     0.06001   0.07438   0.72527   0.00000  Uiso   1.00
C745   C     0.28674   0.13048   0.90241   0.00000  Uiso   1.00
H746   H     0.29053   0.13423   0.86087   0.00000  Uiso   1.00
H747   H     0.31756   0.14648   0.91192   0.00000  Uiso   1.00
H748   H     0.28780   0.09686   0.90934   0.00000  Uiso   1.00
C749   C     0.13959   0.21216   0.59116   0.00000  Uiso   1.00
H750   H     0.15690   0.23390   0.61350   0.00000  Uiso   1.00
H751   H     0.13158   0.23097   0.56103   0.00000  Uiso   1.00
H752   H     0.10516   0.20027   0.61700   0.00000  Uiso   1.00
C753   C     0.23324   0.21234   0.89267   0.00000  Uiso   1.00
H754   H     0.23177   0.23375   0.92590   0.00000  Uiso   1.00
H755   H     0.27182   0.20916   0.87118   0.00000  Uiso   1.00
H756   H     0.21303   0.22696   0.86867   0.00000  Uiso   1.00
C757   C     0.23999   0.29110   0.67114   0.00000  Uiso   1.00
H758   H     0.26156   0.31339   0.64298   0.00000  Uiso   1.00
H759   H     0.26541   0.27459   0.68750   0.00000  Uiso   1.00
H760   H     0.22229   0.26859   0.65008   0.00000  Uiso   1.00
C761   C     0.50052   0.24580   0.74990   0.00000  Uiso   1.00
C762   C     0.47869   0.16869   0.98948   0.00000  Uiso   1.00
C763   C     0.49454   0.17064   0.93544   0.00000  Uiso   1.00
C764   C     0.51404   0.16415   0.51638   0.00000  Uiso   1.00
C765   C     0.55950   0.14734   0.98912   0.00000  Uiso   1.00
C766   C     0.57322   0.14802   0.93515   0.00000  Uiso   1.00
C767   C     0.54477   0.17107   0.91225   0.00000  Uiso   1.00
C768   C     0.50681   0.17686   0.56806   0.00000  Uiso   1.00
C769   C     0.57983   0.14034   0.56904   0.00000  Uiso   1.00
C770   C     0.46031   0.17283   0.90666   0.00000  Uiso   1.00
C771   C     0.53555   0.31262   0.71355   0.00000  Uiso   1.00
C772   C     0.47452   0.16888   0.84980   0.00000  Uiso   1.00
C773   C     0.53401   0.02219   0.71516   0.00000  Uiso   1.00
C774   C     0.49808   0.04290   0.75241   0.00000  Uiso   1.00
C775   C     0.46327   0.02118   0.79048   0.00000  Uiso   1.00
C776   C     0.46604   0.31102   0.79045   0.00000  Uiso   1.00
C777   C     0.50100   0.29054   0.75112   0.00000  Uiso   1.00
C778   C     0.63835   0.20040   0.76835   0.00000  Uiso   1.00
C779   C     0.35401   0.19932   0.77029   0.00000  Uiso   1.00
C780   C     0.36232   0.13456   0.72715   0.00000  Uiso   1.00
C781   C     0.64594   0.13439   0.72895   0.00000  Uiso   1.00
C782   C     0.49916   0.08756   0.75127   0.00000  Uiso   1.00
C783   C     0.52545   0.16629   0.65065   0.00000  Uiso   1.00
C784   C     0.59116   0.13401   0.51623   0.00000  Uiso   1.00
C785   C     0.53848   0.16233   0.59489   0.00000  Uiso   1.00
C786   C     0.41116   0.17671   0.93302   0.00000  Uiso   1.00
C787   C     0.39542   0.17439   0.98624   0.00000  Uiso   1.00
C788   C     0.42861   0.16903   0.51420   0.00000  Uiso   1.00
Cu789  Cu    0.45311   0.16666   0.75000   0.00000  Uiso   1.00
Cu790  Cu    0.54689   0.16667   0.75000   0.00000  Uiso   1.00
H791   H     0.60396   0.12876   0.58959   0.00000  Uiso   1.00
H792   H     0.56038   0.03976   0.68655   0.00000  Uiso   1.00
H793   H     0.36928   0.22527   0.78694   0.00000  Uiso   1.00
H794   H     0.63049   0.10873   0.71195   0.00000  Uiso   1.00
H795   H     0.62499   0.11930   0.99698   0.00000  Uiso   1.00
H796   H     0.38474   0.18091   0.91222   0.00000  Uiso   1.00
H797   H     0.41464   0.16408   0.55490   0.00000  Uiso   1.00
H798   H     0.35716   0.17581   0.50584   0.00000  Uiso   1.00
N799   N     0.38265   0.16666   0.74998   0.00000  Uiso   1.00
N800   N     0.61735   0.16669   0.74999   0.00000  Uiso   1.00
O801   O     0.46042   0.22678   0.75000   0.00000  Uiso   1.00
O802   O     0.53961   0.22679   0.75000   0.00000  Uiso   1.00
O803   O     0.44108   0.16665   0.82549   0.00000  Uiso   1.00
O804   O     0.52027   0.16666   0.82549   0.00000  Uiso   1.00
O805   O     0.46039   0.10654   0.74999   0.00000  Uiso   1.00
O806   O     0.53958   0.10655   0.74999   0.00000  Uiso   1.00
O807   O     0.47973   0.16667   0.67451   0.00000  Uiso   1.00
O808   O     0.55892   0.16668   0.67451   0.00000  Uiso   1.00
C809   C     0.42416   0.04438   0.83014   0.00000  Uiso   1.00
H810   H     0.40203   0.06214   0.81092   0.00000  Uiso   1.00
H811   H     0.39815   0.02402   0.85698   0.00000  Uiso   1.00
H812   H     0.44101   0.06607   0.85297   0.00000  Uiso   1.00
O813   O     0.43568   0.28762   0.82835   0.00000  Uiso   1.00
H814   H     0.43458   0.30126   0.86184   0.00000  Uiso   1.00
O815   O     0.61190   0.23573   0.78385   0.00000  Uiso   1.00
H816   H     0.63252   0.25750   0.79410   0.00000  Uiso   1.00
C817   C     0.39110   0.09882   0.69827   0.00000  Uiso   1.00
H818   H     0.37324   0.08434   0.67045   0.00000  Uiso   1.00
H819   H     0.42726   0.10880   0.67500   0.00000  Uiso   1.00
H820   H     0.39335   0.07438   0.72527   0.00000  Uiso   1.00
C821   C     0.62007   0.13048   0.90241   0.00000  Uiso   1.00
H822   H     0.62386   0.13423   0.86087   0.00000  Uiso   1.00
H823   H     0.65089   0.14648   0.91192   0.00000  Uiso   1.00
H824   H     0.62113   0.09686   0.90934   0.00000  Uiso   1.00
C825   C     0.47292   0.21216   0.59116   0.00000  Uiso   1.00
H826   H     0.49023   0.23390   0.61350   0.00000  Uiso   1.00
H827   H     0.46491   0.23097   0.56103   0.00000  Uiso   1.00
H828   H     0.43849   0.20027   0.61700   0.00000  Uiso   1.00
C829   C     0.56657   0.21234   0.89267   0.00000  Uiso   1.00
H830   H     0.56511   0.23375   0.92590   0.00000  Uiso   1.00
H831   H     0.60515   0.20916   0.87118   0.00000  Uiso   1.00
H832   H     0.54636   0.22696   0.86867   0.00000  Uiso   1.00
C833   C     0.57332   0.29110   0.67114   0.00000  Uiso   1.00
H834   H     0.59489   0.31339   0.64298   0.00000  Uiso   1.00
H835   H     0.59875   0.27459   0.68750   0.00000  Uiso   1.00
H836   H     0.55563   0.26859   0.65008   0.00000  Uiso   1.00
C837   C     0.83386   0.24580   0.74990   0.00000  Uiso   1.00
C838   C     0.81202   0.16869   0.98948   0.00000  Uiso   1.00
C839   C     0.82788   0.17064   0.93544   0.00000  Uiso   1.00
C840   C     0.84738   0.16415   0.51638   0.00000  Uiso   1.00
C841   C     0.89283   0.14734   0.98912   0.00000  Uiso   1.00
C842   C     0.90655   0.14802   0.93515   0.00000  Uiso   1.00
C843   C     0.87810   0.17107   0.91225   0.00000  Uiso   1.00
C844   C     0.84014   0.17686   0.56806   0.00000  Uiso   1.00
C845   C     0.91317   0.14034   0.56904   0.00000  Uiso   1.00
C846   C     0.79365   0.17283   0.90666   0.00000  Uiso   1.00
C847   C     0.86889   0.31262   0.71355   0.00000  Uiso   1.00
C848   C     0.80785   0.16888   0.84980   0.00000  Uiso   1.00
C849   C     0.86734   0.02219   0.71516   0.00000  Uiso   1.00
C850   C     0.83141   0.04290   0.75241   0.00000  Uiso   1.00
C851   C     0.79660   0.02118   0.79048   0.00000  Uiso   1.00
C852   C     0.79938   0.31102   0.79045   0.00000  Uiso   1.00
C853   C     0.83433   0.29054   0.75112   0.00000  Uiso   1.00
C854   C     0.97168   0.20040   0.76835   0.00000  Uiso   1.00
C855   C     0.68734   0.19932   0.77029   0.00000  Uiso   1.00
C856   C     0.69565   0.13456   0.72715   0.00000  Uiso   1.00
C857   C     0.97927   0.13439   0.72895   0.00000  Uiso   1.00
C858   C     0.83249   0.08756   0.75127   0.00000  Uiso   1.00
C859   C     0.85879   0.16629   0.65065   0.00000  Uiso   1.00
C860   C     0.92449   0.13401   0.51623   0.00000  Uiso   1.00
C861   C     0.87181   0.16233   0.59489   0.00000  Uiso   1.00
C862   C     0.74449   0.17671   0.93302   0.00000  Uiso   1.00
C863   C     0.72875   0.17439   0.98624   0.00000  Uiso   1.00
C864   C     0.76194   0.16903   0.51420   0.00000  Uiso   1.00
Cu865  Cu    0.78645   0.16666   0.75000   0.00000  Uiso   1.00
Cu866  Cu    0.88022   0.16667   0.75000   0.00000  Uiso   1.00
H867   H     0.93730   0.12876   0.58959   0.00000  Uiso   1.00
H868   H     0.89372   0.03976   0.68655   0.00000  Uiso   1.00
H869   H     0.70261   0.22527   0.78694   0.00000  Uiso   1.00
H870   H     0.96382   0.10873   0.71195   0.00000  Uiso   1.00
H871   H     0.95833   0.11930   0.99698   0.00000  Uiso   1.00
H872   H     0.71807   0.18091   0.91222   0.00000  Uiso   1.00
H873   H     0.74797   0.16408   0.55490   0.00000  Uiso   1.00
H874   H     0.69049   0.17581   0.50584   0.00000  Uiso   1.00
N875   N     0.71598   0.16666   0.74998   0.00000  Uiso   1.00
N876   N     0.95069   0.16669   0.74999   0.00000  Uiso   1.00
O877   O     0.79375   0.22678   0.75000   0.00000  Uiso   1.00
O878   O     0.87294   0.22679   0.75000   0.00000  Uiso   1.00
O879   O     0.77441   0.16665   0.82549   0.00000  Uiso   1.00
O880   O     0.85360   0.16666   0.82549   0.00000  Uiso   1.00
O881   O     0.79373   0.10654   0.74999   0.00000  Uiso   1.00
O882   O     0.87292   0.10655   0.74999   0.00000  Uiso   1.00
O883   O     0.81306   0.16667   0.67451   0.00000  Uiso   1.00
O884   O     0.89225   0.16668   0.67451   0.00000  Uiso   1.00
C885   C     0.75749   0.04438   0.83014   0.00000  Uiso   1.00
H886   H     0.73536   0.06214   0.81092   0.00000  Uiso   1.00
H887   H     0.73148   0.02402   0.85698   0.00000  Uiso   1.00
H888   H     0.77434   0.06607   0.85297   0.00000  Uiso   1.00
O889   O     0.76901   0.28762   0.82835   0.00000  Uiso   1.00
H890   H     0.76791   0.30126   0.86184   0.00000  Uiso   1.00
O891   O     0.94523   0.23573   0.78385   0.00000  Uiso   1.00
H892   H     0.96586   0.25750   0.79410   0.00000  Uiso   1.00
C893   C     0.72443   0.09882   0.69827   0.00000  Uiso   1.00
H894   H     0.70658   0.08434   0.67045   0.00000  Uiso   1.00
H895   H     0.76059   0.10880   0.67500   0.00000  Uiso   1.00
H896   H     0.72668   0.07438   0.72527   0.00000  Uiso   1.00
C897   C     0.95341   0.13048   0.90241   0.00000  Uiso   1.00
H898   H     0.95719   0.13423   0.86087   0.00000  Uiso   1.00
H899   H     0.98422   0.14648   0.91192   0.00000  Uiso   1.00
H900   H     0.95447   0.09686   0.90934   0.00000  Uiso   1.00
C901   C     0.80625   0.21216   0.59116   0.00000  Uiso   1.00
H902   H     0.82357   0.23390   0.61350   0.00000  Uiso   1.00
H903   H     0.79825   0.23097   0.56103   0.00000  Uiso   1.00
H904   H     0.77182   0.20027   0.61700   0.00000  Uiso   1.00
C905   C     0.89990   0.21234   0.89267   0.00000  Uiso   1.00
H906   H     0.89844   0.23375   0.92590   0.00000  Uiso   1.00
H907   H     0.93848   0.20916   0.87118   0.00000  Uiso   1.00
H908   H     0.87969   0.22696   0.86867   0.00000  Uiso   1.00
C909   C     0.90665   0.29110   0.67114   0.00000  Uiso   1.00
H910   H     0.92822   0.31339   0.64298   0.00000  Uiso   1.00
H911   H     0.93208   0.27459   0.68750   0.00000  Uiso   1.00
H912   H     0.88896   0.26859   0.65008   0.00000  Uiso   1.00
C913   C     0.16719   0.57913   0.74990   0.00000  Uiso   1.00
C914   C     0.14535   0.50203   0.98948   0.00000  Uiso   1.00
C915   C     0.16121   0.50397   0.93544   0.00000  Uiso   1.00
C916   C     0.18071   0.49748   0.51638   0.00000  Uiso   1.00
C917   C     0.22617   0.48068   0.98912   0.00000  Uiso   1.00
C918   C     0.23988   0.48136   0.93515   0.00000  Uiso   1.00
C919   C     0.21143   0.50441   0.91225   0.00000  Uiso   1.00
C920   C     0.17348   0.51019   0.56806   0.00000  Uiso   1.00
C921   C     0.24650   0.47367   0.56904   0.00000  Uiso   1.00
C922   C     0.12698   0.50616   0.90666   0.00000  Uiso   1.00
C923   C     0.20222   0.64595   0.71355   0.00000  Uiso   1.00
C924   C     0.14119   0.50222   0.84980   0.00000  Uiso   1.00
C925   C     0.20068   0.35552   0.71516   0.00000  Uiso   1.00
C926   C     0.16475   0.37623   0.75241   0.00000  Uiso   1.00
C927   C     0.12994   0.35451   0.79048   0.00000  Uiso   1.00
C928   C     0.13271   0.64435   0.79045   0.00000  Uiso   1.00
C929   C     0.16766   0.62387   0.75112   0.00000  Uiso   1.00
C930   C     0.30501   0.53373   0.76835   0.00000  Uiso   1.00
C931   C     0.02067   0.53266   0.77029   0.00000  Uiso   1.00
C932   C     0.02899   0.46790   0.72715   0.00000  Uiso   1.00
C933   C     0.31261   0.46773   0.72895   0.00000  Uiso   1.00
C934   C     0.16582   0.42090   0.75127   0.00000  Uiso   1.00
C935   C     0.19212   0.49962   0.65065   0.00000  Uiso   1.00
C936   C     0.25783   0.46735   0.51623   0.00000  Uiso   1.00
C937   C     0.20514   0.49567   0.59489   0.00000  Uiso   1.00
C938   C     0.07783   0.51005   0.93302   0.00000  Uiso   1.00
C939   C     0.06209   0.50773   0.98624   0.00000  Uiso   1.00
C940   C     0.09527   0.50237   0.51420   0.00000  Uiso   1.00
Cu941  Cu    0.11978   0.49999   0.75000   0.00000  Uiso   1.00
Cu942  Cu    0.21355   0.50001   0.75000   0.00000  Uiso   1.00
H943   H     0.27063   0.46209   0.58959   0.00000  Uiso   1.00
H944   H     0.22705   0.37310   0.68655   0.00000  Uiso   1.00
H945   H     0.03594   0.55860   0.78694   0.00000  Uiso   1.00
H946   H     0.29715   0.44206   0.71195   0.00000  Uiso   1.00
H947   H     0.29166   0.45264   0.99698   0.00000  Uiso   1.00
H948   H     0.05140   0.51425   0.91222   0.00000  Uiso   1.00
H949   H     0.08130   0.49741   0.55490   0.00000  Uiso   1.00
H950   H     0.02383   0.50914   0.50584   0.00000  Uiso   1.00
N951   N     0.04931   0.49999   0.74998   0.00000  Uiso   1.00
N952   N     0.28402   0.50002   0.74999   0.00000  Uiso   1.00
O953   O     0.12708   0.56011   0.75000   0.00000  Uiso   1.00
O954   O     0.20627   0.56012   0.75000   0.00000  Uiso   1.00
O955   O     0.10775   0.49998   0.82549   0.00000  Uiso   1.00
O956   O     0.18694   0.49999   0.82549   0.00000  Uiso   1.00
O957   O     0.12706   0.43988   0.74999   0.00000  Uiso   1.00
O958   O     0.20625   0.43989   0.74999   0.00000  Uiso   1.00
O959   O     0.14640   0.50001   0.67451   0.00000  Uiso   1.00
O960   O     0.22559   0.50002   0.67451   0.00000  Uiso   1.00
C961   C     0.09082   0.37771   0.83014   0.00000  Uiso   1.00
H962   H     0.06870   0.39547   0.81092   0.00000  Uiso   1.00
H963   H     0.06481   0.35735   0.85698   0.00000  Uiso   1.00
H964   H     0.10767   0.39940   0.85297   0.00000  Uiso   1.00
O965   O     0.10235   0.62095   0.82835   0.00000  Uiso   1.00
H966   H     0.10124   0.63459   0.86184   0.00000  Uiso   1.00
O967   O     0.27856   0.56907   0.78385   0.00000  Uiso   1.00
H968   H     0.29919   0.59084   0.79410   0.00000  Uiso   1.00
C969   C     0.05777   0.43215   0.69827   0.00000  Uiso   1.00
H970   H     0.03991   0.41767   0.67045   0.00000  Uiso   1.00
H971   H     0.09393   0.44214   0.67500   0.00000  Uiso   1.00
H972   H     0.06001   0.40771   0.72527   0.00000  Uiso   1.00
C973   C     0.28674   0.46381   0.90241   0.00000  Uiso   1.00
H974   H     0.29053   0.46757   0.86087   0.00000  Uiso   1.00
H975   H     0.31756   0.47981   0.91192   0.00000  Uiso   1.00
H976   H     0.28780   0.43020   0.90934   0.00000  Uiso   1.00
C977   C     0.13959   0.54549   0.59116   0.00000  Uiso   1.00
H978   H     0.15690   0.56723   0.61350   0.00000  Uiso   1.00
H979   H     0.13158   0.56430   0.56103   0.00000  Uiso   1.00
H980   H     0.10516   0.53360   0.61700   0.00000  Uiso   1.00
C981   C     0.23324   0.54567   0.89267   0.00000  Uiso   1.00
H982   H     0.23177   0.56709   0.92590   0.00000  Uiso   1.00
H983   H     0.27182   0.54249   0.87118   0.00000  Uiso   1.00
H984   H     0.21303   0.56029   0.86867   0.00000  Uiso   1.00
C985   C     0.23999   0.62443   0.67114   0.00000  Uiso   1.00
H986   H     0.26156   0.64672   0.64298   0.00000  Uiso   1.00
H987   H     0.26541   0.60792   0.68750   0.00000  Uiso   1.00
H988   H     0.22229   0.60192   0.65008   0.00000  Uiso   1.00
C989   C     0.50052   0.57913   0.74990   0.00000  Uiso   1.00
C990   C     0.47869   0.50203   0.98948   0.00000  Uiso   1.00
C991   C     0.49454   0.50397   0.93544   0.00000  Uiso   1.00
C992   C     0.51404   0.49748   0.51638   0.00000  Uiso   1.00
C993   C     0.55950   0.48068   0.98912   0.00000  Uiso   1.00
C994   C     0.57322   0.48136   0.93515   0.00000  Uiso   1.00
C995   C     0.54477   0.50441   0.91225   0.00000  Uiso   1.00
C996   C     0.50681   0.51019   0.56806   0.00000  Uiso   1.00
C997   C     0.57983   0.47367   0.56904   0.00000  Uiso   1.00
C998   C     0.46031   0.50616   0.90666   0.00000  Uiso   1.00
C999   C     0.53555   0.64595   0.71355   0.00000  Uiso   1.00
C1000  C     0.47452   0.50222   0.84980   0.00000  Uiso   1.00
C1001  C     0.53401   0.35552   0.71516   0.00000  Uiso   1.00
C1002  C     0.49808   0.37623   0.75241   0.00000  Uiso   1.00
C1003  C     0.46327   0.35451   0.79048   0.00000  Uiso   1.00
C1004  C     0.46604   0.64435   0.79045   0.00000  Uiso   1.00
C1005  C     0.50100   0.62387   0.75112   0.00000  Uiso   1.00
C1006  C     0.63835   0.53373   0.76835   0.00000  Uiso   1.00
C1007  C     0.35401   0.53266   0.77029   0.00000  Uiso   1.00
C1008  C     0.36232   0.46790   0.72715   0.00000  Uiso   1.00
C1009  C     0.64594   0.46773   0.72895   0.00000  Uiso   1.00
C1010  C     0.49916   0.42090   0.75127   0.00000  Uiso   1.00
C1011  C     0.52545   0.49962   0.65065   0.00000  Uiso   1.00
C1012  C     0.59116   0.46735   0.51623   0.00000  Uiso   1.00
C1013  C     0.53848   0.49567   0.59489   0.00000  Uiso   1.00
C1014  C     0.41116   0.51005   0.93302   0.00000  Uiso   1.00
C1015  C     0.39542   0.50773   0.98624   0.00000  Uiso   1.00
C1016  C     0.42861   0.50237   0.51420   0.00000  Uiso   1.00
Cu1017 Cu    0.45311   0.49999   0.75000   0.00000  Uiso   1.00
Cu1018 Cu    0.54689   0.50001   0.75000   0.00000  Uiso   1.00
H1019  H     0.60396   0.46209   0.58959   0.00000  Uiso   1.00
H1020  H     0.56038   0.37310   0.68655   0.00000  Uiso   1.00
H1021  H     0.36928   0.55860   0.78694   0.00000  Uiso   1.00
H1022  H     0.63049   0.44206   0.71195   0.00000  Uiso   1.00
H1023  H     0.62499   0.45264   0.99698   0.00000  Uiso   1.00
H1024  H     0.38474   0.51425   0.91222   0.00000  Uiso   1.00
H1025  H     0.41464   0.49741   0.55490   0.00000  Uiso   1.00
H1026  H     0.35716   0.50914   0.50584   0.00000  Uiso   1.00
N1027  N     0.38265   0.49999   0.74998   0.00000  Uiso   1.00
N1028  N     0.61735   0.50002   0.74999   0.00000  Uiso   1.00
O1029  O     0.46042   0.56011   0.75000   0.00000  Uiso   1.00
O1030  O     0.53961   0.56012   0.75000   0.00000  Uiso   1.00
O1031  O     0.44108   0.49998   0.82549   0.00000  Uiso   1.00
O1032  O     0.52027   0.49999   0.82549   0.00000  Uiso   1.00
O1033  O     0.46039   0.43988   0.74999   0.00000  Uiso   1.00
O1034  O     0.53958   0.43989   0.74999   0.00000  Uiso   1.00
O1035  O     0.47973   0.50001   0.67451   0.00000  Uiso   1.00
O1036  O     0.55892   0.50002   0.67451   0.00000  Uiso   1.00
C1037  C     0.42416   0.37771   0.83014   0.00000  Uiso   1.00
H1038  H     0.40203   0.39547   0.81092   0.00000  Uiso   1.00
H1039  H     0.39815   0.35735   0.85698   0.00000  Uiso   1.00
H1040  H     0.44101   0.39940   0.85297   0.00000  Uiso   1.00
O1041  O     0.43568   0.62095   0.82835   0.00000  Uiso   1.00
H1042  H     0.43458   0.63459   0.86184   0.00000  Uiso   1.00
O1043  O     0.61190   0.56907   0.78385   0.00000  Uiso   1.00
H1044  H     0.63252   0.59084   0.79410   0.00000  Uiso   1.00
C1045  C     0.39110   0.43215   0.69827   0.00000  Uiso   1.00
H1046  H     0.37324   0.41767   0.67045   0.00000  Uiso   1.00
H1047  H     0.42726   0.44214   0.67500   0.00000  Uiso   1.00
H1048  H     0.39335   0.40771   0.72527   0.00000  Uiso   1.00
C1049  C     0.62007   0.46381   0.90241   0.00000  Uiso   1.00
H1050  H     0.62386   0.46757   0.86087   0.00000  Uiso   1.00
H1051  H     0.65089   0.47981   0.91192   0.00000  Uiso   1.00
H1052  H     0.62113   0.43020   0.90934   0.00000  Uiso   1.00
C1053  C     0.47292   0.54549   0.59116   0.00000  Uiso   1.00
H1054  H     0.49023   0.56723   0.61350   0.00000  Uiso   1.00
H1055  H     0.46491   0.56430   0.56103   0.00000  Uiso   1.00
H1056  H     0.43849   0.53360   0.61700   0.00000  Uiso   1.00
C1057  C     0.56657   0.54567   0.89267   0.00000  Uiso   1.00
H1058  H     0.56511   0.56709   0.92590   0.00000  Uiso   1.00
H1059  H     0.60515   0.54249   0.87118   0.00000  Uiso   1.00
H1060  H     0.54636   0.56029   0.86867   0.00000  Uiso   1.00
C1061  C     0.57332   0.62443   0.67114   0.00000  Uiso   1.00
H1062  H     0.59489   0.64672   0.64298   0.00000  Uiso   1.00
H1063  H     0.59875   0.60792   0.68750   0.00000  Uiso   1.00
H1064  H     0.55563   0.60192   0.65008   0.00000  Uiso   1.00
C1065  C     0.83386   0.57913   0.74990   0.00000  Uiso   1.00
C1066  C     0.81202   0.50203   0.98948   0.00000  Uiso   1.00
C1067  C     0.82788   0.50397   0.93544   0.00000  Uiso   1.00
C1068  C     0.84738   0.49748   0.51638   0.00000  Uiso   1.00
C1069  C     0.89283   0.48068   0.98912   0.00000  Uiso   1.00
C1070  C     0.90655   0.48136   0.93515   0.00000  Uiso   1.00
C1071  C     0.87810   0.50441   0.91225   0.00000  Uiso   1.00
C1072  C     0.84014   0.51019   0.56806   0.00000  Uiso   1.00
C1073  C     0.91317   0.47367   0.56904   0.00000  Uiso   1.00
C1074  C     0.79365   0.50616   0.90666   0.00000  Uiso   1.00
C1075  C     0.86889   0.64595   0.71355   0.00000  Uiso   1.00
C1076  C     0.80785   0.50222   0.84980   0.00000  Uiso   1.00
C1077  C     0.86734   0.35552   0.71516   0.00000  Uiso   1.00
C1078  C     0.83141   0.37623   0.75241   0.00000  Uiso   1.00
C1079  C     0.79660   0.35451   0.79048   0.00000  Uiso   1.00
C1080  C     0.79938   0.64435   0.79045   0.00000  Uiso   1.00
C1081  C     0.83433   0.62387   0.75112   0.00000  Uiso   1.00
C1082  C     0.97168   0.53373   0.76835   0.00000  Uiso   1.00
C1083  C     0.68734   0.53266   0.77029   0.00000  Uiso   1.00
C1084  C     0.69565   0.46790   0.72715   0.00000  Uiso   1.00
C1085  C     0.97927   0.46773   0.72895   0.00000  Uiso   1.00
C1086  C     0.83249   0.42090   0.75127   0.00000  Uiso   1.00
C1087  C     0.85879   0.49962   0.65065   0.00000  Uiso   1.00
C1088  C     0.92449   0.46735   0.51623   0.00000  Uiso   1.00
C1089  C     0.87181   0.49567   0.59489   0.00000  Uiso   1.00
C1090  C     0.74449   0.51005   0.93302   0.00000  Uiso   1.00
C1091  C     0.72875   0.50773   0.98624   0.00000  Uiso   1.00
C1092  C     0.76194   0.50237   0.51420   0.00000  Uiso   1.00
Cu1093 Cu    0.78645   0.49999   0.75000   0.00000  Uiso   1.00
Cu1094 Cu    0.88022   0.50001   0.75000   0.00000  Uiso   1.00
H1095  H     0.93730   0.46209   0.58959   0.00000  Uiso   1.00
H1096  H     0.89372   0.37310   0.68655   0.00000  Uiso   1.00
H1097  H     0.70261   0.55860   0.78694   0.00000  Uiso   1.00
H1098  H     0.96382   0.44206   0.71195   0.00000  Uiso   1.00
H1099  H     0.95833   0.45264   0.99698   0.00000  Uiso   1.00
H1100  H     0.71807   0.51425   0.91222   0.00000  Uiso   1.00
H1101  H     0.74797   0.49741   0.55490   0.00000  Uiso   1.00
H1102  H     0.69049   0.50914   0.50584   0.00000  Uiso   1.00
N1103  N     0.71598   0.49999   0.74998   0.00000  Uiso   1.00
N1104  N     0.95069   0.50002   0.74999   0.00000  Uiso   1.00
O1105  O     0.79375   0.56011   0.75000   0.00000  Uiso   1.00
O1106  O     0.87294   0.56012   0.75000   0.00000  Uiso   1.00
O1107  O     0.77441   0.49998   0.82549   0.00000  Uiso   1.00
O1108  O     0.85360   0.49999   0.82549   0.00000  Uiso   1.00
O1109  O     0.79373   0.43988   0.74999   0.00000  Uiso   1.00
O1110  O     0.87292   0.43989   0.74999   0.00000  Uiso   1.00
O1111  O     0.81306   0.50001   0.67451   0.00000  Uiso   1.00
O1112  O     0.89225   0.50002   0.67451   0.00000  Uiso   1.00
C1113  C     0.75749   0.37771   0.83014   0.00000  Uiso   1.00
H1114  H     0.73536   0.39547   0.81092   0.00000  Uiso   1.00
H1115  H     0.73148   0.35735   0.85698   0.00000  Uiso   1.00
H1116  H     0.77434   0.39940   0.85297   0.00000  Uiso   1.00
O1117  O     0.76901   0.62095   0.82835   0.00000  Uiso   1.00
H1118  H     0.76791   0.63459   0.86184   0.00000  Uiso   1.00
O1119  O     0.94523   0.56907   0.78385   0.00000  Uiso   1.00
H1120  H     0.96586   0.59084   0.79410   0.00000  Uiso   1.00
C1121  C     0.72443   0.43215   0.69827   0.00000  Uiso   1.00
H1122  H     0.70658   0.41767   0.67045   0.00000  Uiso   1.00
H1123  H     0.76059   0.44214   0.67500   0.00000  Uiso   1.00
H1124  H     0.72668   0.40771   0.72527   0.00000  Uiso   1.00
C1125  C     0.95341   0.46381   0.90241   0.00000  Uiso   1.00
H1126  H     0.95719   0.46757   0.86087   0.00000  Uiso   1.00
H1127  H     0.98422   0.47981   0.91192   0.00000  Uiso   1.00
H1128  H     0.95447   0.43020   0.90934   0.00000  Uiso   1.00
C1129  C     0.80625   0.54549   0.59116   0.00000  Uiso   1.00
H1130  H     0.82357   0.56723   0.61350   0.00000  Uiso   1.00
H1131  H     0.79825   0.56430   0.56103   0.00000  Uiso   1.00
H1132  H     0.77182   0.53360   0.61700   0.00000  Uiso   1.00
C1133  C     0.89990   0.54567   0.89267   0.00000  Uiso   1.00
H1134  H     0.89844   0.56709   0.92590   0.00000  Uiso   1.00
H1135  H     0.93848   0.54249   0.87118   0.00000  Uiso   1.00
H1136  H     0.87969   0.56029   0.86867   0.00000  Uiso   1.00
C1137  C     0.90665   0.62443   0.67114   0.00000  Uiso   1.00
H1138  H     0.92822   0.64672   0.64298   0.00000  Uiso   1.00
H1139  H     0.93208   0.60792   0.68750   0.00000  Uiso   1.00
H1140  H     0.88896   0.60192   0.65008   0.00000  Uiso   1.00
C1141  C     0.16719   0.91246   0.74990   0.00000  Uiso   1.00
C1142  C     0.14535   0.83536   0.98948   0.00000  Uiso   1.00
C1143  C     0.16121   0.83730   0.93544   0.00000  Uiso   1.00
C1144  C     0.18071   0.83081   0.51638   0.00000  Uiso   1.00
C1145  C     0.22617   0.81401   0.98912   0.00000  Uiso   1.00
C1146  C     0.23988   0.81469   0.93515   0.00000  Uiso   1.00
C1147  C     0.21143   0.83774   0.91225   0.00000  Uiso   1.00
C1148  C     0.17348   0.84352   0.56806   0.00000  Uiso   1.00
C1149  C     0.24650   0.80701   0.56904   0.00000  Uiso   1.00
C1150  C     0.12698   0.83950   0.90666   0.00000  Uiso   1.00
C1151  C     0.20222   0.97929   0.71355   0.00000  Uiso   1.00
C1152  C     0.14119   0.83555   0.84980   0.00000  Uiso   1.00
C1153  C     0.20068   0.68886   0.71516   0.00000  Uiso   1.00
C1154  C     0.16475   0.70956   0.75241   0.00000  Uiso   1.00
C1155  C     0.12994   0.68784   0.79048   0.00000  Uiso   1.00
C1156  C     0.13271   0.97769   0.79045   0.00000  Uiso   1.00
C1157  C     0.16766   0.95720   0.75112   0.00000  Uiso   1.00
C1158  C     0.30501   0.86706   0.76835   0.00000  Uiso   1.00
C1159  C     0.02067   0.86599   0.77029   0.00000  Uiso   1.00
C1160  C     0.02899   0.80123   0.72715   0.00000  Uiso   1.00
C1161  C     0.31261   0.80106   0.72895   0.00000  Uiso   1.00
C1162  C     0.16582   0.75423   0.75127   0.00000  Uiso   1.00
C1163  C     0.19212   0.83295   0.65065   0.00000  Uiso   1.00
C1164  C     0.25783   0.80068   0.51623   0.00000  Uiso   1.00
C1165  C     0.20514   0.82900   0.59489   0.00000  Uiso   1.00
C1166  C     0.07783   0.84338   0.93302   0.00000  Uiso   1.00
C1167  C     0.06209   0.84106   0.98624   0.00000  Uiso   1.00
C1168  C     0.09527   0.83570   0.51420   0.00000  Uiso   1.00
Cu1169 Cu    0.11978   0.83333   0.75000   0.00000  Uiso   1.00
Cu1170 Cu    0.21355   0.83334   0.75000   0.00000  Uiso   1.00
H1171  H     0.27063   0.79542   0.58959   0.00000  Uiso   1.00
H1172  H     0.22705   0.70643   0.68655   0.00000  Uiso   1.00
H1173  H     0.03594   0.89193   0.78694   0.00000  Uiso   1.00
H1174  H     0.29715   0.77539   0.71195   0.00000  Uiso   1.00
H1175  H     0.29166   0.78597   0.99698   0.00000  Uiso   1.00
H1176  H     0.05140   0.84758   0.91222   0.00000  Uiso   1.00
H1177  H     0.08130   0.83074   0.55490   0.00000  Uiso   1.00
H1178  H     0.02383   0.84248   0.50584   0.00000  Uiso   1.00
N1179  N     0.04931   0.83332   0.74998   0.00000  Uiso   1.00
N1180  N     0.28402   0.83335   0.74999   0.00000  Uiso   1.00
O1181  O     0.12708   0.89345   0.75000   0.00000  Uiso   1.00
O1182  O     0.20627   0.89346   0.75000   0.00000  Uiso   1.00
O1183  O     0.10775   0.83332   0.82549   0.00000  Uiso   1.00
O1184  O     0.18694   0.83333   0.82549   0.00000  Uiso   1.00
O1185  O     0.12706   0.77321   0.74999   0.00000  Uiso   1.00
O1186  O     0.20625   0.77322   0.74999   0.00000  Uiso   1.00
O1187  O     0.14640   0.83334   0.67451   0.00000  Uiso   1.00
O1188  O     0.22559   0.83335   0.67451   0.00000  Uiso   1.00
C1189  C     0.09082   0.71104   0.83014   0.00000  Uiso   1.00
H1190  H     0.06870   0.72881   0.81092   0.00000  Uiso   1.00
H1191  H     0.06481   0.69068   0.85698   0.00000  Uiso   1.00
H1192  H     0.10767   0.73274   0.85297   0.00000  Uiso   1.00
O1193  O     0.10235   0.95429   0.82835   0.00000  Uiso   1.00
H1194  H     0.10124   0.96792   0.86184   0.00000  Uiso   1.00
O1195  O     0.27856   0.90240   0.78385   0.00000  Uiso   1.00
H1196  H     0.29919   0.92417   0.79410   0.00000  Uiso   1.00
C1197  C     0.05777   0.76549   0.69827   0.00000  Uiso   1.00
H1198  H     0.03991   0.75100   0.67045   0.00000  Uiso   1.00
H1199  H     0.09393   0.77547   0.67500   0.00000  Uiso   1.00
H1200  H     0.06001   0.74105   0.72527   0.00000  Uiso   1.00
C1201  C     0.28674   0.79714   0.90241   0.00000  Uiso   1.00
H1202  H     0.29053   0.80090   0.86087   0.00000  Uiso   1.00
H1203  H     0.31756   0.81314   0.91192   0.00000  Uiso   1.00
H1204  H     0.28780   0.76353   0.90934   0.00000  Uiso   1.00
C1205  C     0.13959   0.87882   0.59116   0.00000  Uiso   1.00
H1206  H     0.15690   0.90057   0.61350   0.00000  Uiso   1.00
H1207  H     0.13158   0.89763   0.56103   0.00000  Uiso   1.00
H1208  H     0.10516   0.86694   0.61700   0.00000  Uiso   1.00
C1209  C     0.23324   0.87901   0.89267   0.00000  Uiso   1.00
H1210  H     0.23177   0.90042   0.92590   0.00000  Uiso   1.00
H1211  H     0.27182   0.87583   0.87118   0.00000  Uiso   1.00
H1212  H     0.21303   0.89363   0.86867   0.00000  Uiso   1.00
C1213  C     0.23999   0.95777   0.67114   0.00000  Uiso   1.00
H1214  H     0.26156   0.98005   0.64298   0.00000  Uiso   1.00
H1215  H     0.26541   0.94125   0.68750   0.00000  Uiso   1.00
H1216  H     0.22229   0.93526   0.65008   0.00000  Uiso   1.00
C1217  C     0.50052   0.91246   0.74990   0.00000  Uiso   1.00
C1218  C     0.47869   0.83536   0.98948   0.00000  Uiso   1.00
C1219  C     0.49454   0.83730   0.93544   0.00000  Uiso   1.00
C1220  C     0.51404   0.83081   0.51638   0.00000  Uiso   1.00
C1221  C     0.55950   0.81401   0.98912   0.00000  Uiso   1.00
C1222  C     0.57322   0.81469   0.93515   0.00000  Uiso   1.00
C1223  C     0.54477   0.83774   0.91225   0.00000  Uiso   1.00
C1224  C     0.50681   0.84352   0.56806   0.00000  Uiso   1.00
C1225  C     0.57983   0.80701   0.56904   0.00000  Uiso   1.00
C1226  C     0.46031   0.83950   0.90666   0.00000  Uiso   1.00
C1227  C     0.53555   0.97929   0.71355   0.00000  Uiso   1.00
C1228  C     0.47452   0.83555   0.84980   0.00000  Uiso   1.00
C1229  C     0.53401   0.68886   0.71516   0.00000  Uiso   1.00
C1230  C     0.49808   0.70956   0.75241   0.00000  Uiso   1.00
C1231  C     0.46327   0.68784   0.79048   0.00000  Uiso   1.00
C1232  C     0.46604   0.97769   0.79045   0.00000  Uiso   1.00
C1233  C     0.50100   0.95720   0.75112   0.00000  Uiso   1.00
C1234  C     0.63835   0.86706   0.76835   0.00000  Uiso   1.00
C1235  C     0.35401   0.86599   0.77029   0.00000  Uiso   1.00
C1236  C     0.36232   0.80123   0.72715   0.00000  Uiso   1.00
C1237  C     0.64594   0.80106   0.72895   0.00000  Uiso   1.00
C1238  C     0.49916   0.75423   0.75127   0.00000  Uiso   1.00
C1239  C     0.52545   0.83295   0.65065   0.00000  Uiso   1.00
C1240  C     0.59116   0.80068   0.51623   0.00000  Uiso   1.00
C1241  C     0.53848   0.82900   0.59489   0.00000  Uiso   1.00
C1242  C     0.41116   0.84338   0.93302   0.00000  Uiso   1.00
C1243  C     0.39542   0.84106   0.98624   0.00000  Uiso   1.00
C1244  C     0.42861   0.83570   0.51420   0.00000  Uiso   1.00
Cu1245 Cu    0.45311   0.83333   0.75000   0.00000  Uiso   1.00
Cu1246 Cu    0.54689   0.83334   0.75000   0.00000  Uiso   1.00
H1247  H     0.60396   0.79542   0.58959   0.00000  Uiso   1.00
H1248  H     0.56038   0.70643   0.68655   0.00000  Uiso   1.00
H1249  H     0.36928   0.89193   0.78694   0.00000  Uiso   1.00
H1250  H     0.63049   0.77539   0.71195   0.00000  Uiso   1.00
H1251  H     0.62499   0.78597   0.99698   0.00000  Uiso   1.00
H1252  H     0.38474   0.84758   0.91222   0.00000  Uiso   1.00
H1253  H     0.41464   0.83074   0.55490   0.00000  Uiso   1.00
H1254  H     0.35716   0.84248   0.50584   0.00000  Uiso   1.00
N1255  N     0.38265   0.83332   0.74998   0.00000  Uiso   1.00
N1256  N     0.61735   0.83335   0.74999   0.00000  Uiso   1.00
O1257  O     0.46042   0.89345   0.75000   0.00000  Uiso   1.00
O1258  O     0.53961   0.89346   0.75000   0.00000  Uiso   1.00
O1259  O     0.44108   0.83332   0.82549   0.00000  Uiso   1.00
O1260  O     0.52027   0.83333   0.82549   0.00000  Uiso   1.00
O1261  O     0.46039   0.77321   0.74999   0.00000  Uiso   1.00
O1262  O     0.53958   0.77322   0.74999   0.00000  Uiso   1.00
O1263  O     0.47973   0.83334   0.67451   0.00000  Uiso   1.00
O1264  O     0.55892   0.83335   0.67451   0.00000  Uiso   1.00
C1265  C     0.42416   0.71104   0.83014   0.00000  Uiso   1.00
H1266  H     0.40203   0.72881   0.81092   0.00000  Uiso   1.00
H1267  H     0.39815   0.69068   0.85698   0.00000  Uiso   1.00
H1268  H     0.44101   0.73274   0.85297   0.00000  Uiso   1.00
O1269  O     0.43568   0.95429   0.82835   0.00000  Uiso   1.00
H1270  H     0.43458   0.96792   0.86184   0.00000  Uiso   1.00
O1271  O     0.61190   0.90240   0.78385   0.00000  Uiso   1.00
H1272  H     0.63252   0.92417   0.79410   0.00000  Uiso   1.00
C1273  C     0.39110   0.76549   0.69827   0.00000  Uiso   1.00
H1274  H     0.37324   0.75100   0.67045   0.00000  Uiso   1.00
H1275  H     0.42726   0.77547   0.67500   0.00000  Uiso   1.00
H1276  H     0.39335   0.74105   0.72527   0.00000  Uiso   1.00
C1277  C     0.62007   0.79714   0.90241   0.00000  Uiso   1.00
H1278  H     0.62386   0.80090   0.86087   0.00000  Uiso   1.00
H1279  H     0.65089   0.81314   0.91192   0.00000  Uiso   1.00
H1280  H     0.62113   0.76353   0.90934   0.00000  Uiso   1.00
C1281  C     0.47292   0.87882   0.59116   0.00000  Uiso   1.00
H1282  H     0.49023   0.90057   0.61350   0.00000  Uiso   1.00
H1283  H     0.46491   0.89763   0.56103   0.00000  Uiso   1.00
H1284  H     0.43849   0.86694   0.61700   0.00000  Uiso   1.00
C1285  C     0.56657   0.87901   0.89267   0.00000  Uiso   1.00
H1286  H     0.56511   0.90042   0.92590   0.00000  Uiso   1.00
H1287  H     0.60515   0.87583   0.87118   0.00000  Uiso   1.00
H1288  H     0.54636   0.89363   0.86867   0.00000  Uiso   1.00
C1289  C     0.57332   0.95777   0.67114   0.00000  Uiso   1.00
H1290  H     0.59489   0.98005   0.64298   0.00000  Uiso   1.00
H1291  H     0.59875   0.94125   0.68750   0.00000  Uiso   1.00
H1292  H     0.55563   0.93526   0.65008   0.00000  Uiso   1.00
C1293  C     0.83386   0.91246   0.74990   0.00000  Uiso   1.00
C1294  C     0.81202   0.83536   0.98948   0.00000  Uiso   1.00
C1295  C     0.82788   0.83730   0.93544   0.00000  Uiso   1.00
C1296  C     0.84738   0.83081   0.51638   0.00000  Uiso   1.00
C1297  C     0.89283   0.81401   0.98912   0.00000  Uiso   1.00
C1298  C     0.90655   0.81469   0.93515   0.00000  Uiso   1.00
C1299  C     0.87810   0.83774   0.91225   0.00000  Uiso   1.00
C1300  C     0.84014   0.84352   0.56806   0.00000  Uiso   1.00
C1301  C     0.91317   0.80701   0.56904   0.00000  Uiso   1.00
C1302  C     0.79365   0.83950   0.90666   0.00000  Uiso   1.00
C1303  C     0.86889   0.97929   0.71355   0.00000  Uiso   1.00
C1304  C     0.80785   0.83555   0.84980   0.00000  Uiso   1.00
C1305  C     0.86734   0.68886   0.71516   0.00000  Uiso   1.00
C1306  C     0.83141   0.70956   0.75241   0.00000  Uiso   1.00
C1307  C     0.79660   0.68784   0.79048   0.00000  Uiso   1.00
C1308  C     0.79938   0.97769   0.79045   0.00000  Uiso   1.00
C1309  C     0.83433   0.95720   0.75112   0.00000  Uiso   1.00
C1310  C     0.97168   0.86706   0.76835   0.00000  Uiso   1.00
C1311  C     0.68734   0.86599   0.77029   0.00000  Uiso   1.00
C1312  C     0.69565   0.80123   0.72715   0.00000  Uiso   1.00
C1313  C     0.97927   0.80106   0.72895   0.00000  Uiso   1.00
C1314  C     0.83249   0.75423   0.75127   0.00000  Uiso   1.00
C1315  C     0.85879   0.83295   0.65065   0.00000  Uiso   1.00
C1316  C     0.92449   0.80068   0.51623   0.00000  Uiso   1.00
C1317  C     0.87181   0.82900   0.59489   0.00000  Uiso   1.00
C1318  C     0.74449   0.84338   0.93302   0.00000  Uiso   1.00
C1319  C     0.72875   0.84106   0.98624   0.00000  Uiso   1.00
C1320  C     0.76194   0.83570   0.51420   0.00000  Uiso   1.00
Cu1321 Cu    0.78645   0.83333   0.75000   0.00000  Uiso   1.00
Cu1322 Cu    0.88022   0.83334   0.75000   0.00000  Uiso   1.00
H1323  H     0.93730   0.79542   0.58959   0.00000  Uiso   1.00
H1324  H     0.89372   0.70643   0.68655   0.00000  Uiso   1.00
H1325  H     0.70261   0.89193   0.78694   0.00000  Uiso   1.00
H1326  H     0.96382   0.77539   0.71195   0.00000  Uiso   1.00
H1327  H     0.95833   0.78597   0.99698   0.00000  Uiso   1.00
H1328  H     0.71807   0.84758   0.91222   0.00000  Uiso   1.00
H1329  H     0.74797   0.83074   0.55490   0.00000  Uiso   1.00
H1330  H     0.69049   0.84248   0.50584   0.00000  Uiso   1.00
N1331  N     0.71598   0.83332   0.74998   0.00000  Uiso   1.00
N1332  N     0.95069   0.83335   0.74999   0.00000  Uiso   1.00
O1333  O     0.79375   0.89345   0.75000   0.00000  Uiso   1.00
O1334  O     0.87294   0.89346   0.75000   0.00000  Uiso   1.00
O1335  O     0.77441   0.83332   0.82549   0.00000  Uiso   1.00
O1336  O     0.85360   0.83333   0.82549   0.00000  Uiso   1.00
O1337  O     0.79373   0.77321   0.74999   0.00000  Uiso   1.00
O1338  O     0.87292   0.77322   0.74999   0.00000  Uiso   1.00
O1339  O     0.81306   0.83334   0.67451   0.00000  Uiso   1.00
O1340  O     0.89225   0.83335   0.67451   0.00000  Uiso   1.00
C1341  C     0.75749   0.71104   0.83014   0.00000  Uiso   1.00
H1342  H     0.73536   0.72881   0.81092   0.00000  Uiso   1.00
H1343  H     0.73148   0.69068   0.85698   0.00000  Uiso   1.00
H1344  H     0.77434   0.73274   0.85297   0.00000  Uiso   1.00
O1345  O     0.76901   0.95429   0.82835   0.00000  Uiso   1.00
H1346  H     0.76791   0.96792   0.86184   0.00000  Uiso   1.00
O1347  O     0.94523   0.90240   0.78385   0.00000  Uiso   1.00
H1348  H     0.96586   0.92417   0.79410   0.00000  Uiso   1.00
C1349  C     0.72443   0.76549   0.69827   0.00000  Uiso   1.00
H1350  H     0.70658   0.75100   0.67045   0.00000  Uiso   1.00
H1351  H     0.76059   0.77547   0.67500   0.00000  Uiso   1.00
H1352  H     0.72668   0.74105   0.72527   0.00000  Uiso   1.00
C1353  C     0.95341   0.79714   0.90241   0.00000  Uiso   1.00
H1354  H     0.95719   0.80090   0.86087   0.00000  Uiso   1.00
H1355  H     0.98422   0.81314   0.91192   0.00000  Uiso   1.00
H1356  H     0.95447   0.76353   0.90934   0.00000  Uiso   1.00
C1357  C     0.80625   0.87882   0.59116   0.00000  Uiso   1.00
H1358  H     0.82357   0.90057   0.61350   0.00000  Uiso   1.00
H1359  H     0.79825   0.89763   0.56103   0.00000  Uiso   1.00
H1360  H     0.77182   0.86694   0.61700   0.00000  Uiso   1.00
C1361  C     0.89990   0.87901   0.89267   0.00000  Uiso   1.00
H1362  H     0.89844   0.90042   0.92590   0.00000  Uiso   1.00
H1363  H     0.93848   0.87583   0.87118   0.00000  Uiso   1.00
H1364  H     0.87969   0.89363   0.86867   0.00000  Uiso   1.00
C1365  C     0.90665   0.95777   0.67114   0.00000  Uiso   1.00
H1366  H     0.92822   0.98005   0.64298   0.00000  Uiso   1.00
H1367  H     0.93208   0.94125   0.68750   0.00000  Uiso   1.00
H1368  H     0.88896   0.93526   0.65008   0.00000  Uiso   1.00
loop_
_geom_bond_atom_site_label_1
_geom_bond_atom_site_label_2
_geom_bond_distance
_geom_bond_site_symmetry_2
_ccdc_geom_bond_type
C1     O41     1.293   .     A
C1     C17     1.444   .     S
C1     O42     1.295   .     A
C2     C3      1.411   .     A
C2     C688    1.420   .     S
C2     C712    1.410   .     S
C3     C7      1.406   .     A
C3     C10     1.421   .     A
C4     C8      1.408   .     A
C4     C686    1.420   1_554 S
C4     C689    1.423   1_554 S
C5     C6      1.407   .     A
C5     C688    1.423   .     S
C5     C708    1.403   .     S
C6     C61     1.506   .     S
C6     C7      1.397   .     A
C7     C69     1.506   .     S
C8     C65     1.521   .     S
C8     C25     1.411   .     A
C9     C25     1.400   .     A
C9     C24     1.387   .     A
C9     H31     1.084   .     S
C10    C12     1.484   .     S
C10    C26     1.403   .     A
C11    C73     1.510   .     S
C11    C17     1.407   .     A
C11    C241    1.387   .     S
C12    O43     1.309   .     A
C12    O44     1.300   .     A
C13    H32     1.085   .     S
C13    C14     1.396   .     A
C13    C467    1.387   1_545 S
C14    C22     1.443   .     S
C14    C15     1.412   .     A
C15    C49     1.518   .     S
C15    C472    1.409   1_545 S
C16    O53     1.380   .     S
C16    C17     1.407   .     A
C16    C243    1.409   .     S
C18    N40     1.379   .     A
C18    O55     1.376   .     S
C18    C95     1.427   .     S
C19    N39     1.360   .     A
C19    H33     1.081   .     S
C19    C170    1.427   1_455 S
C20    N39     1.390   .     A
C20    C57     1.504   .     S
C20    C173    1.418   1_455 S
C21    N40     1.355   .     A
C21    H34     1.082   .     S
C21    C96     1.418   .     S
C22    O46     1.294   .     A
C22    O45     1.295   .     A
C23    C25     1.456   .     S
C23    O47     1.295   .     A
C23    O48     1.301   .     A
C24    C689    1.403   1_554 S
C24    H719    1.082   1_554 S
C26    C27     1.391   .     A
C26    H36     1.079   .     S
C27    C712    1.392   .     S
C27    H722    1.082   .     S
C28    H37     1.080   .     S
C28    C686    1.410   1_554 S
C28    C711    1.392   1_554 S
Cu29   O47     1.976   .     S
Cu29   O43     1.979   .     S
Cu29   O45     1.958   .     S
Cu29   Cu30    2.698   .     S
Cu29   N39     2.028   .     S
Cu29   O41     1.948   .     S
Cu30   O48     1.979   .     S
Cu30   O44     1.976   .     S
Cu30   N40     2.028   .     S
Cu30   O46     1.948   .     S
Cu30   O42     1.958   .     S
H35    C708    1.082   .     S
H38    C711    1.082   1_554 S
C49    H52     1.111   .     S
C49    H51     1.106   .     S
C49    H50     1.108   .     S
O53    H54     0.990   .     S
O55    H56     0.992   .     S
C57    H59     1.102   .     S
C57    H60     1.108   .     S
C57    H58     1.111   .     S
C61    H63     1.103   .     S
C61    H64     1.110   .     S
C61    H62     1.112   .     S
C65    H67     1.110   .     S
C65    H68     1.109   .     S
C65    H66     1.111   .     S
C69    H72     1.108   .     S
C69    H71     1.106   .     S
C69    H70     1.111   .     S
C73    H74     1.111   .     S
C73    H75     1.110   .     S
C73    H76     1.110   .     S
C77    O117    1.293   .     A
C77    C93     1.444   .     S
C77    O118    1.295   .     A
C78    C79     1.411   .     A
C78    C764    1.420   .     S
C78    C788    1.410   .     S
C79    C83     1.406   .     A
C79    C86     1.421   .     A
C80    C84     1.408   .     A
C80    C762    1.420   1_554 S
C80    C765    1.423   1_554 S
C81    C82     1.407   .     A
C81    C764    1.423   .     S
C81    C784    1.403   .     S
C82    C137    1.506   .     S
C82    C83     1.397   .     A
C83    C145    1.506   .     S
C84    C141    1.521   .     S
C84    C101    1.411   .     A
C85    C101    1.400   .     A
C85    C100    1.387   .     A
C85    H107    1.084   .     S
C86    C88     1.484   .     S
C86    C102    1.403   .     A
C87    C149    1.510   .     S
C87    C93     1.407   .     A
C87    C317    1.387   .     S
C88    O119    1.309   .     A
C88    O120    1.300   .     A
C89    H108    1.085   .     S
C89    C90     1.396   .     A
C89    C543    1.387   1_545 S
C90    C98     1.443   .     S
C90    C91     1.412   .     A
C91    C125    1.518   .     S
C91    C548    1.409   1_545 S
C92    O129    1.380   .     S
C92    C93     1.407   .     A
C92    C319    1.409   .     S
C94    N116    1.379   .     A
C94    O131    1.376   .     S
C94    C171    1.427   .     S
C95    N115    1.360   .     A
C95    H109    1.081   .     S
C96    N115    1.390   .     A
C96    C133    1.504   .     S
C97    N116    1.355   .     A
C97    H110    1.082   .     S
C97    C172    1.418   .     S
C98    O122    1.294   .     A
C98    O121    1.295   .     A
C99    C101    1.456   .     S
C99    O123    1.295   .     A
C99    O124    1.301   .     A
C100   C765    1.403   1_554 S
C100   H795    1.082   1_554 S
C102   C103    1.391   .     A
C102   H112    1.079   .     S
C103   C788    1.392   .     S
C103   H798    1.082   .     S
C104   H113    1.080   .     S
C104   C762    1.410   1_554 S
C104   C787    1.392   1_554 S
Cu105  O123    1.976   .     S
Cu105  O119    1.979   .     S
Cu105  O121    1.958   .     S
Cu105  Cu106   2.698   .     S
Cu105  N115    2.028   .     S
Cu105  O117    1.948   .     S
Cu106  O124    1.979   .     S
Cu106  O120    1.976   .     S
Cu106  N116    2.028   .     S
Cu106  O122    1.948   .     S
Cu106  O118    1.958   .     S
H111   C784    1.082   .     S
H114   C787    1.082   1_554 S
C125   H128    1.111   .     S
C125   H127    1.106   .     S
C125   H126    1.108   .     S
O129   H130    0.990   .     S
O131   H132    0.992   .     S
C133   H135    1.102   .     S
C133   H136    1.108   .     S
C133   H134    1.111   .     S
C137   H139    1.103   .     S
C137   H140    1.110   .     S
C137   H138    1.112   .     S
C141   H143    1.110   .     S
C141   H144    1.109   .     S
C141   H142    1.111   .     S
C145   H148    1.108   .     S
C145   H147    1.106   .     S
C145   H146    1.111   .     S
C149   H150    1.111   .     S
C149   H151    1.110   .     S
C149   H152    1.110   .     S
C153   O193    1.293   .     A
C153   C169    1.444   .     S
C153   O194    1.295   .     A
C154   C155    1.411   .     A
C154   C840    1.420   .     S
C154   C864    1.410   .     S
C155   C159    1.406   .     A
C155   C162    1.421   .     A
C156   C160    1.408   .     A
C156   C838    1.420   1_554 S
C156   C841    1.423   1_554 S
C157   C158    1.407   .     A
C157   C840    1.423   .     S
C157   C860    1.403   .     S
C158   C213    1.506   .     S
C158   C159    1.397   .     A
C159   C221    1.506   .     S
C160   C217    1.521   .     S
C160   C177    1.411   .     A
C161   C177    1.400   .     A
C161   C176    1.387   .     A
C161   H183    1.084   .     S
C162   C164    1.484   .     S
C162   C178    1.403   .     A
C163   C225    1.510   .     S
C163   C169    1.407   .     A
C163   C393    1.387   .     S
C164   O195    1.309   .     A
C164   O196    1.300   .     A
C165   H184    1.085   .     S
C165   C166    1.396   .     A
C165   C619    1.387   1_545 S
C166   C174    1.443   .     S
C166   C167    1.412   .     A
C167   C201    1.518   .     S
C167   C624    1.409   1_545 S
C168   O205    1.380   .     S
C168   C169    1.407   .     A
C168   C395    1.409   .     S
C170   N192    1.379   .     A
C170   O207    1.376   .     S
C170   C19     1.427   1_655 S
C171   N191    1.360   .     A
C171   H185    1.081   .     S
C172   N191    1.390   .     A
C172   C209    1.504   .     S
C173   N192    1.355   .     A
C173   H186    1.082   .     S
C173   C20     1.418   1_655 S
C174   O198    1.294   .     A
C174   O197    1.295   .     A
C175   C177    1.456   .     S
C175   O199    1.295   .     A
C175   O200    1.301   .     A
C176   C841    1.403   1_554 S
C176   H871    1.082   1_554 S
C178   C179    1.391   .     A
C178   H188    1.079   .     S
C179   C864    1.392   .     S
C179   H874    1.082   .     S
C180   H189    1.080   .     S
C180   C838    1.410   1_554 S
C180   C863    1.392   1_554 S
Cu181  O199    1.976   .     S
Cu181  O195    1.979   .     S
Cu181  O197    1.958   .     S
Cu181  Cu182   2.698   .     S
Cu181  N191    2.028   .     S
Cu181  O193    1.948   .     S
Cu182  O200    1.979   .     S
Cu182  O196    1.976   .     S
Cu182  N192    2.028   .     S
Cu182  O198    1.948   .     S
Cu182  O194    1.958   .     S
H187   C860    1.082   .     S
H190   C863    1.082   1_554 S
C201   H204    1.111   .     S
C201   H203    1.106   .     S
C201   H202    1.108   .     S
O205   H206    0.990   .     S
O207   H208    0.992   .     S
C209   H211    1.102   .     S
C209   H212    1.108   .     S
C209   H210    1.111   .     S
C213   H215    1.103   .     S
C213   H216    1.110   .     S
C213   H214    1.112   .     S
C217   H219    1.110   .     S
C217   H220    1.109   .     S
C217   H218    1.111   .     S
C221   H224    1.108   .     S
C221   H223    1.106   .     S
C221   H222    1.111   .     S
C225   H226    1.111   .     S
C225   H227    1.110   .     S
C225   H228    1.110   .     S
C229   O269    1.293   .     A
C229   C245    1.444   .     S
C229   O270    1.295   .     A
C230   C231    1.411   .     A
C230   C916    1.420   .     S
C230   C940    1.410   .     S
C231   C235    1.406   .     A
C231   C238    1.421   .     A
C232   C236    1.408   .     A
C232   C914    1.420   1_554 S
C232   C917    1.423   1_554 S
C233   C234    1.407   .     A
C233   C916    1.423   .     S
C233   C936    1.403   .     S
C234   C289    1.506   .     S
C234   C235    1.397   .     A
C235   C297    1.506   .     S
C236   C293    1.521   .     S
C236   C253    1.411   .     A
C237   C253    1.400   .     A
C237   C252    1.387   .     A
C237   H259    1.084   .     S
C238   C240    1.484   .     S
C238   C254    1.403   .     A
C239   C301    1.510   .     S
C239   C245    1.407   .     A
C239   C469    1.387   .     S
C240   O271    1.309   .     A
C240   O272    1.300   .     A
C241   H260    1.085   .     S
C241   C242    1.396   .     A
C242   C250    1.443   .     S
C242   C243    1.412   .     A
C243   C277    1.518   .     S
C244   O281    1.380   .     S
C244   C245    1.407   .     A
C244   C471    1.409   .     S
C246   N268    1.379   .     A
C246   O283    1.376   .     S
C246   C323    1.427   .     S
C247   N267    1.360   .     A
C247   H261    1.081   .     S
C247   C398    1.427   1_455 S
C248   N267    1.390   .     A
C248   C285    1.504   .     S
C248   C401    1.418   1_455 S
C249   N268    1.355   .     A
C249   H262    1.082   .     S
C249   C324    1.418   .     S
C250   O274    1.294   .     A
C250   O273    1.295   .     A
C251   C253    1.456   .     S
C251   O275    1.295   .     A
C251   O276    1.301   .     A
C252   C917    1.403   1_554 S
C252   H947    1.082   1_554 S
C254   C255    1.391   .     A
C254   H264    1.079   .     S
C255   C940    1.392   .     S
C255   H950    1.082   .     S
C256   H265    1.080   .     S
C256   C914    1.410   1_554 S
C256   C939    1.392   1_554 S
Cu257  O275    1.976   .     S
Cu257  O271    1.979   .     S
Cu257  O273    1.958   .     S
Cu257  Cu258   2.698   .     S
Cu257  N267    2.028   .     S
Cu257  O269    1.948   .     S
Cu258  O276    1.979   .     S
Cu258  O272    1.976   .     S
Cu258  N268    2.028   .     S
Cu258  O274    1.948   .     S
Cu258  O270    1.958   .     S
H263   C936    1.082   .     S
H266   C939    1.082   1_554 S
C277   H280    1.111   .     S
C277   H279    1.106   .     S
C277   H278    1.108   .     S
O281   H282    0.990   .     S
O283   H284    0.992   .     S
C285   H287    1.102   .     S
C285   H288    1.108   .     S
C285   H286    1.111   .     S
C289   H291    1.103   .     S
C289   H292    1.110   .     S
C289   H290    1.112   .     S
C293   H295    1.110   .     S
C293   H296    1.109   .     S
C293   H294    1.111   .     S
C297   H300    1.108   .     S
C297   H299    1.106   .     S
C297   H298    1.111   .     S
C301   H302    1.111   .     S
C301   H303    1.110   .     S
C301   H304    1.110   .     S
C305   O345    1.293   .     A
C305   C321    1.444   .     S
C305   O346    1.295   .     A
C306   C307    1.411   .     A
C306   C992    1.420   .     S
C306   C1016   1.410   .     S
C307   C311    1.406   .     A
C307   C314    1.421   .     A
C308   C312    1.408   .     A
C308   C990    1.420   1_554 S
C308   C993    1.423   1_554 S
C309   C310    1.407   .     A
C309   C992    1.423   .     S
C309   C1012   1.403   .     S
C310   C365    1.506   .     S
C310   C311    1.397   .     A
C311   C373    1.506   .     S
C312   C369    1.521   .     S
C312   C329    1.411   .     A
C313   C329    1.400   .     A
C313   C328    1.387   .     A
C313   H335    1.084   .     S
C314   C316    1.484   .     S
C314   C330    1.403   .     A
C315   C377    1.510   .     S
C315   C321    1.407   .     A
C315   C545    1.387   .     S
C316   O347    1.309   .     A
C316   O348    1.300   .     A
C317   H336    1.085   .     S
C317   C318    1.396   .     A
C318   C326    1.443   .     S
C318   C319    1.412   .     A
C319   C353    1.518   .     S
C320   O357    1.380   .     S
C320   C321    1.407   .     A
C320   C547    1.409   .     S
C322   N344    1.379   .     A
C322   O359    1.376   .     S
C322   C399    1.427   .     S
C323   N343    1.360   .     A
C323   H337    1.081   .     S
C324   N343    1.390   .     A
C324   C361    1.504   .     S
C325   N344    1.355   .     A
C325   H338    1.082   .     S
C325   C400    1.418   .     S
C326   O350    1.294   .     A
C326   O349    1.295   .     A
C327   C329    1.456   .     S
C327   O351    1.295   .     A
C327   O352    1.301   .     A
C328   C993    1.403   1_554 S
C328   H1023   1.082   1_554 S
C330   C331    1.391   .     A
C330   H340    1.079   .     S
C331   C1016   1.392   .     S
C331   H1026   1.082   .     S
C332   H341    1.080   .     S
C332   C990    1.410   1_554 S
C332   C1015   1.392   1_554 S
Cu333  O351    1.976   .     S
Cu333  O347    1.979   .     S
Cu333  O349    1.958   .     S
Cu333  Cu334   2.698   .     S
Cu333  N343    2.028   .     S
Cu333  O345    1.948   .     S
Cu334  O352    1.979   .     S
Cu334  O348    1.976   .     S
Cu334  N344    2.028   .     S
Cu334  O350    1.948   .     S
Cu334  O346    1.958   .     S
H339   C1012   1.082   .     S
H342   C1015   1.082   1_554 S
C353   H356    1.111   .     S
C353   H355    1.106   .     S
C353   H354    1.108   .     S
O357   H358    0.990   .     S
O359   H360    0.992   .     S
C361   H363    1.102   .     S
C361   H364    1.108   .     S
C361   H362    1.111   .     S
C365   H367    1.103   .     S
C365   H368    1.110   .     S
C365   H366    1.112   .     S
C369   H371    1.110   .     S
C369   H372    1.109   .     S
C369   H370    1.111   .     S
C373   H376    1.108   .     S
C373   H375    1.106   .     S
C373   H374    1.111   .     S
C377   H378    1.111   .     S
C377   H379    1.110   .     S
C377   H380    1.110   .     S
C381   O421    1.293   .     A
C381   C397    1.444   .     S
C381   O422    1.295   .     A
C382   C383    1.411   .     A
C382   C1068   1.420   .     S
C382   C1092   1.410   .     S
C383   C387    1.406   .     A
C383   C390    1.421   .     A
C384   C388    1.408   .     A
C384   C1066   1.420   1_554 S
C384   C1069   1.423   1_554 S
C385   C386    1.407   .     A
C385   C1068   1.423   .     S
C385   C1088   1.403   .     S
C386   C441    1.506   .     S
C386   C387    1.397   .     A
C387   C449    1.506   .     S
C388   C445    1.521   .     S
C388   C405    1.411   .     A
C389   C405    1.400   .     A
C389   C404    1.387   .     A
C389   H411    1.084   .     S
C390   C392    1.484   .     S
C390   C406    1.403   .     A
C391   C453    1.510   .     S
C391   C397    1.407   .     A
C391   C621    1.387   .     S
C392   O423    1.309   .     A
C392   O424    1.300   .     A
C393   H412    1.085   .     S
C393   C394    1.396   .     A
C394   C402    1.443   .     S
C394   C395    1.412   .     A
C395   C429    1.518   .     S
C396   O433    1.380   .     S
C396   C397    1.407   .     A
C396   C623    1.409   .     S
C398   N420    1.379   .     A
C398   O435    1.376   .     S
C398   C247    1.427   1_655 S
C399   N419    1.360   .     A
C399   H413    1.081   .     S
C400   N419    1.390   .     A
C400   C437    1.504   .     S
C401   N420    1.355   .     A
C401   H414    1.082   .     S
C401   C248    1.418   1_655 S
C402   O426    1.294   .     A
C402   O425    1.295   .     A
C403   C405    1.456   .     S
C403   O427    1.295   .     A
C403   O428    1.301   .     A
C404   C1069   1.403   1_554 S
C404   H1099   1.082   1_554 S
C406   C407    1.391   .     A
C406   H416    1.079   .     S
C407   C1092   1.392   .     S
C407   H1102   1.082   .     S
C408   H417    1.080   .     S
C408   C1066   1.410   1_554 S
C408   C1091   1.392   1_554 S
Cu409  O427    1.976   .     S
Cu409  O423    1.979   .     S
Cu409  O425    1.958   .     S
Cu409  Cu410   2.698   .     S
Cu409  N419    2.028   .     S
Cu409  O421    1.948   .     S
Cu410  O428    1.979   .     S
Cu410  O424    1.976   .     S
Cu410  N420    2.028   .     S
Cu410  O426    1.948   .     S
Cu410  O422    1.958   .     S
H415   C1088   1.082   .     S
H418   C1091   1.082   1_554 S
C429   H432    1.111   .     S
C429   H431    1.106   .     S
C429   H430    1.108   .     S
O433   H434    0.990   .     S
O435   H436    0.992   .     S
C437   H439    1.102   .     S
C437   H440    1.108   .     S
C437   H438    1.111   .     S
C441   H443    1.103   .     S
C441   H444    1.110   .     S
C441   H442    1.112   .     S
C445   H447    1.110   .     S
C445   H448    1.109   .     S
C445   H446    1.111   .     S
C449   H452    1.108   .     S
C449   H451    1.106   .     S
C449   H450    1.111   .     S
C453   H454    1.111   .     S
C453   H455    1.110   .     S
C453   H456    1.110   .     S
C457   O497    1.293   .     A
C457   C473    1.444   .     S
C457   O498    1.295   .     A
C458   C459    1.411   .     A
C458   C1144   1.420   .     S
C458   C1168   1.410   .     S
C459   C463    1.406   .     A
C459   C466    1.421   .     A
C460   C464    1.408   .     A
C460   C1142   1.420   1_554 S
C460   C1145   1.423   1_554 S
C461   C462    1.407   .     A
C461   C1144   1.423   .     S
C461   C1164   1.403   .     S
C462   C517    1.506   .     S
C462   C463    1.397   .     A
C463   C525    1.506   .     S
C464   C521    1.521   .     S
C464   C481    1.411   .     A
C465   C481    1.400   .     A
C465   C480    1.387   .     A
C465   H487    1.084   .     S
C466   C468    1.484   .     S
C466   C482    1.403   .     A
C467   C529    1.510   .     S
C467   C473    1.407   .     A
C467   C13     1.387   1_565 S
C468   O499    1.309   .     A
C468   O500    1.300   .     A
C469   H488    1.085   .     S
C469   C470    1.396   .     A
C470   C478    1.443   .     S
C470   C471    1.412   .     A
C471   C505    1.518   .     S
C472   O509    1.380   .     S
C472   C473    1.407   .     A
C472   C15     1.409   1_565 S
C474   N496    1.379   .     A
C474   O511    1.376   .     S
C474   C551    1.427   .     S
C475   N495    1.360   .     A
C475   H489    1.081   .     S
C475   C626    1.427   1_455 S
C476   N495    1.390   .     A
C476   C513    1.504   .     S
C476   C629    1.418   1_455 S
C477   N496    1.355   .     A
C477   H490    1.082   .     S
C477   C552    1.418   .     S
C478   O502    1.294   .     A
C478   O501    1.295   .     A
C479   C481    1.456   .     S
C479   O503    1.295   .     A
C479   O504    1.301   .     A
C480   C1145   1.403   1_554 S
C480   H1175   1.082   1_554 S
C482   C483    1.391   .     A
C482   H492    1.079   .     S
C483   C1168   1.392   .     S
C483   H1178   1.082   .     S
C484   H493    1.080   .     S
C484   C1142   1.410   1_554 S
C484   C1167   1.392   1_554 S
Cu485  O503    1.976   .     S
Cu485  O499    1.979   .     S
Cu485  O501    1.958   .     S
Cu485  Cu486   2.698   .     S
Cu485  N495    2.028   .     S
Cu485  O497    1.948   .     S
Cu486  O504    1.979   .     S
Cu486  O500    1.976   .     S
Cu486  N496    2.028   .     S
Cu486  O502    1.948   .     S
Cu486  O498    1.958   .     S
H491   C1164   1.082   .     S
H494   C1167   1.082   1_554 S
C505   H508    1.111   .     S
C505   H507    1.106   .     S
C505   H506    1.108   .     S
O509   H510    0.990   .     S
O511   H512    0.992   .     S
C513   H515    1.102   .     S
C513   H516    1.108   .     S
C513   H514    1.111   .     S
C517   H519    1.103   .     S
C517   H520    1.110   .     S
C517   H518    1.112   .     S
C521   H523    1.110   .     S
C521   H524    1.109   .     S
C521   H522    1.111   .     S
C525   H528    1.108   .     S
C525   H527    1.106   .     S
C525   H526    1.111   .     S
C529   H530    1.111   .     S
C529   H531    1.110   .     S
C529   H532    1.110   .     S
C533   O573    1.293   .     A
C533   C549    1.444   .     S
C533   O574    1.295   .     A
C534   C535    1.411   .     A
C534   C1220   1.420   .     S
C534   C1244   1.410   .     S
C535   C539    1.406   .     A
C535   C542    1.421   .     A
C536   C540    1.408   .     A
C536   C1218   1.420   1_554 S
C536   C1221   1.423   1_554 S
C537   C538    1.407   .     A
C537   C1220   1.423   .     S
C537   C1240   1.403   .     S
C538   C593    1.506   .     S
C538   C539    1.397   .     A
C539   C601    1.506   .     S
C540   C597    1.521   .     S
C540   C557    1.411   .     A
C541   C557    1.400   .     A
C541   C556    1.387   .     A
C541   H563    1.084   .     S
C542   C544    1.484   .     S
C542   C558    1.403   .     A
C543   C605    1.510   .     S
C543   C549    1.407   .     A
C543   C89     1.387   1_565 S
C544   O575    1.309   .     A
C544   O576    1.300   .     A
C545   H564    1.085   .     S
C545   C546    1.396   .     A
C546   C554    1.443   .     S
C546   C547    1.412   .     A
C547   C581    1.518   .     S
C548   O585    1.380   .     S
C548   C549    1.407   .     A
C548   C91     1.409   1_565 S
C550   N572    1.379   .     A
C550   O587    1.376   .     S
C550   C627    1.427   .     S
C551   N571    1.360   .     A
C551   H565    1.081   .     S
C552   N571    1.390   .     A
C552   C589    1.504   .     S
C553   N572    1.355   .     A
C553   H566    1.082   .     S
C553   C628    1.418   .     S
C554   O578    1.294   .     A
C554   O577    1.295   .     A
C555   C557    1.456   .     S
C555   O579    1.295   .     A
C555   O580    1.301   .     A
C556   C1221   1.403   1_554 S
C556   H1251   1.082   1_554 S
C558   C559    1.391   .     A
C558   H568    1.079   .     S
C559   C1244   1.392   .     S
C559   H1254   1.082   .     S
C560   H569    1.080   .     S
C560   C1218   1.410   1_554 S
C560   C1243   1.392   1_554 S
Cu561  O579    1.976   .     S
Cu561  O575    1.979   .     S
Cu561  O577    1.958   .     S
Cu561  Cu562   2.698   .     S
Cu561  N571    2.028   .     S
Cu561  O573    1.948   .     S
Cu562  O580    1.979   .     S
Cu562  O576    1.976   .     S
Cu562  N572    2.028   .     S
Cu562  O578    1.948   .     S
Cu562  O574    1.958   .     S
H567   C1240   1.082   .     S
H570   C1243   1.082   1_554 S
C581   H584    1.111   .     S
C581   H583    1.106   .     S
C581   H582    1.108   .     S
O585   H586    0.990   .     S
O587   H588    0.992   .     S
C589   H591    1.102   .     S
C589   H592    1.108   .     S
C589   H590    1.111   .     S
C593   H595    1.103   .     S
C593   H596    1.110   .     S
C593   H594    1.112   .     S
C597   H599    1.110   .     S
C597   H600    1.109   .     S
C597   H598    1.111   .     S
C601   H604    1.108   .     S
C601   H603    1.106   .     S
C601   H602    1.111   .     S
C605   H606    1.111   .     S
C605   H607    1.110   .     S
C605   H608    1.110   .     S
C609   O649    1.293   .     A
C609   C625    1.444   .     S
C609   O650    1.295   .     A
C610   C611    1.411   .     A
C610   C1296   1.420   .     S
C610   C1320   1.410   .     S
C611   C615    1.406   .     A
C611   C618    1.421   .     A
C612   C616    1.408   .     A
C612   C1294   1.420   1_554 S
C612   C1297   1.423   1_554 S
C613   C614    1.407   .     A
C613   C1296   1.423   .     S
C613   C1316   1.403   .     S
C614   C669    1.506   .     S
C614   C615    1.397   .     A
C615   C677    1.506   .     S
C616   C673    1.521   .     S
C616   C633    1.411   .     A
C617   C633    1.400   .     A
C617   C632    1.387   .     A
C617   H639    1.084   .     S
C618   C620    1.484   .     S
C618   C634    1.403   .     A
C619   C681    1.510   .     S
C619   C625    1.407   .     A
C619   C165    1.387   1_565 S
C620   O651    1.309   .     A
C620   O652    1.300   .     A
C621   H640    1.085   .     S
C621   C622    1.396   .     A
C622   C630    1.443   .     S
C622   C623    1.412   .     A
C623   C657    1.518   .     S
C624   O661    1.380   .     S
C624   C625    1.407   .     A
C624   C167    1.409   1_565 S
C626   N648    1.379   .     A
C626   O663    1.376   .     S
C626   C475    1.427   1_655 S
C627   N647    1.360   .     A
C627   H641    1.081   .     S
C628   N647    1.390   .     A
C628   C665    1.504   .     S
C629   N648    1.355   .     A
C629   H642    1.082   .     S
C629   C476    1.418   1_655 S
C630   O654    1.294   .     A
C630   O653    1.295   .     A
C631   C633    1.456   .     S
C631   O655    1.295   .     A
C631   O656    1.301   .     A
C632   C1297   1.403   1_554 S
C632   H1327   1.082   1_554 S
C634   C635    1.391   .     A
C634   H644    1.079   .     S
C635   C1320   1.392   .     S
C635   H1330   1.082   .     S
C636   H645    1.080   .     S
C636   C1294   1.410   1_554 S
C636   C1319   1.392   1_554 S
Cu637  O655    1.976   .     S
Cu637  O651    1.979   .     S
Cu637  O653    1.958   .     S
Cu637  Cu638   2.698   .     S
Cu637  N647    2.028   .     S
Cu637  O649    1.948   .     S
Cu638  O656    1.979   .     S
Cu638  O652    1.976   .     S
Cu638  N648    2.028   .     S
Cu638  O654    1.948   .     S
Cu638  O650    1.958   .     S
H643   C1316   1.082   .     S
H646   C1319   1.082   1_554 S
C657   H660    1.111   .     S
C657   H659    1.106   .     S
C657   H658    1.108   .     S
O661   H662    0.990   .     S
O663   H664    0.992   .     S
C665   H667    1.102   .     S
C665   H668    1.108   .     S
C665   H666    1.111   .     S
C669   H671    1.103   .     S
C669   H672    1.110   .     S
C669   H670    1.112   .     S
C673   H675    1.110   .     S
C673   H676    1.109   .     S
C673   H674    1.111   .     S
C677   H680    1.108   .     S
C677   H679    1.106   .     S
C677   H678    1.111   .     S
C681   H682    1.111   .     S
C681   H683    1.110   .     S
C681   H684    1.110   .     S
C685   O725    1.293   .     A
C685   C701    1.444   .     S
C685   O726    1.295   .     A
C686   C687    1.411   .     A
C686   C4      1.420   1_556 S
C686   C28     1.410   1_556 S
C687   C691    1.406   .     A
C687   C694    1.421   .     A
C688   C692    1.408   .     A
C689   C690    1.407   .     A
C689   C4      1.423   1_556 S
C689   C24     1.403   1_556 S
C690   C745    1.506   .     S
C690   C691    1.397   .     A
C691   C753    1.506   .     S
C692   C749    1.521   .     S
C692   C709    1.411   .     A
C693   C709    1.400   .     A
C693   C708    1.387   .     A
C693   H715    1.084   .     S
C694   C696    1.484   .     S
C694   C710    1.403   .     A
C695   C757    1.510   .     S
C695   C701    1.407   .     A
C695   C925    1.387   .     S
C696   O727    1.309   .     A
C696   O728    1.300   .     A
C697   H716    1.085   .     S
C697   C698    1.396   .     A
C697   C1151   1.387   1_545 S
C698   C706    1.443   .     S
C698   C699    1.412   .     A
C699   C733    1.518   .     S
C699   C1156   1.409   1_545 S
C700   O737    1.380   .     S
C700   C701    1.407   .     A
C700   C927    1.409   .     S
C702   N724    1.379   .     A
C702   O739    1.376   .     S
C702   C779    1.427   .     S
C703   N723    1.360   .     A
C703   H717    1.081   .     S
C703   C854    1.427   1_455 S
C704   N723    1.390   .     A
C704   C741    1.504   .     S
C704   C857    1.418   1_455 S
C705   N724    1.355   .     A
C705   H718    1.082   .     S
C705   C780    1.418   .     S
C706   O730    1.294   .     A
C706   O729    1.295   .     A
C707   C709    1.456   .     S
C707   O731    1.295   .     A
C707   O732    1.301   .     A
C710   C711    1.391   .     A
C710   H720    1.079   .     S
C711   C28     1.392   1_556 S
C711   H38     1.082   1_556 S
C712   H721    1.080   .     S
Cu713  O731    1.976   .     S
Cu713  O727    1.979   .     S
Cu713  O729    1.958   .     S
Cu713  Cu714   2.698   .     S
Cu713  N723    2.028   .     S
Cu713  O725    1.948   .     S
Cu714  O732    1.979   .     S
Cu714  O728    1.976   .     S
Cu714  N724    2.028   .     S
Cu714  O730    1.948   .     S
Cu714  O726    1.958   .     S
H719   C24     1.082   1_556 S
C733   H736    1.111   .     S
C733   H735    1.106   .     S
C733   H734    1.108   .     S
O737   H738    0.990   .     S
O739   H740    0.992   .     S
C741   H743    1.102   .     S
C741   H744    1.108   .     S
C741   H742    1.111   .     S
C745   H747    1.103   .     S
C745   H748    1.110   .     S
C745   H746    1.112   .     S
C749   H751    1.110   .     S
C749   H752    1.109   .     S
C749   H750    1.111   .     S
C753   H756    1.108   .     S
C753   H755    1.106   .     S
C753   H754    1.111   .     S
C757   H758    1.111   .     S
C757   H759    1.110   .     S
C757   H760    1.110   .     S
C761   O801    1.293   .     A
C761   C777    1.444   .     S
C761   O802    1.295   .     A
C762   C763    1.411   .     A
C762   C80     1.420   1_556 S
C762   C104    1.410   1_556 S
C763   C767    1.406   .     A
C763   C770    1.421   .     A
C764   C768    1.408   .     A
C765   C766    1.407   .     A
C765   C80     1.423   1_556 S
C765   C100    1.403   1_556 S
C766   C821    1.506   .     S
C766   C767    1.397   .     A
C767   C829    1.506   .     S
C768   C825    1.521   .     S
C768   C785    1.411   .     A
C769   C785    1.400   .     A
C769   C784    1.387   .     A
C769   H791    1.084   .     S
C770   C772    1.484   .     S
C770   C786    1.403   .     A
C771   C833    1.510   .     S
C771   C777    1.407   .     A
C771   C1001   1.387   .     S
C772   O803    1.309   .     A
C772   O804    1.300   .     A
C773   H792    1.085   .     S
C773   C774    1.396   .     A
C773   C1227   1.387   1_545 S
C774   C782    1.443   .     S
C774   C775    1.412   .     A
C775   C809    1.518   .     S
C775   C1232   1.409   1_545 S
C776   O813    1.380   .     S
C776   C777    1.407   .     A
C776   C1003   1.409   .     S
C778   N800    1.379   .     A
C778   O815    1.376   .     S
C778   C855    1.427   .     S
C779   N799    1.360   .     A
C779   H793    1.081   .     S
C780   N799    1.390   .     A
C780   C817    1.504   .     S
C781   N800    1.355   .     A
C781   H794    1.082   .     S
C781   C856    1.418   .     S
C782   O806    1.294   .     A
C782   O805    1.295   .     A
C783   C785    1.456   .     S
C783   O807    1.295   .     A
C783   O808    1.301   .     A
C786   C787    1.391   .     A
C786   H796    1.079   .     S
C787   C104    1.392   1_556 S
C787   H114    1.082   1_556 S
C788   H797    1.080   .     S
Cu789  O807    1.976   .     S
Cu789  O803    1.979   .     S
Cu789  O805    1.958   .     S
Cu789  Cu790   2.698   .     S
Cu789  N799    2.028   .     S
Cu789  O801    1.948   .     S
Cu790  O808    1.979   .     S
Cu790  O804    1.976   .     S
Cu790  N800    2.028   .     S
Cu790  O806    1.948   .     S
Cu790  O802    1.958   .     S
H795   C100    1.082   1_556 S
C809   H812    1.111   .     S
C809   H811    1.106   .     S
C809   H810    1.108   .     S
O813   H814    0.990   .     S
O815   H816    0.992   .     S
C817   H819    1.102   .     S
C817   H820    1.108   .     S
C817   H818    1.111   .     S
C821   H823    1.103   .     S
C821   H824    1.110   .     S
C821   H822    1.112   .     S
C825   H827    1.110   .     S
C825   H828    1.109   .     S
C825   H826    1.111   .     S
C829   H832    1.108   .     S
C829   H831    1.106   .     S
C829   H830    1.111   .     S
C833   H834    1.111   .     S
C833   H835    1.110   .     S
C833   H836    1.110   .     S
C837   O877    1.293   .     A
C837   C853    1.444   .     S
C837   O878    1.295   .     A
C838   C839    1.411   .     A
C838   C156    1.420   1_556 S
C838   C180    1.410   1_556 S
C839   C843    1.406   .     A
C839   C846    1.421   .     A
C840   C844    1.408   .     A
C841   C842    1.407   .     A
C841   C156    1.423   1_556 S
C841   C176    1.403   1_556 S
C842   C897    1.506   .     S
C842   C843    1.397   .     A
C843   C905    1.506   .     S
C844   C901    1.521   .     S
C844   C861    1.411   .     A
C845   C861    1.400   .     A
C845   C860    1.387   .     A
C845   H867    1.084   .     S
C846   C848    1.484   .     S
C846   C862    1.403   .     A
C847   C909    1.510   .     S
C847   C853    1.407   .     A
C847   C1077   1.387   .     S
C848   O879    1.309   .     A
C848   O880    1.300   .     A
C849   H868    1.085   .     S
C849   C850    1.396   .     A
C849   C1303   1.387   1_545 S
C850   C858    1.443   .     S
C850   C851    1.412   .     A
C851   C885    1.518   .     S
C851   C1308   1.409   1_545 S
C852   O889    1.380   .     S
C852   C853    1.407   .     A
C852   C1079   1.409   .     S
C854   N876    1.379   .     A
C854   O891    1.376   .     S
C854   C703    1.427   1_655 S
C855   N875    1.360   .     A
C855   H869    1.081   .     S
C856   N875    1.390   .     A
C856   C893    1.504   .     S
C857   N876    1.355   .     A
C857   H870    1.082   .     S
C857   C704    1.418   1_655 S
C858   O882    1.294   .     A
C858   O881    1.295   .     A
C859   C861    1.456   .     S
C859   O883    1.295   .     A
C859   O884    1.301   .     A
C862   C863    1.391   .     A
C862   H872    1.079   .     S
C863   C180    1.392   1_556 S
C863   H190    1.082   1_556 S
C864   H873    1.080   .     S
Cu865  O883    1.976   .     S
Cu865  O879    1.979   .     S
Cu865  O881    1.958   .     S
Cu865  Cu866   2.698   .     S
Cu865  N875    2.028   .     S
Cu865  O877    1.948   .     S
Cu866  O884    1.979   .     S
Cu866  O880    1.976   .     S
Cu866  N876    2.028   .     S
Cu866  O882    1.948   .     S
Cu866  O878    1.958   .     S
H871   C176    1.082   1_556 S
C885   H888    1.111   .     S
C885   H887    1.106   .     S
C885   H886    1.108   .     S
O889   H890    0.990   .     S
O891   H892    0.992   .     S
C893   H895    1.102   .     S
C893   H896    1.108   .     S
C893   H894    1.111   .     S
C897   H899    1.103   .     S
C897   H900    1.110   .     S
C897   H898    1.112   .     S
C901   H903    1.110   .     S
C901   H904    1.109   .     S
C901   H902    1.111   .     S
C905   H908    1.108   .     S
C905   H907    1.106   .     S
C905   H906    1.111   .     S
C909   H910    1.111   .     S
C909   H911    1.110   .     S
C909   H912    1.110   .     S
C913   O953    1.293   .     A
C913   C929    1.444   .     S
C913   O954    1.295   .     A
C914   C915    1.411   .     A
C914   C232    1.420   1_556 S
C914   C256    1.410   1_556 S
C915   C919    1.406   .     A
C915   C922    1.421   .     A
C916   C920    1.408   .     A
C917   C918    1.407   .     A
C917   C232    1.423   1_556 S
C917   C252    1.403   1_556 S
C918   C973    1.506   .     S
C918   C919    1.397   .     A
C919   C981    1.506   .     S
C920   C977    1.521   .     S
C920   C937    1.411   .     A
C921   C937    1.400   .     A
C921   C936    1.387   .     A
C921   H943    1.084   .     S
C922   C924    1.484   .     S
C922   C938    1.403   .     A
C923   C985    1.510   .     S
C923   C929    1.407   .     A
C923   C1153   1.387   .     S
C924   O955    1.309   .     A
C924   O956    1.300   .     A
C925   H944    1.085   .     S
C925   C926    1.396   .     A
C926   C934    1.443   .     S
C926   C927    1.412   .     A
C927   C961    1.518   .     S
C928   O965    1.380   .     S
C928   C929    1.407   .     A
C928   C1155   1.409   .     S
C930   N952    1.379   .     A
C930   O967    1.376   .     S
C930   C1007   1.427   .     S
C931   N951    1.360   .     A
C931   H945    1.081   .     S
C931   C1082   1.427   1_455 S
C932   N951    1.390   .     A
C932   C969    1.504   .     S
C932   C1085   1.418   1_455 S
C933   N952    1.355   .     A
C933   H946    1.082   .     S
C933   C1008   1.418   .     S
C934   O958    1.294   .     A
C934   O957    1.295   .     A
C935   C937    1.456   .     S
C935   O959    1.295   .     A
C935   O960    1.301   .     A
C938   C939    1.391   .     A
C938   H948    1.079   .     S
C939   C256    1.392   1_556 S
C939   H266    1.082   1_556 S
C940   H949    1.080   .     S
Cu941  O959    1.976   .     S
Cu941  O955    1.979   .     S
Cu941  O957    1.958   .     S
Cu941  Cu942   2.698   .     S
Cu941  N951    2.028   .     S
Cu941  O953    1.948   .     S
Cu942  O960    1.979   .     S
Cu942  O956    1.976   .     S
Cu942  N952    2.028   .     S
Cu942  O958    1.948   .     S
Cu942  O954    1.958   .     S
H947   C252    1.082   1_556 S
C961   H964    1.111   .     S
C961   H963    1.106   .     S
C961   H962    1.108   .     S
O965   H966    0.990   .     S
O967   H968    0.992   .     S
C969   H971    1.102   .     S
C969   H972    1.108   .     S
C969   H970    1.111   .     S
C973   H975    1.103   .     S
C973   H976    1.110   .     S
C973   H974    1.112   .     S
C977   H979    1.110   .     S
C977   H980    1.109   .     S
C977   H978    1.111   .     S
C981   H984    1.108   .     S
C981   H983    1.106   .     S
C981   H982    1.111   .     S
C985   H986    1.111   .     S
C985   H987    1.110   .     S
C985   H988    1.110   .     S
C989   O1029   1.293   .     A
C989   C1005   1.444   .     S
C989   O1030   1.295   .     A
C990   C991    1.411   .     A
C990   C308    1.420   1_556 S
C990   C332    1.410   1_556 S
C991   C995    1.406   .     A
C991   C998    1.421   .     A
C992   C996    1.408   .     A
C993   C994    1.407   .     A
C993   C308    1.423   1_556 S
C993   C328    1.403   1_556 S
C994   C1049   1.506   .     S
C994   C995    1.397   .     A
C995   C1057   1.506   .     S
C996   C1053   1.521   .     S
C996   C1013   1.411   .     A
C997   C1013   1.400   .     A
C997   C1012   1.387   .     A
C997   H1019   1.084   .     S
C998   C1000   1.484   .     S
C998   C1014   1.403   .     A
C999   C1061   1.510   .     S
C999   C1005   1.407   .     A
C999   C1229   1.387   .     S
C1000  O1031   1.309   .     A
C1000  O1032   1.300   .     A
C1001  H1020   1.085   .     S
C1001  C1002   1.396   .     A
C1002  C1010   1.443   .     S
C1002  C1003   1.412   .     A
C1003  C1037   1.518   .     S
C1004  O1041   1.380   .     S
C1004  C1005   1.407   .     A
C1004  C1231   1.409   .     S
C1006  N1028   1.379   .     A
C1006  O1043   1.376   .     S
C1006  C1083   1.427   .     S
C1007  N1027   1.360   .     A
C1007  H1021   1.081   .     S
C1008  N1027   1.390   .     A
C1008  C1045   1.504   .     S
C1009  N1028   1.355   .     A
C1009  H1022   1.082   .     S
C1009  C1084   1.418   .     S
C1010  O1034   1.294   .     A
C1010  O1033   1.295   .     A
C1011  C1013   1.456   .     S
C1011  O1035   1.295   .     A
C1011  O1036   1.301   .     A
C1014  C1015   1.391   .     A
C1014  H1024   1.079   .     S
C1015  C332    1.392   1_556 S
C1015  H342    1.082   1_556 S
C1016  H1025   1.080   .     S
Cu1017 O1035   1.976   .     S
Cu1017 O1031   1.979   .     S
Cu1017 O1033   1.958   .     S
Cu1017 Cu1018  2.698   .     S
Cu1017 N1027   2.028   .     S
Cu1017 O1029   1.948   .     S
Cu1018 O1036   1.979   .     S
Cu1018 O1032   1.976   .     S
Cu1018 N1028   2.028   .     S
Cu1018 O1034   1.948   .     S
Cu1018 O1030   1.958   .     S
H1023  C328    1.082   1_556 S
C1037  H1040   1.111   .     S
C1037  H1039   1.106   .     S
C1037  H1038   1.108   .     S
O1041  H1042   0.990   .     S
O1043  H1044   0.992   .     S
C1045  H1047   1.102   .     S
C1045  H1048   1.108   .     S
C1045  H1046   1.111   .     S
C1049  H1051   1.103   .     S
C1049  H1052   1.110   .     S
C1049  H1050   1.112   .     S
C1053  H1055   1.110   .     S
C1053  H1056   1.109   .     S
C1053  H1054   1.111   .     S
C1057  H1060   1.108   .     S
C1057  H1059   1.106   .     S
C1057  H1058   1.111   .     S
C1061  H1062   1.111   .     S
C1061  H1063   1.110   .     S
C1061  H1064   1.110   .     S
C1065  O1105   1.293   .     A
C1065  C1081   1.444   .     S
C1065  O1106   1.295   .     A
C1066  C1067   1.411   .     A
C1066  C384    1.420   1_556 S
C1066  C408    1.410   1_556 S
C1067  C1071   1.406   .     A
C1067  C1074   1.421   .     A
C1068  C1072   1.408   .     A
C1069  C1070   1.407   .     A
C1069  C384    1.423   1_556 S
C1069  C404    1.403   1_556 S
C1070  C1125   1.506   .     S
C1070  C1071   1.397   .     A
C1071  C1133   1.506   .     S
C1072  C1129   1.521   .     S
C1072  C1089   1.411   .     A
C1073  C1089   1.400   .     A
C1073  C1088   1.387   .     A
C1073  H1095   1.084   .     S
C1074  C1076   1.484   .     S
C1074  C1090   1.403   .     A
C1075  C1137   1.510   .     S
C1075  C1081   1.407   .     A
C1075  C1305   1.387   .     S
C1076  O1107   1.309   .     A
C1076  O1108   1.300   .     A
C1077  H1096   1.085   .     S
C1077  C1078   1.396   .     A
C1078  C1086   1.443   .     S
C1078  C1079   1.412   .     A
C1079  C1113   1.518   .     S
C1080  O1117   1.380   .     S
C1080  C1081   1.407   .     A
C1080  C1307   1.409   .     S
C1082  N1104   1.379   .     A
C1082  O1119   1.376   .     S
C1082  C931    1.427   1_655 S
C1083  N1103   1.360   .     A
C1083  H1097   1.081   .     S
C1084  N1103   1.390   .     A
C1084  C1121   1.504   .     S
C1085  N1104   1.355   .     A
C1085  H1098   1.082   .     S
C1085  C932    1.418   1_655 S
C1086  O1110   1.294   .     A
C1086  O1109   1.295   .     A
C1087  C1089   1.456   .     S
C1087  O1111   1.295   .     A
C1087  O1112   1.301   .     A
C1090  C1091   1.391   .     A
C1090  H1100   1.079   .     S
C1091  C408    1.392   1_556 S
C1091  H418    1.082   1_556 S
C1092  H1101   1.080   .     S
Cu1093 O1111   1.976   .     S
Cu1093 O1107   1.979   .     S
Cu1093 O1109   1.958   .     S
Cu1093 Cu1094  2.698   .     S
Cu1093 N1103   2.028   .     S
Cu1093 O1105   1.948   .     S
Cu1094 O1112   1.979   .     S
Cu1094 O1108   1.976   .     S
Cu1094 N1104   2.028   .     S
Cu1094 O1110   1.948   .     S
Cu1094 O1106   1.958   .     S
H1099  C404    1.082   1_556 S
C1113  H1116   1.111   .     S
C1113  H1115   1.106   .     S
C1113  H1114   1.108   .     S
O1117  H1118   0.990   .     S
O1119  H1120   0.992   .     S
C1121  H1123   1.102   .     S
C1121  H1124   1.108   .     S
C1121  H1122   1.111   .     S
C1125  H1127   1.103   .     S
C1125  H1128   1.110   .     S
C1125  H1126   1.112   .     S
C1129  H1131   1.110   .     S
C1129  H1132   1.109   .     S
C1129  H1130   1.111   .     S
C1133  H1136   1.108   .     S
C1133  H1135   1.106   .     S
C1133  H1134   1.111   .     S
C1137  H1138   1.111   .     S
C1137  H1139   1.110   .     S
C1137  H1140   1.110   .     S
C1141  O1181   1.293   .     A
C1141  C1157   1.444   .     S
C1141  O1182   1.295   .     A
C1142  C1143   1.411   .     A
C1142  C460    1.420   1_556 S
C1142  C484    1.410   1_556 S
C1143  C1147   1.406   .     A
C1143  C1150   1.421   .     A
C1144  C1148   1.408   .     A
C1145  C1146   1.407   .     A
C1145  C460    1.423   1_556 S
C1145  C480    1.403   1_556 S
C1146  C1201   1.506   .     S
C1146  C1147   1.397   .     A
C1147  C1209   1.506   .     S
C1148  C1205   1.521   .     S
C1148  C1165   1.411   .     A
C1149  C1165   1.400   .     A
C1149  C1164   1.387   .     A
C1149  H1171   1.084   .     S
C1150  C1152   1.484   .     S
C1150  C1166   1.403   .     A
C1151  C1213   1.510   .     S
C1151  C1157   1.407   .     A
C1151  C697    1.387   1_565 S
C1152  O1183   1.309   .     A
C1152  O1184   1.300   .     A
C1153  H1172   1.085   .     S
C1153  C1154   1.396   .     A
C1154  C1162   1.443   .     S
C1154  C1155   1.412   .     A
C1155  C1189   1.518   .     S
C1156  O1193   1.380   .     S
C1156  C1157   1.407   .     A
C1156  C699    1.409   1_565 S
C1158  N1180   1.379   .     A
C1158  O1195   1.376   .     S
C1158  C1235   1.427   .     S
C1159  N1179   1.360   .     A
C1159  H1173   1.081   .     S
C1159  C1310   1.427   1_455 S
C1160  N1179   1.390   .     A
C1160  C1197   1.504   .     S
C1160  C1313   1.418   1_455 S
C1161  N1180   1.355   .     A
C1161  H1174   1.082   .     S
C1161  C1236   1.418   .     S
C1162  O1186   1.294   .     A
C1162  O1185   1.295   .     A
C1163  C1165   1.456   .     S
C1163  O1187   1.295   .     A
C1163  O1188   1.301   .     A
C1166  C1167   1.391   .     A
C1166  H1176   1.079   .     S
C1167  C484    1.392   1_556 S
C1167  H494    1.082   1_556 S
C1168  H1177   1.080   .     S
Cu1169 O1187   1.976   .     S
Cu1169 O1183   1.979   .     S
Cu1169 O1185   1.958   .     S
Cu1169 Cu1170  2.698   .     S
Cu1169 N1179   2.028   .     S
Cu1169 O1181   1.948   .     S
Cu1170 O1188   1.979   .     S
Cu1170 O1184   1.976   .     S
Cu1170 N1180   2.028   .     S
Cu1170 O1186   1.948   .     S
Cu1170 O1182   1.958   .     S
H1175  C480    1.082   1_556 S
C1189  H1192   1.111   .     S
C1189  H1191   1.106   .     S
C1189  H1190   1.108   .     S
O1193  H1194   0.990   .     S
O1195  H1196   0.992   .     S
C1197  H1199   1.102   .     S
C1197  H1200   1.108   .     S
C1197  H1198   1.111   .     S
C1201  H1203   1.103   .     S
C1201  H1204   1.110   .     S
C1201  H1202   1.112   .     S
C1205  H1207   1.110   .     S
C1205  H1208   1.109   .     S
C1205  H1206   1.111   .     S
C1209  H1212   1.108   .     S
C1209  H1211   1.106   .     S
C1209  H1210   1.111   .     S
C1213  H1214   1.111   .     S
C1213  H1215   1.110   .     S
C1213  H1216   1.110   .     S
C1217  O1257   1.293   .     A
C1217  C1233   1.444   .     S
C1217  O1258   1.295   .     A
C1218  C1219   1.411   .     A
C1218  C536    1.420   1_556 S
C1218  C560    1.410   1_556 S
C1219  C1223   1.406   .     A
C1219  C1226   1.421   .     A
C1220  C1224   1.408   .     A
C1221  C1222   1.407   .     A
C1221  C536    1.423   1_556 S
C1221  C556    1.403   1_556 S
C1222  C1277   1.506   .     S
C1222  C1223   1.397   .     A
C1223  C1285   1.506   .     S
C1224  C1281   1.521   .     S
C1224  C1241   1.411   .     A
C1225  C1241   1.400   .     A
C1225  C1240   1.387   .     A
C1225  H1247   1.084   .     S
C1226  C1228   1.484   .     S
C1226  C1242   1.403   .     A
C1227  C1289   1.510   .     S
C1227  C1233   1.407   .     A
C1227  C773    1.387   1_565 S
C1228  O1259   1.309   .     A
C1228  O1260   1.300   .     A
C1229  H1248   1.085   .     S
C1229  C1230   1.396   .     A
C1230  C1238   1.443   .     S
C1230  C1231   1.412   .     A
C1231  C1265   1.518   .     S
C1232  O1269   1.380   .     S
C1232  C1233   1.407   .     A
C1232  C775    1.409   1_565 S
C1234  N1256   1.379   .     A
C1234  O1271   1.376   .     S
C1234  C1311   1.427   .     S
C1235  N1255   1.360   .     A
C1235  H1249   1.081   .     S
C1236  N1255   1.390   .     A
C1236  C1273   1.504   .     S
C1237  N1256   1.355   .     A
C1237  H1250   1.082   .     S
C1237  C1312   1.418   .     S
C1238  O1262   1.294   .     A
C1238  O1261   1.295   .     A
C1239  C1241   1.456   .     S
C1239  O1263   1.295   .     A
C1239  O1264   1.301   .     A
C1242  C1243   1.391   .     A
C1242  H1252   1.079   .     S
C1243  C560    1.392   1_556 S
C1243  H570    1.082   1_556 S
C1244  H1253   1.080   .     S
Cu1245 O1263   1.976   .     S
Cu1245 O1259   1.979   .     S
Cu1245 O1261   1.958   .     S
Cu1245 Cu1246  2.698   .     S
Cu1245 N1255   2.028   .     S
Cu1245 O1257   1.948   .     S
Cu1246 O1264   1.979   .     S
Cu1246 O1260   1.976   .     S
Cu1246 N1256   2.028   .     S
Cu1246 O1262   1.948   .     S
Cu1246 O1258   1.958   .     S
H1251  C556    1.082   1_556 S
C1265  H1268   1.111   .     S
C1265  H1267   1.106   .     S
C1265  H1266   1.108   .     S
O1269  H1270   0.990   .     S
O1271  H1272   0.992   .     S
C1273  H1275   1.102   .     S
C1273  H1276   1.108   .     S
C1273  H1274   1.111   .     S
C1277  H1279   1.103   .     S
C1277  H1280   1.110   .     S
C1277  H1278   1.112   .     S
C1281  H1283   1.110   .     S
C1281  H1284   1.109   .     S
C1281  H1282   1.111   .     S
C1285  H1288   1.108   .     S
C1285  H1287   1.106   .     S
C1285  H1286   1.111   .     S
C1289  H1290   1.111   .     S
C1289  H1291   1.110   .     S
C1289  H1292   1.110   .     S
C1293  O1333   1.293   .     A
C1293  C1309   1.444   .     S
C1293  O1334   1.295   .     A
C1294  C1295   1.411   .     A
C1294  C612    1.420   1_556 S
C1294  C636    1.410   1_556 S
C1295  C1299   1.406   .     A
C1295  C1302   1.421   .     A
C1296  C1300   1.408   .     A
C1297  C1298   1.407   .     A
C1297  C612    1.423   1_556 S
C1297  C632    1.403   1_556 S
C1298  C1353   1.506   .     S
C1298  C1299   1.397   .     A
C1299  C1361   1.506   .     S
C1300  C1357   1.521   .     S
C1300  C1317   1.411   .     A
C1301  C1317   1.400   .     A
C1301  C1316   1.387   .     A
C1301  H1323   1.084   .     S
C1302  C1304   1.484   .     S
C1302  C1318   1.403   .     A
C1303  C1365   1.510   .     S
C1303  C1309   1.407   .     A
C1303  C849    1.387   1_565 S
C1304  O1335   1.309   .     A
C1304  O1336   1.300   .     A
C1305  H1324   1.085   .     S
C1305  C1306   1.396   .     A
C1306  C1314   1.443   .     S
C1306  C1307   1.412   .     A
C1307  C1341   1.518   .     S
C1308  O1345   1.380   .     S
C1308  C1309   1.407   .     A
C1308  C851    1.409   1_565 S
C1310  N1332   1.379   .     A
C1310  O1347   1.376   .     S
C1310  C1159   1.427   1_655 S
C1311  N1331   1.360   .     A
C1311  H1325   1.081   .     S
C1312  N1331   1.390   .     A
C1312  C1349   1.504   .     S
C1313  N1332   1.355   .     A
C1313  H1326   1.082   .     S
C1313  C1160   1.418   1_655 S
C1314  O1338   1.294   .     A
C1314  O1337   1.295   .     A
C1315  C1317   1.456   .     S
C1315  O1339   1.295   .     A
C1315  O1340   1.301   .     A
C1318  C1319   1.391   .     A
C1318  H1328   1.079   .     S
C1319  C636    1.392   1_556 S
C1319  H646    1.082   1_556 S
C1320  H1329   1.080   .     S
Cu1321 O1339   1.976   .     S
Cu1321 O1335   1.979   .     S
Cu1321 O1337   1.958   .     S
Cu1321 Cu1322  2.698   .     S
Cu1321 N1331   2.028   .     S
Cu1321 O1333   1.948   .     S
Cu1322 O1340   1.979   .     S
Cu1322 O1336   1.976   .     S
Cu1322 N1332   2.028   .     S
Cu1322 O1338   1.948   .     S
Cu1322 O1334   1.958   .     S
H1327  C632    1.082   1_556 S
C1341  H1344   1.111   .     S
C1341  H1343   1.106   .     S
C1341  H1342   1.108   .     S
O1345  H1346   0.990   .     S
O1347  H1348   0.992   .     S
C1349  H1351   1.102   .     S
C1349  H1352   1.108   .     S
C1349  H1350   1.111   .     S
C1353  H1355   1.103   .     S
C1353  H1356   1.110   .     S
C1353  H1354   1.112   .     S
C1357  H1359   1.110   .     S
C1357  H1360   1.109   .     S
C1357  H1358   1.111   .     S
C1361  H1364   1.108   .     S
C1361  H1363   1.106   .     S
C1361  H1362   1.111   .     S
C1365  H1366   1.111   .     S
C1365  H1367   1.110   .     S
C1365  H1368   1.110   .     S
