data_str_m3_o1_o16_pcu_sym.225
_audit_creation_date              2020-01-03
_audit_creation_method            'Materials Studio'
_symmetry_space_group_name_H-M    'P1'
_symmetry_Int_Tables_number       1
_symmetry_cell_setting            triclinic
loop_
_symmetry_equiv_pos_as_xyz
  x,y,z
_cell_length_a                    29.8053
_cell_length_b                    31.7677
_cell_length_c                    26.0758
_cell_angle_alpha                 90.0882
_cell_angle_beta                  70.1676
_cell_angle_gamma                 87.0239
loop_
_atom_site_label
_atom_site_type_symbol
_atom_site_fract_x
_atom_site_fract_y
_atom_site_fract_z
_atom_site_U_iso_or_equiv
_atom_site_adp_type
_atom_site_occupancy
C1     C     0.16584   0.24651   0.24934   0.00000  Uiso   1.00
C2     C     0.14147   0.15228   0.49431   0.00000  Uiso   1.00
C3     C     0.15282   0.14378   0.43847   0.00000  Uiso   1.00
C4     C     0.17947   0.14906   0.01527   0.00000  Uiso   1.00
C5     C     0.22360   0.12715   0.48552   0.00000  Uiso   1.00
C6     C     0.22902   0.10832   0.43456   0.00000  Uiso   1.00
C7     C     0.19395   0.11775   0.41106   0.00000  Uiso   1.00
C8     C     0.17542   0.16972   0.06376   0.00000  Uiso   1.00
C9     C     0.25331   0.14191   0.05952   0.00000  Uiso   1.00
C10    C     0.12317   0.16211   0.41154   0.00000  Uiso   1.00
C11    C     0.16759   0.31110   0.19764   0.00000  Uiso   1.00
C12    C     0.14025   0.16502   0.35215   0.00000  Uiso   1.00
C13    C     0.17301   0.02152   0.19607   0.00000  Uiso   1.00
C14    C     0.17124   0.04241   0.24466   0.00000  Uiso   1.00
C15    C     0.16796   0.02143   0.29226   0.00000  Uiso   1.00
C16    C     0.16531   0.31200   0.29304   0.00000  Uiso   1.00
C17    C     0.16449   0.29075   0.24676   0.00000  Uiso   1.00
C18    C     0.31401   0.12925   0.24523   0.00000  Uiso   1.00
C19    C     0.02838   0.13016   0.24471   0.00000  Uiso   1.00
C20    C     0.02030   0.20344   0.25496   0.00000  Uiso   1.00
C21    C     0.30602   0.20346   0.25482   0.00000  Uiso   1.00
C22    C     0.16818   0.08678   0.24830   0.00000  Uiso   1.00
C23    C     0.19316   0.16716   0.14773   0.00000  Uiso   1.00
C24    C     0.26088   0.12526   0.00762   0.00000  Uiso   1.00
C25    C     0.20930   0.16205   0.08872   0.00000  Uiso   1.00
C26    C     0.08000   0.18359   0.44158   0.00000  Uiso   1.00
C27    C     0.06443   0.18551   0.49859   0.00000  Uiso   1.00
C28    C     0.09313   0.16518   0.02585   0.00000  Uiso   1.00
H29    H     0.16355   0.29534   0.32990   0.00000  Uiso   1.00
N30    N     0.04760   0.16668   0.25002   0.00000  Uiso   1.00
N31    N     0.28573   0.16665   0.25001   0.00000  Uiso   1.00
O32    O     0.12846   0.22775   0.25001   0.00000  Uiso   1.00
O33    O     0.20490   0.22774   0.25001   0.00000  Uiso   1.00
O34    O     0.10947   0.16666   0.32681   0.00000  Uiso   1.00
O35    O     0.18591   0.16665   0.32681   0.00000  Uiso   1.00
O36    O     0.12843   0.10559   0.25000   0.00000  Uiso   1.00
O37    O     0.20488   0.10558   0.25000   0.00000  Uiso   1.00
O38    O     0.14742   0.16668   0.17319   0.00000  Uiso   1.00
O39    O     0.22387   0.16667   0.17319   0.00000  Uiso   1.00
Zn40   Zn    0.11562   0.16667   0.25000   0.00000  Uiso   1.00
Zn41   Zn    0.21771   0.16666   0.25000   0.00000  Uiso   1.00
H42    H     0.28074   0.13689   0.07783   0.00000  Uiso   1.00
C43    C     0.18585   0.04542   0.14290   0.00000  Uiso   1.00
C44    C     0.23949   0.05166   0.12099   0.00000  Uiso   1.00
H45    H     0.24751   0.07978   0.14072   0.00000  Uiso   1.00
H46    H     0.26037   0.02395   0.12882   0.00000  Uiso   1.00
H47    H     0.25131   0.05612   0.07633   0.00000  Uiso   1.00
H48    H     0.17615   0.02932   0.11091   0.00000  Uiso   1.00
H49    H     0.16579   0.07647   0.14895   0.00000  Uiso   1.00
H50    H     0.16692   0.03831   0.32888   0.00000  Uiso   1.00
C51    C     0.29489   0.08654   0.24120   0.00000  Uiso   1.00
C52    C     0.32769   0.04695   0.23754   0.00000  Uiso   1.00
H53    H     0.02620   0.04652   0.19997   0.00000  Uiso   1.00
H54    H     0.00543   0.04464   0.27410   0.00000  Uiso   1.00
H55    H     0.30782   0.01860   0.23600   0.00000  Uiso   1.00
H56    H     0.26432   0.08272   0.27903   0.00000  Uiso   1.00
H57    H     0.28494   0.08607   0.20401   0.00000  Uiso   1.00
H58    H     0.05073   0.10178   0.24014   0.00000  Uiso   1.00
H59    H     0.03522   0.23306   0.25902   0.00000  Uiso   1.00
H60    H     0.28567   0.23317   0.25885   0.00000  Uiso   1.00
C61    C     0.27188   0.07944   0.40361   0.00000  Uiso   1.00
C62    C     0.27042   0.03679   0.43094   0.00000  Uiso   1.00
H63    H     0.27140   0.04034   0.47286   0.00000  Uiso   1.00
H64    H     0.23739   0.02120   0.43287   0.00000  Uiso   1.00
H65    H     0.30179   0.01623   0.40678   0.00000  Uiso   1.00
H66    H     0.27253   0.07331   0.36157   0.00000  Uiso   1.00
H67    H     0.30570   0.09453   0.39926   0.00000  Uiso   1.00
H68    H     0.29533   0.10967   0.48639   0.00000  Uiso   1.00
H69    H     0.14483   0.19069   0.08399   0.00000  Uiso   1.00
H70    H     0.05840   0.19928   0.42043   0.00000  Uiso   1.00
C71    C     0.06907   0.14894   0.08351   0.00000  Uiso   1.00
C72    C     0.08487   0.10333   0.09051   0.00000  Uiso   1.00
H73    H     0.08168   0.08274   0.05757   0.00000  Uiso   1.00
H74    H     0.12205   0.10070   0.09040   0.00000  Uiso   1.00
H75    H     0.06159   0.09187   0.13022   0.00000  Uiso   1.00
H76    H     0.07353   0.16986   0.11524   0.00000  Uiso   1.00
H77    H     0.03000   0.14800   0.09249   0.00000  Uiso   1.00
C78    C     0.01863   0.21150   0.02839   0.00000  Uiso   1.00
C79    C     0.02403   0.25826   0.01541   0.00000  Uiso   1.00
H80    H     0.05435   0.26992   0.02603   0.00000  Uiso   1.00
H81    H     0.03019   0.26372   0.47157   0.00000  Uiso   1.00
H82    H     0.32420   0.27663   0.03971   0.00000  Uiso   1.00
H83    H     0.32243   0.20016   0.01610   0.00000  Uiso   1.00
H84    H     0.00796   0.20937   0.07329   0.00000  Uiso   1.00
H85    H     0.19878   0.10436   0.37125   0.00000  Uiso   1.00
C86    C     0.16591   0.28610   0.14820   0.00000  Uiso   1.00
C87    C     0.21578   0.27386   0.10828   0.00000  Uiso   1.00
H88    H     0.23426   0.30195   0.08867   0.00000  Uiso   1.00
H89    H     0.23752   0.25668   0.12956   0.00000  Uiso   1.00
H90    H     0.21284   0.25305   0.07549   0.00000  Uiso   1.00
H91    H     0.14683   0.25683   0.16040   0.00000  Uiso   1.00
H92    H     0.14417   0.30351   0.12725   0.00000  Uiso   1.00
C93    C     0.49917   0.24651   0.24934   0.00000  Uiso   1.00
C94    C     0.47480   0.15228   0.49431   0.00000  Uiso   1.00
C95    C     0.48616   0.14378   0.43847   0.00000  Uiso   1.00
C96    C     0.51281   0.14906   0.01527   0.00000  Uiso   1.00
C97    C     0.55694   0.12715   0.48552   0.00000  Uiso   1.00
C98    C     0.56235   0.10832   0.43456   0.00000  Uiso   1.00
C99    C     0.52728   0.11775   0.41106   0.00000  Uiso   1.00
C100   C     0.50876   0.16972   0.06376   0.00000  Uiso   1.00
C101   C     0.58665   0.14191   0.05952   0.00000  Uiso   1.00
C102   C     0.45650   0.16211   0.41154   0.00000  Uiso   1.00
C103   C     0.50093   0.31110   0.19764   0.00000  Uiso   1.00
C104   C     0.47359   0.16502   0.35215   0.00000  Uiso   1.00
C105   C     0.50635   0.02152   0.19607   0.00000  Uiso   1.00
C106   C     0.50457   0.04241   0.24466   0.00000  Uiso   1.00
C107   C     0.50129   0.02143   0.29226   0.00000  Uiso   1.00
C108   C     0.49865   0.31200   0.29304   0.00000  Uiso   1.00
C109   C     0.49783   0.29075   0.24676   0.00000  Uiso   1.00
C110   C     0.64734   0.12925   0.24523   0.00000  Uiso   1.00
C111   C     0.36172   0.13016   0.24471   0.00000  Uiso   1.00
C112   C     0.35363   0.20344   0.25496   0.00000  Uiso   1.00
C113   C     0.63935   0.20346   0.25482   0.00000  Uiso   1.00
C114   C     0.50151   0.08678   0.24830   0.00000  Uiso   1.00
C115   C     0.52649   0.16716   0.14773   0.00000  Uiso   1.00
C116   C     0.59421   0.12526   0.00762   0.00000  Uiso   1.00
C117   C     0.54263   0.16205   0.08872   0.00000  Uiso   1.00
C118   C     0.41333   0.18359   0.44158   0.00000  Uiso   1.00
C119   C     0.39776   0.18551   0.49859   0.00000  Uiso   1.00
C120   C     0.42646   0.16518   0.02585   0.00000  Uiso   1.00
H121   H     0.49688   0.29534   0.32990   0.00000  Uiso   1.00
N122   N     0.38093   0.16668   0.25002   0.00000  Uiso   1.00
N123   N     0.61906   0.16665   0.25001   0.00000  Uiso   1.00
O124   O     0.46179   0.22775   0.25001   0.00000  Uiso   1.00
O125   O     0.53823   0.22774   0.25001   0.00000  Uiso   1.00
O126   O     0.44280   0.16666   0.32681   0.00000  Uiso   1.00
O127   O     0.51924   0.16665   0.32681   0.00000  Uiso   1.00
O128   O     0.46177   0.10559   0.25000   0.00000  Uiso   1.00
O129   O     0.53821   0.10558   0.25000   0.00000  Uiso   1.00
O130   O     0.48076   0.16668   0.17319   0.00000  Uiso   1.00
O131   O     0.55720   0.16667   0.17319   0.00000  Uiso   1.00
Zn132  Zn    0.44896   0.16667   0.25000   0.00000  Uiso   1.00
Zn133  Zn    0.55104   0.16666   0.25000   0.00000  Uiso   1.00
H134   H     0.61407   0.13689   0.07783   0.00000  Uiso   1.00
C135   C     0.51919   0.04542   0.14290   0.00000  Uiso   1.00
C136   C     0.57282   0.05166   0.12099   0.00000  Uiso   1.00
H137   H     0.58084   0.07978   0.14072   0.00000  Uiso   1.00
H138   H     0.59370   0.02395   0.12882   0.00000  Uiso   1.00
H139   H     0.58464   0.05612   0.07633   0.00000  Uiso   1.00
H140   H     0.50948   0.02932   0.11091   0.00000  Uiso   1.00
H141   H     0.49913   0.07647   0.14895   0.00000  Uiso   1.00
H142   H     0.50025   0.03831   0.32888   0.00000  Uiso   1.00
C143   C     0.62822   0.08654   0.24120   0.00000  Uiso   1.00
C144   C     0.66102   0.04695   0.23754   0.00000  Uiso   1.00
H145   H     0.35954   0.04652   0.19997   0.00000  Uiso   1.00
H146   H     0.33877   0.04464   0.27410   0.00000  Uiso   1.00
H147   H     0.64116   0.01860   0.23600   0.00000  Uiso   1.00
H148   H     0.59765   0.08272   0.27903   0.00000  Uiso   1.00
H149   H     0.61828   0.08607   0.20401   0.00000  Uiso   1.00
H150   H     0.38406   0.10178   0.24014   0.00000  Uiso   1.00
H151   H     0.36856   0.23306   0.25902   0.00000  Uiso   1.00
H152   H     0.61900   0.23317   0.25885   0.00000  Uiso   1.00
C153   C     0.60521   0.07944   0.40361   0.00000  Uiso   1.00
C154   C     0.60376   0.03679   0.43094   0.00000  Uiso   1.00
H155   H     0.60473   0.04034   0.47286   0.00000  Uiso   1.00
H156   H     0.57072   0.02120   0.43287   0.00000  Uiso   1.00
H157   H     0.63512   0.01623   0.40678   0.00000  Uiso   1.00
H158   H     0.60586   0.07331   0.36157   0.00000  Uiso   1.00
H159   H     0.63904   0.09453   0.39926   0.00000  Uiso   1.00
H160   H     0.62867   0.10967   0.48639   0.00000  Uiso   1.00
H161   H     0.47816   0.19069   0.08399   0.00000  Uiso   1.00
H162   H     0.39174   0.19928   0.42043   0.00000  Uiso   1.00
C163   C     0.40240   0.14894   0.08351   0.00000  Uiso   1.00
C164   C     0.41820   0.10333   0.09051   0.00000  Uiso   1.00
H165   H     0.41501   0.08274   0.05757   0.00000  Uiso   1.00
H166   H     0.45538   0.10070   0.09040   0.00000  Uiso   1.00
H167   H     0.39493   0.09187   0.13022   0.00000  Uiso   1.00
H168   H     0.40687   0.16986   0.11524   0.00000  Uiso   1.00
H169   H     0.36334   0.14800   0.09249   0.00000  Uiso   1.00
C170   C     0.35196   0.21150   0.02839   0.00000  Uiso   1.00
C171   C     0.35737   0.25826   0.01541   0.00000  Uiso   1.00
H172   H     0.38768   0.26992   0.02603   0.00000  Uiso   1.00
H173   H     0.36352   0.26372   0.47157   0.00000  Uiso   1.00
H174   H     0.65754   0.27663   0.03971   0.00000  Uiso   1.00
H175   H     0.65576   0.20016   0.01610   0.00000  Uiso   1.00
H176   H     0.34129   0.20937   0.07329   0.00000  Uiso   1.00
H177   H     0.53211   0.10436   0.37125   0.00000  Uiso   1.00
C178   C     0.49924   0.28610   0.14820   0.00000  Uiso   1.00
C179   C     0.54911   0.27386   0.10828   0.00000  Uiso   1.00
H180   H     0.56760   0.30195   0.08867   0.00000  Uiso   1.00
H181   H     0.57086   0.25668   0.12956   0.00000  Uiso   1.00
H182   H     0.54617   0.25305   0.07549   0.00000  Uiso   1.00
H183   H     0.48017   0.25683   0.16040   0.00000  Uiso   1.00
H184   H     0.47750   0.30351   0.12725   0.00000  Uiso   1.00
C185   C     0.83250   0.24651   0.24934   0.00000  Uiso   1.00
C186   C     0.80813   0.15228   0.49431   0.00000  Uiso   1.00
C187   C     0.81949   0.14378   0.43847   0.00000  Uiso   1.00
C188   C     0.84614   0.14906   0.01527   0.00000  Uiso   1.00
C189   C     0.89027   0.12715   0.48552   0.00000  Uiso   1.00
C190   C     0.89569   0.10832   0.43456   0.00000  Uiso   1.00
C191   C     0.86062   0.11775   0.41106   0.00000  Uiso   1.00
C192   C     0.84209   0.16972   0.06376   0.00000  Uiso   1.00
C193   C     0.91998   0.14191   0.05952   0.00000  Uiso   1.00
C194   C     0.78984   0.16211   0.41154   0.00000  Uiso   1.00
C195   C     0.83426   0.31110   0.19764   0.00000  Uiso   1.00
C196   C     0.80692   0.16502   0.35215   0.00000  Uiso   1.00
C197   C     0.83968   0.02152   0.19607   0.00000  Uiso   1.00
C198   C     0.83791   0.04241   0.24466   0.00000  Uiso   1.00
C199   C     0.83462   0.02143   0.29226   0.00000  Uiso   1.00
C200   C     0.83198   0.31200   0.29304   0.00000  Uiso   1.00
C201   C     0.83116   0.29075   0.24676   0.00000  Uiso   1.00
C202   C     0.98067   0.12925   0.24523   0.00000  Uiso   1.00
C203   C     0.69505   0.13016   0.24471   0.00000  Uiso   1.00
C204   C     0.68697   0.20344   0.25496   0.00000  Uiso   1.00
C205   C     0.97269   0.20346   0.25482   0.00000  Uiso   1.00
C206   C     0.83484   0.08678   0.24830   0.00000  Uiso   1.00
C207   C     0.85982   0.16716   0.14773   0.00000  Uiso   1.00
C208   C     0.92755   0.12526   0.00762   0.00000  Uiso   1.00
C209   C     0.87597   0.16205   0.08872   0.00000  Uiso   1.00
C210   C     0.74667   0.18359   0.44158   0.00000  Uiso   1.00
C211   C     0.73109   0.18551   0.49859   0.00000  Uiso   1.00
C212   C     0.75979   0.16518   0.02585   0.00000  Uiso   1.00
H213   H     0.83022   0.29534   0.32990   0.00000  Uiso   1.00
N214   N     0.71426   0.16668   0.25002   0.00000  Uiso   1.00
N215   N     0.95239   0.16665   0.25001   0.00000  Uiso   1.00
O216   O     0.79512   0.22775   0.25001   0.00000  Uiso   1.00
O217   O     0.87157   0.22774   0.25001   0.00000  Uiso   1.00
O218   O     0.77613   0.16666   0.32681   0.00000  Uiso   1.00
O219   O     0.85258   0.16665   0.32681   0.00000  Uiso   1.00
O220   O     0.79510   0.10559   0.25000   0.00000  Uiso   1.00
O221   O     0.87154   0.10558   0.25000   0.00000  Uiso   1.00
O222   O     0.81409   0.16668   0.17319   0.00000  Uiso   1.00
O223   O     0.89053   0.16667   0.17319   0.00000  Uiso   1.00
Zn224  Zn    0.78229   0.16667   0.25000   0.00000  Uiso   1.00
Zn225  Zn    0.88438   0.16666   0.25000   0.00000  Uiso   1.00
H226   H     0.94740   0.13689   0.07783   0.00000  Uiso   1.00
C227   C     0.85252   0.04542   0.14290   0.00000  Uiso   1.00
C228   C     0.90615   0.05166   0.12099   0.00000  Uiso   1.00
H229   H     0.91417   0.07978   0.14072   0.00000  Uiso   1.00
H230   H     0.92703   0.02395   0.12882   0.00000  Uiso   1.00
H231   H     0.91798   0.05612   0.07633   0.00000  Uiso   1.00
H232   H     0.84282   0.02932   0.11091   0.00000  Uiso   1.00
H233   H     0.83246   0.07647   0.14895   0.00000  Uiso   1.00
H234   H     0.83359   0.03831   0.32888   0.00000  Uiso   1.00
C235   C     0.96156   0.08654   0.24120   0.00000  Uiso   1.00
C236   C     0.99435   0.04695   0.23754   0.00000  Uiso   1.00
H237   H     0.69287   0.04652   0.19997   0.00000  Uiso   1.00
H238   H     0.67210   0.04464   0.27410   0.00000  Uiso   1.00
H239   H     0.97449   0.01860   0.23600   0.00000  Uiso   1.00
H240   H     0.93099   0.08272   0.27903   0.00000  Uiso   1.00
H241   H     0.95161   0.08607   0.20401   0.00000  Uiso   1.00
H242   H     0.71739   0.10178   0.24014   0.00000  Uiso   1.00
H243   H     0.70189   0.23306   0.25902   0.00000  Uiso   1.00
H244   H     0.95234   0.23317   0.25885   0.00000  Uiso   1.00
C245   C     0.93854   0.07944   0.40361   0.00000  Uiso   1.00
C246   C     0.93709   0.03679   0.43094   0.00000  Uiso   1.00
H247   H     0.93807   0.04034   0.47286   0.00000  Uiso   1.00
H248   H     0.90405   0.02120   0.43287   0.00000  Uiso   1.00
H249   H     0.96845   0.01623   0.40678   0.00000  Uiso   1.00
H250   H     0.93919   0.07331   0.36157   0.00000  Uiso   1.00
H251   H     0.97237   0.09453   0.39926   0.00000  Uiso   1.00
H252   H     0.96200   0.10967   0.48639   0.00000  Uiso   1.00
H253   H     0.81149   0.19069   0.08399   0.00000  Uiso   1.00
H254   H     0.72507   0.19928   0.42043   0.00000  Uiso   1.00
C255   C     0.73574   0.14894   0.08351   0.00000  Uiso   1.00
C256   C     0.75154   0.10333   0.09051   0.00000  Uiso   1.00
H257   H     0.74835   0.08274   0.05757   0.00000  Uiso   1.00
H258   H     0.78872   0.10070   0.09040   0.00000  Uiso   1.00
H259   H     0.72826   0.09187   0.13022   0.00000  Uiso   1.00
H260   H     0.74020   0.16986   0.11524   0.00000  Uiso   1.00
H261   H     0.69667   0.14800   0.09249   0.00000  Uiso   1.00
C262   C     0.68530   0.21150   0.02839   0.00000  Uiso   1.00
C263   C     0.69070   0.25826   0.01541   0.00000  Uiso   1.00
H264   H     0.72102   0.26992   0.02603   0.00000  Uiso   1.00
H265   H     0.69686   0.26372   0.47157   0.00000  Uiso   1.00
H266   H     0.99087   0.27663   0.03971   0.00000  Uiso   1.00
H267   H     0.98910   0.20016   0.01610   0.00000  Uiso   1.00
H268   H     0.67463   0.20937   0.07329   0.00000  Uiso   1.00
H269   H     0.86545   0.10436   0.37125   0.00000  Uiso   1.00
C270   C     0.83258   0.28610   0.14820   0.00000  Uiso   1.00
C271   C     0.88244   0.27386   0.10828   0.00000  Uiso   1.00
H272   H     0.90093   0.30195   0.08867   0.00000  Uiso   1.00
H273   H     0.90419   0.25668   0.12956   0.00000  Uiso   1.00
H274   H     0.87951   0.25305   0.07549   0.00000  Uiso   1.00
H275   H     0.81350   0.25683   0.16040   0.00000  Uiso   1.00
H276   H     0.81083   0.30351   0.12725   0.00000  Uiso   1.00
C277   C     0.16584   0.57985   0.24934   0.00000  Uiso   1.00
C278   C     0.14147   0.48561   0.49431   0.00000  Uiso   1.00
C279   C     0.15282   0.47711   0.43847   0.00000  Uiso   1.00
C280   C     0.17947   0.48239   0.01527   0.00000  Uiso   1.00
C281   C     0.22360   0.46048   0.48552   0.00000  Uiso   1.00
C282   C     0.22902   0.44165   0.43456   0.00000  Uiso   1.00
C283   C     0.19395   0.45109   0.41106   0.00000  Uiso   1.00
C284   C     0.17542   0.50306   0.06376   0.00000  Uiso   1.00
C285   C     0.25331   0.47524   0.05952   0.00000  Uiso   1.00
C286   C     0.12317   0.49545   0.41154   0.00000  Uiso   1.00
C287   C     0.16759   0.64443   0.19764   0.00000  Uiso   1.00
C288   C     0.14025   0.49835   0.35215   0.00000  Uiso   1.00
C289   C     0.17301   0.35486   0.19607   0.00000  Uiso   1.00
C290   C     0.17124   0.37574   0.24466   0.00000  Uiso   1.00
C291   C     0.16796   0.35476   0.29226   0.00000  Uiso   1.00
C292   C     0.16531   0.64534   0.29304   0.00000  Uiso   1.00
C293   C     0.16449   0.62408   0.24676   0.00000  Uiso   1.00
C294   C     0.31401   0.46258   0.24523   0.00000  Uiso   1.00
C295   C     0.02838   0.46350   0.24471   0.00000  Uiso   1.00
C296   C     0.02030   0.53677   0.25496   0.00000  Uiso   1.00
C297   C     0.30602   0.53679   0.25482   0.00000  Uiso   1.00
C298   C     0.16818   0.42011   0.24830   0.00000  Uiso   1.00
C299   C     0.19316   0.50049   0.14773   0.00000  Uiso   1.00
C300   C     0.26088   0.45859   0.00762   0.00000  Uiso   1.00
C301   C     0.20930   0.49539   0.08872   0.00000  Uiso   1.00
C302   C     0.08000   0.51692   0.44158   0.00000  Uiso   1.00
C303   C     0.06443   0.51884   0.49859   0.00000  Uiso   1.00
C304   C     0.09313   0.49852   0.02585   0.00000  Uiso   1.00
H305   H     0.16355   0.62867   0.32990   0.00000  Uiso   1.00
N306   N     0.04760   0.50001   0.25002   0.00000  Uiso   1.00
N307   N     0.28573   0.49998   0.25001   0.00000  Uiso   1.00
O308   O     0.12846   0.56108   0.25001   0.00000  Uiso   1.00
O309   O     0.20490   0.56107   0.25001   0.00000  Uiso   1.00
O310   O     0.10947   0.50000   0.32681   0.00000  Uiso   1.00
O311   O     0.18591   0.49999   0.32681   0.00000  Uiso   1.00
O312   O     0.12843   0.43893   0.25000   0.00000  Uiso   1.00
O313   O     0.20488   0.43892   0.25000   0.00000  Uiso   1.00
O314   O     0.14742   0.50001   0.17319   0.00000  Uiso   1.00
O315   O     0.22387   0.50000   0.17319   0.00000  Uiso   1.00
Zn316  Zn    0.11562   0.50001   0.25000   0.00000  Uiso   1.00
Zn317  Zn    0.21771   0.49999   0.25000   0.00000  Uiso   1.00
H318   H     0.28074   0.47022   0.07783   0.00000  Uiso   1.00
C319   C     0.18585   0.37876   0.14290   0.00000  Uiso   1.00
C320   C     0.23949   0.38500   0.12099   0.00000  Uiso   1.00
H321   H     0.24751   0.41311   0.14072   0.00000  Uiso   1.00
H322   H     0.26037   0.35728   0.12882   0.00000  Uiso   1.00
H323   H     0.25131   0.38946   0.07633   0.00000  Uiso   1.00
H324   H     0.17615   0.36266   0.11091   0.00000  Uiso   1.00
H325   H     0.16579   0.40980   0.14895   0.00000  Uiso   1.00
H326   H     0.16692   0.37164   0.32888   0.00000  Uiso   1.00
C327   C     0.29489   0.41988   0.24120   0.00000  Uiso   1.00
C328   C     0.32769   0.38028   0.23754   0.00000  Uiso   1.00
H329   H     0.02620   0.37985   0.19997   0.00000  Uiso   1.00
H330   H     0.00543   0.37797   0.27410   0.00000  Uiso   1.00
H331   H     0.30782   0.35193   0.23600   0.00000  Uiso   1.00
H332   H     0.26432   0.41605   0.27903   0.00000  Uiso   1.00
H333   H     0.28494   0.41941   0.20401   0.00000  Uiso   1.00
H334   H     0.05073   0.43511   0.24014   0.00000  Uiso   1.00
H335   H     0.03522   0.56639   0.25902   0.00000  Uiso   1.00
H336   H     0.28567   0.56650   0.25885   0.00000  Uiso   1.00
C337   C     0.27188   0.41278   0.40361   0.00000  Uiso   1.00
C338   C     0.27042   0.37012   0.43094   0.00000  Uiso   1.00
H339   H     0.27140   0.37367   0.47286   0.00000  Uiso   1.00
H340   H     0.23739   0.35453   0.43287   0.00000  Uiso   1.00
H341   H     0.30179   0.34956   0.40678   0.00000  Uiso   1.00
H342   H     0.27253   0.40664   0.36157   0.00000  Uiso   1.00
H343   H     0.30570   0.42787   0.39926   0.00000  Uiso   1.00
H344   H     0.29533   0.44300   0.48639   0.00000  Uiso   1.00
H345   H     0.14483   0.52402   0.08399   0.00000  Uiso   1.00
H346   H     0.05840   0.53261   0.42043   0.00000  Uiso   1.00
C347   C     0.06907   0.48227   0.08351   0.00000  Uiso   1.00
C348   C     0.08487   0.43667   0.09051   0.00000  Uiso   1.00
H349   H     0.08168   0.41607   0.05757   0.00000  Uiso   1.00
H350   H     0.12205   0.43404   0.09040   0.00000  Uiso   1.00
H351   H     0.06159   0.42520   0.13022   0.00000  Uiso   1.00
H352   H     0.07353   0.50319   0.11524   0.00000  Uiso   1.00
H353   H     0.03000   0.48134   0.09249   0.00000  Uiso   1.00
C354   C     0.01863   0.54483   0.02839   0.00000  Uiso   1.00
C355   C     0.02403   0.59160   0.01541   0.00000  Uiso   1.00
H356   H     0.05435   0.60326   0.02603   0.00000  Uiso   1.00
H357   H     0.03019   0.59706   0.47157   0.00000  Uiso   1.00
H358   H     0.32420   0.60996   0.03971   0.00000  Uiso   1.00
H359   H     0.32243   0.53349   0.01610   0.00000  Uiso   1.00
H360   H     0.00796   0.54271   0.07329   0.00000  Uiso   1.00
H361   H     0.19878   0.43769   0.37125   0.00000  Uiso   1.00
C362   C     0.16591   0.61944   0.14820   0.00000  Uiso   1.00
C363   C     0.21578   0.60719   0.10828   0.00000  Uiso   1.00
H364   H     0.23426   0.63528   0.08867   0.00000  Uiso   1.00
H365   H     0.23752   0.59002   0.12956   0.00000  Uiso   1.00
H366   H     0.21284   0.58638   0.07549   0.00000  Uiso   1.00
H367   H     0.14683   0.59016   0.16040   0.00000  Uiso   1.00
H368   H     0.14417   0.63685   0.12725   0.00000  Uiso   1.00
C369   C     0.49917   0.57985   0.24934   0.00000  Uiso   1.00
C370   C     0.47480   0.48561   0.49431   0.00000  Uiso   1.00
C371   C     0.48616   0.47711   0.43847   0.00000  Uiso   1.00
C372   C     0.51281   0.48239   0.01527   0.00000  Uiso   1.00
C373   C     0.55694   0.46048   0.48552   0.00000  Uiso   1.00
C374   C     0.56235   0.44165   0.43456   0.00000  Uiso   1.00
C375   C     0.52728   0.45109   0.41106   0.00000  Uiso   1.00
C376   C     0.50876   0.50306   0.06376   0.00000  Uiso   1.00
C377   C     0.58665   0.47524   0.05952   0.00000  Uiso   1.00
C378   C     0.45650   0.49545   0.41154   0.00000  Uiso   1.00
C379   C     0.50093   0.64443   0.19764   0.00000  Uiso   1.00
C380   C     0.47359   0.49835   0.35215   0.00000  Uiso   1.00
C381   C     0.50635   0.35486   0.19607   0.00000  Uiso   1.00
C382   C     0.50457   0.37574   0.24466   0.00000  Uiso   1.00
C383   C     0.50129   0.35476   0.29226   0.00000  Uiso   1.00
C384   C     0.49865   0.64534   0.29304   0.00000  Uiso   1.00
C385   C     0.49783   0.62408   0.24676   0.00000  Uiso   1.00
C386   C     0.64734   0.46258   0.24523   0.00000  Uiso   1.00
C387   C     0.36172   0.46350   0.24471   0.00000  Uiso   1.00
C388   C     0.35363   0.53677   0.25496   0.00000  Uiso   1.00
C389   C     0.63935   0.53679   0.25482   0.00000  Uiso   1.00
C390   C     0.50151   0.42011   0.24830   0.00000  Uiso   1.00
C391   C     0.52649   0.50049   0.14773   0.00000  Uiso   1.00
C392   C     0.59421   0.45859   0.00762   0.00000  Uiso   1.00
C393   C     0.54263   0.49539   0.08872   0.00000  Uiso   1.00
C394   C     0.41333   0.51692   0.44158   0.00000  Uiso   1.00
C395   C     0.39776   0.51884   0.49859   0.00000  Uiso   1.00
C396   C     0.42646   0.49852   0.02585   0.00000  Uiso   1.00
H397   H     0.49688   0.62867   0.32990   0.00000  Uiso   1.00
N398   N     0.38093   0.50001   0.25002   0.00000  Uiso   1.00
N399   N     0.61906   0.49998   0.25001   0.00000  Uiso   1.00
O400   O     0.46179   0.56108   0.25001   0.00000  Uiso   1.00
O401   O     0.53823   0.56107   0.25001   0.00000  Uiso   1.00
O402   O     0.44280   0.50000   0.32681   0.00000  Uiso   1.00
O403   O     0.51924   0.49999   0.32681   0.00000  Uiso   1.00
O404   O     0.46177   0.43893   0.25000   0.00000  Uiso   1.00
O405   O     0.53821   0.43892   0.25000   0.00000  Uiso   1.00
O406   O     0.48076   0.50001   0.17319   0.00000  Uiso   1.00
O407   O     0.55720   0.50000   0.17319   0.00000  Uiso   1.00
Zn408  Zn    0.44896   0.50001   0.25000   0.00000  Uiso   1.00
Zn409  Zn    0.55104   0.49999   0.25000   0.00000  Uiso   1.00
H410   H     0.61407   0.47022   0.07783   0.00000  Uiso   1.00
C411   C     0.51919   0.37876   0.14290   0.00000  Uiso   1.00
C412   C     0.57282   0.38500   0.12099   0.00000  Uiso   1.00
H413   H     0.58084   0.41311   0.14072   0.00000  Uiso   1.00
H414   H     0.59370   0.35728   0.12882   0.00000  Uiso   1.00
H415   H     0.58464   0.38946   0.07633   0.00000  Uiso   1.00
H416   H     0.50948   0.36266   0.11091   0.00000  Uiso   1.00
H417   H     0.49913   0.40980   0.14895   0.00000  Uiso   1.00
H418   H     0.50025   0.37164   0.32888   0.00000  Uiso   1.00
C419   C     0.62822   0.41988   0.24120   0.00000  Uiso   1.00
C420   C     0.66102   0.38028   0.23754   0.00000  Uiso   1.00
H421   H     0.35954   0.37985   0.19997   0.00000  Uiso   1.00
H422   H     0.33877   0.37797   0.27410   0.00000  Uiso   1.00
H423   H     0.64116   0.35193   0.23600   0.00000  Uiso   1.00
H424   H     0.59765   0.41605   0.27903   0.00000  Uiso   1.00
H425   H     0.61828   0.41941   0.20401   0.00000  Uiso   1.00
H426   H     0.38406   0.43511   0.24014   0.00000  Uiso   1.00
H427   H     0.36856   0.56639   0.25902   0.00000  Uiso   1.00
H428   H     0.61900   0.56650   0.25885   0.00000  Uiso   1.00
C429   C     0.60521   0.41278   0.40361   0.00000  Uiso   1.00
C430   C     0.60376   0.37012   0.43094   0.00000  Uiso   1.00
H431   H     0.60473   0.37367   0.47286   0.00000  Uiso   1.00
H432   H     0.57072   0.35453   0.43287   0.00000  Uiso   1.00
H433   H     0.63512   0.34956   0.40678   0.00000  Uiso   1.00
H434   H     0.60586   0.40664   0.36157   0.00000  Uiso   1.00
H435   H     0.63904   0.42787   0.39926   0.00000  Uiso   1.00
H436   H     0.62867   0.44300   0.48639   0.00000  Uiso   1.00
H437   H     0.47816   0.52402   0.08399   0.00000  Uiso   1.00
H438   H     0.39174   0.53261   0.42043   0.00000  Uiso   1.00
C439   C     0.40240   0.48227   0.08351   0.00000  Uiso   1.00
C440   C     0.41820   0.43667   0.09051   0.00000  Uiso   1.00
H441   H     0.41501   0.41607   0.05757   0.00000  Uiso   1.00
H442   H     0.45538   0.43404   0.09040   0.00000  Uiso   1.00
H443   H     0.39493   0.42520   0.13022   0.00000  Uiso   1.00
H444   H     0.40687   0.50319   0.11524   0.00000  Uiso   1.00
H445   H     0.36334   0.48134   0.09249   0.00000  Uiso   1.00
C446   C     0.35196   0.54483   0.02839   0.00000  Uiso   1.00
C447   C     0.35737   0.59160   0.01541   0.00000  Uiso   1.00
H448   H     0.38768   0.60326   0.02603   0.00000  Uiso   1.00
H449   H     0.36352   0.59706   0.47157   0.00000  Uiso   1.00
H450   H     0.65754   0.60996   0.03971   0.00000  Uiso   1.00
H451   H     0.65576   0.53349   0.01610   0.00000  Uiso   1.00
H452   H     0.34129   0.54271   0.07329   0.00000  Uiso   1.00
H453   H     0.53211   0.43769   0.37125   0.00000  Uiso   1.00
C454   C     0.49924   0.61944   0.14820   0.00000  Uiso   1.00
C455   C     0.54911   0.60719   0.10828   0.00000  Uiso   1.00
H456   H     0.56760   0.63528   0.08867   0.00000  Uiso   1.00
H457   H     0.57086   0.59002   0.12956   0.00000  Uiso   1.00
H458   H     0.54617   0.58638   0.07549   0.00000  Uiso   1.00
H459   H     0.48017   0.59016   0.16040   0.00000  Uiso   1.00
H460   H     0.47750   0.63685   0.12725   0.00000  Uiso   1.00
C461   C     0.83250   0.57985   0.24934   0.00000  Uiso   1.00
C462   C     0.80813   0.48561   0.49431   0.00000  Uiso   1.00
C463   C     0.81949   0.47711   0.43847   0.00000  Uiso   1.00
C464   C     0.84614   0.48239   0.01527   0.00000  Uiso   1.00
C465   C     0.89027   0.46048   0.48552   0.00000  Uiso   1.00
C466   C     0.89569   0.44165   0.43456   0.00000  Uiso   1.00
C467   C     0.86062   0.45109   0.41106   0.00000  Uiso   1.00
C468   C     0.84209   0.50306   0.06376   0.00000  Uiso   1.00
C469   C     0.91998   0.47524   0.05952   0.00000  Uiso   1.00
C470   C     0.78984   0.49545   0.41154   0.00000  Uiso   1.00
C471   C     0.83426   0.64443   0.19764   0.00000  Uiso   1.00
C472   C     0.80692   0.49835   0.35215   0.00000  Uiso   1.00
C473   C     0.83968   0.35486   0.19607   0.00000  Uiso   1.00
C474   C     0.83791   0.37574   0.24466   0.00000  Uiso   1.00
C475   C     0.83462   0.35476   0.29226   0.00000  Uiso   1.00
C476   C     0.83198   0.64534   0.29304   0.00000  Uiso   1.00
C477   C     0.83116   0.62408   0.24676   0.00000  Uiso   1.00
C478   C     0.98067   0.46258   0.24523   0.00000  Uiso   1.00
C479   C     0.69505   0.46350   0.24471   0.00000  Uiso   1.00
C480   C     0.68697   0.53677   0.25496   0.00000  Uiso   1.00
C481   C     0.97269   0.53679   0.25482   0.00000  Uiso   1.00
C482   C     0.83484   0.42011   0.24830   0.00000  Uiso   1.00
C483   C     0.85982   0.50049   0.14773   0.00000  Uiso   1.00
C484   C     0.92755   0.45859   0.00762   0.00000  Uiso   1.00
C485   C     0.87597   0.49539   0.08872   0.00000  Uiso   1.00
C486   C     0.74667   0.51692   0.44158   0.00000  Uiso   1.00
C487   C     0.73109   0.51884   0.49859   0.00000  Uiso   1.00
C488   C     0.75979   0.49852   0.02585   0.00000  Uiso   1.00
H489   H     0.83022   0.62867   0.32990   0.00000  Uiso   1.00
N490   N     0.71426   0.50001   0.25002   0.00000  Uiso   1.00
N491   N     0.95239   0.49998   0.25001   0.00000  Uiso   1.00
O492   O     0.79512   0.56108   0.25001   0.00000  Uiso   1.00
O493   O     0.87157   0.56107   0.25001   0.00000  Uiso   1.00
O494   O     0.77613   0.50000   0.32681   0.00000  Uiso   1.00
O495   O     0.85258   0.49999   0.32681   0.00000  Uiso   1.00
O496   O     0.79510   0.43893   0.25000   0.00000  Uiso   1.00
O497   O     0.87154   0.43892   0.25000   0.00000  Uiso   1.00
O498   O     0.81409   0.50001   0.17319   0.00000  Uiso   1.00
O499   O     0.89053   0.50000   0.17319   0.00000  Uiso   1.00
Zn500  Zn    0.78229   0.50001   0.25000   0.00000  Uiso   1.00
Zn501  Zn    0.88438   0.49999   0.25000   0.00000  Uiso   1.00
H502   H     0.94740   0.47022   0.07783   0.00000  Uiso   1.00
C503   C     0.85252   0.37876   0.14290   0.00000  Uiso   1.00
C504   C     0.90615   0.38500   0.12099   0.00000  Uiso   1.00
H505   H     0.91417   0.41311   0.14072   0.00000  Uiso   1.00
H506   H     0.92703   0.35728   0.12882   0.00000  Uiso   1.00
H507   H     0.91798   0.38946   0.07633   0.00000  Uiso   1.00
H508   H     0.84282   0.36266   0.11091   0.00000  Uiso   1.00
H509   H     0.83246   0.40980   0.14895   0.00000  Uiso   1.00
H510   H     0.83359   0.37164   0.32888   0.00000  Uiso   1.00
C511   C     0.96156   0.41988   0.24120   0.00000  Uiso   1.00
C512   C     0.99435   0.38028   0.23754   0.00000  Uiso   1.00
H513   H     0.69287   0.37985   0.19997   0.00000  Uiso   1.00
H514   H     0.67210   0.37797   0.27410   0.00000  Uiso   1.00
H515   H     0.97449   0.35193   0.23600   0.00000  Uiso   1.00
H516   H     0.93099   0.41605   0.27903   0.00000  Uiso   1.00
H517   H     0.95161   0.41941   0.20401   0.00000  Uiso   1.00
H518   H     0.71739   0.43511   0.24014   0.00000  Uiso   1.00
H519   H     0.70189   0.56639   0.25902   0.00000  Uiso   1.00
H520   H     0.95234   0.56650   0.25885   0.00000  Uiso   1.00
C521   C     0.93854   0.41278   0.40361   0.00000  Uiso   1.00
C522   C     0.93709   0.37012   0.43094   0.00000  Uiso   1.00
H523   H     0.93807   0.37367   0.47286   0.00000  Uiso   1.00
H524   H     0.90405   0.35453   0.43287   0.00000  Uiso   1.00
H525   H     0.96845   0.34956   0.40678   0.00000  Uiso   1.00
H526   H     0.93919   0.40664   0.36157   0.00000  Uiso   1.00
H527   H     0.97237   0.42787   0.39926   0.00000  Uiso   1.00
H528   H     0.96200   0.44300   0.48639   0.00000  Uiso   1.00
H529   H     0.81149   0.52402   0.08399   0.00000  Uiso   1.00
H530   H     0.72507   0.53261   0.42043   0.00000  Uiso   1.00
C531   C     0.73574   0.48227   0.08351   0.00000  Uiso   1.00
C532   C     0.75154   0.43667   0.09051   0.00000  Uiso   1.00
H533   H     0.74835   0.41607   0.05757   0.00000  Uiso   1.00
H534   H     0.78872   0.43404   0.09040   0.00000  Uiso   1.00
H535   H     0.72826   0.42520   0.13022   0.00000  Uiso   1.00
H536   H     0.74020   0.50319   0.11524   0.00000  Uiso   1.00
H537   H     0.69667   0.48134   0.09249   0.00000  Uiso   1.00
C538   C     0.68530   0.54483   0.02839   0.00000  Uiso   1.00
C539   C     0.69070   0.59160   0.01541   0.00000  Uiso   1.00
H540   H     0.72102   0.60326   0.02603   0.00000  Uiso   1.00
H541   H     0.69686   0.59706   0.47157   0.00000  Uiso   1.00
H542   H     0.99087   0.60996   0.03971   0.00000  Uiso   1.00
H543   H     0.98910   0.53349   0.01610   0.00000  Uiso   1.00
H544   H     0.67463   0.54271   0.07329   0.00000  Uiso   1.00
H545   H     0.86545   0.43769   0.37125   0.00000  Uiso   1.00
C546   C     0.83258   0.61944   0.14820   0.00000  Uiso   1.00
C547   C     0.88244   0.60719   0.10828   0.00000  Uiso   1.00
H548   H     0.90093   0.63528   0.08867   0.00000  Uiso   1.00
H549   H     0.90419   0.59002   0.12956   0.00000  Uiso   1.00
H550   H     0.87951   0.58638   0.07549   0.00000  Uiso   1.00
H551   H     0.81350   0.59016   0.16040   0.00000  Uiso   1.00
H552   H     0.81083   0.63685   0.12725   0.00000  Uiso   1.00
C553   C     0.16584   0.91318   0.24934   0.00000  Uiso   1.00
C554   C     0.14147   0.81894   0.49431   0.00000  Uiso   1.00
C555   C     0.15282   0.81044   0.43847   0.00000  Uiso   1.00
C556   C     0.17947   0.81573   0.01527   0.00000  Uiso   1.00
C557   C     0.22360   0.79381   0.48552   0.00000  Uiso   1.00
C558   C     0.22902   0.77499   0.43456   0.00000  Uiso   1.00
C559   C     0.19395   0.78442   0.41106   0.00000  Uiso   1.00
C560   C     0.17542   0.83639   0.06376   0.00000  Uiso   1.00
C561   C     0.25331   0.80857   0.05952   0.00000  Uiso   1.00
C562   C     0.12317   0.82878   0.41154   0.00000  Uiso   1.00
C563   C     0.16759   0.97777   0.19764   0.00000  Uiso   1.00
C564   C     0.14025   0.83168   0.35215   0.00000  Uiso   1.00
C565   C     0.17301   0.68819   0.19607   0.00000  Uiso   1.00
C566   C     0.17124   0.70908   0.24466   0.00000  Uiso   1.00
C567   C     0.16796   0.68810   0.29226   0.00000  Uiso   1.00
C568   C     0.16531   0.97867   0.29304   0.00000  Uiso   1.00
C569   C     0.16449   0.95741   0.24676   0.00000  Uiso   1.00
C570   C     0.31401   0.79592   0.24523   0.00000  Uiso   1.00
C571   C     0.02838   0.79683   0.24471   0.00000  Uiso   1.00
C572   C     0.02030   0.87010   0.25496   0.00000  Uiso   1.00
C573   C     0.30602   0.87012   0.25482   0.00000  Uiso   1.00
C574   C     0.16818   0.75345   0.24830   0.00000  Uiso   1.00
C575   C     0.19316   0.83383   0.14773   0.00000  Uiso   1.00
C576   C     0.26088   0.79193   0.00762   0.00000  Uiso   1.00
C577   C     0.20930   0.82872   0.08872   0.00000  Uiso   1.00
C578   C     0.08000   0.85026   0.44158   0.00000  Uiso   1.00
C579   C     0.06443   0.85217   0.49859   0.00000  Uiso   1.00
C580   C     0.09313   0.83185   0.02585   0.00000  Uiso   1.00
H581   H     0.16355   0.96200   0.32990   0.00000  Uiso   1.00
N582   N     0.04760   0.83334   0.25002   0.00000  Uiso   1.00
N583   N     0.28573   0.83331   0.25001   0.00000  Uiso   1.00
O584   O     0.12846   0.89442   0.25001   0.00000  Uiso   1.00
O585   O     0.20490   0.89441   0.25001   0.00000  Uiso   1.00
O586   O     0.10947   0.83333   0.32681   0.00000  Uiso   1.00
O587   O     0.18591   0.83332   0.32681   0.00000  Uiso   1.00
O588   O     0.12843   0.77226   0.25000   0.00000  Uiso   1.00
O589   O     0.20488   0.77225   0.25000   0.00000  Uiso   1.00
O590   O     0.14742   0.83335   0.17319   0.00000  Uiso   1.00
O591   O     0.22387   0.83334   0.17319   0.00000  Uiso   1.00
Zn592  Zn    0.11562   0.83334   0.25000   0.00000  Uiso   1.00
Zn593  Zn    0.21771   0.83333   0.25000   0.00000  Uiso   1.00
H594   H     0.28074   0.80356   0.07783   0.00000  Uiso   1.00
C595   C     0.18585   0.71209   0.14290   0.00000  Uiso   1.00
C596   C     0.23949   0.71833   0.12099   0.00000  Uiso   1.00
H597   H     0.24751   0.74644   0.14072   0.00000  Uiso   1.00
H598   H     0.26037   0.69062   0.12882   0.00000  Uiso   1.00
H599   H     0.25131   0.72279   0.07633   0.00000  Uiso   1.00
H600   H     0.17615   0.69599   0.11091   0.00000  Uiso   1.00
H601   H     0.16579   0.74314   0.14895   0.00000  Uiso   1.00
H602   H     0.16692   0.70498   0.32888   0.00000  Uiso   1.00
C603   C     0.29489   0.75321   0.24120   0.00000  Uiso   1.00
C604   C     0.32769   0.71361   0.23754   0.00000  Uiso   1.00
H605   H     0.02620   0.71318   0.19997   0.00000  Uiso   1.00
H606   H     0.00543   0.71130   0.27410   0.00000  Uiso   1.00
H607   H     0.30782   0.68527   0.23600   0.00000  Uiso   1.00
H608   H     0.26432   0.74938   0.27903   0.00000  Uiso   1.00
H609   H     0.28494   0.75274   0.20401   0.00000  Uiso   1.00
H610   H     0.05073   0.76845   0.24014   0.00000  Uiso   1.00
H611   H     0.03522   0.89972   0.25902   0.00000  Uiso   1.00
H612   H     0.28567   0.89983   0.25885   0.00000  Uiso   1.00
C613   C     0.27188   0.74611   0.40361   0.00000  Uiso   1.00
C614   C     0.27042   0.70345   0.43094   0.00000  Uiso   1.00
H615   H     0.27140   0.70701   0.47286   0.00000  Uiso   1.00
H616   H     0.23739   0.68787   0.43287   0.00000  Uiso   1.00
H617   H     0.30179   0.68289   0.40678   0.00000  Uiso   1.00
H618   H     0.27253   0.73997   0.36157   0.00000  Uiso   1.00
H619   H     0.30570   0.76120   0.39926   0.00000  Uiso   1.00
H620   H     0.29533   0.77634   0.48639   0.00000  Uiso   1.00
H621   H     0.14483   0.85735   0.08399   0.00000  Uiso   1.00
H622   H     0.05840   0.86594   0.42043   0.00000  Uiso   1.00
C623   C     0.06907   0.81561   0.08351   0.00000  Uiso   1.00
C624   C     0.08487   0.77000   0.09051   0.00000  Uiso   1.00
H625   H     0.08168   0.74941   0.05757   0.00000  Uiso   1.00
H626   H     0.12205   0.76737   0.09040   0.00000  Uiso   1.00
H627   H     0.06159   0.75854   0.13022   0.00000  Uiso   1.00
H628   H     0.07353   0.83653   0.11524   0.00000  Uiso   1.00
H629   H     0.03000   0.81467   0.09249   0.00000  Uiso   1.00
C630   C     0.01863   0.87816   0.02839   0.00000  Uiso   1.00
C631   C     0.02403   0.92493   0.01541   0.00000  Uiso   1.00
H632   H     0.05435   0.93659   0.02603   0.00000  Uiso   1.00
H633   H     0.03019   0.93039   0.47157   0.00000  Uiso   1.00
H634   H     0.32420   0.94329   0.03971   0.00000  Uiso   1.00
H635   H     0.32243   0.86682   0.01610   0.00000  Uiso   1.00
H636   H     0.00796   0.87604   0.07329   0.00000  Uiso   1.00
H637   H     0.19878   0.77102   0.37125   0.00000  Uiso   1.00
C638   C     0.16591   0.95277   0.14820   0.00000  Uiso   1.00
C639   C     0.21578   0.94052   0.10828   0.00000  Uiso   1.00
H640   H     0.23426   0.96861   0.08867   0.00000  Uiso   1.00
H641   H     0.23752   0.92335   0.12956   0.00000  Uiso   1.00
H642   H     0.21284   0.91972   0.07549   0.00000  Uiso   1.00
H643   H     0.14683   0.92349   0.16040   0.00000  Uiso   1.00
H644   H     0.14417   0.97018   0.12725   0.00000  Uiso   1.00
C645   C     0.49917   0.91318   0.24934   0.00000  Uiso   1.00
C646   C     0.47480   0.81894   0.49431   0.00000  Uiso   1.00
C647   C     0.48616   0.81044   0.43847   0.00000  Uiso   1.00
C648   C     0.51281   0.81573   0.01527   0.00000  Uiso   1.00
C649   C     0.55694   0.79381   0.48552   0.00000  Uiso   1.00
C650   C     0.56235   0.77499   0.43456   0.00000  Uiso   1.00
C651   C     0.52728   0.78442   0.41106   0.00000  Uiso   1.00
C652   C     0.50876   0.83639   0.06376   0.00000  Uiso   1.00
C653   C     0.58665   0.80857   0.05952   0.00000  Uiso   1.00
C654   C     0.45650   0.82878   0.41154   0.00000  Uiso   1.00
C655   C     0.50093   0.97777   0.19764   0.00000  Uiso   1.00
C656   C     0.47359   0.83168   0.35215   0.00000  Uiso   1.00
C657   C     0.50635   0.68819   0.19607   0.00000  Uiso   1.00
C658   C     0.50457   0.70908   0.24466   0.00000  Uiso   1.00
C659   C     0.50129   0.68810   0.29226   0.00000  Uiso   1.00
C660   C     0.49865   0.97867   0.29304   0.00000  Uiso   1.00
C661   C     0.49783   0.95741   0.24676   0.00000  Uiso   1.00
C662   C     0.64734   0.79592   0.24523   0.00000  Uiso   1.00
C663   C     0.36172   0.79683   0.24471   0.00000  Uiso   1.00
C664   C     0.35363   0.87010   0.25496   0.00000  Uiso   1.00
C665   C     0.63935   0.87012   0.25482   0.00000  Uiso   1.00
C666   C     0.50151   0.75345   0.24830   0.00000  Uiso   1.00
C667   C     0.52649   0.83383   0.14773   0.00000  Uiso   1.00
C668   C     0.59421   0.79193   0.00762   0.00000  Uiso   1.00
C669   C     0.54263   0.82872   0.08872   0.00000  Uiso   1.00
C670   C     0.41333   0.85026   0.44158   0.00000  Uiso   1.00
C671   C     0.39776   0.85217   0.49859   0.00000  Uiso   1.00
C672   C     0.42646   0.83185   0.02585   0.00000  Uiso   1.00
H673   H     0.49688   0.96200   0.32990   0.00000  Uiso   1.00
N674   N     0.38093   0.83334   0.25002   0.00000  Uiso   1.00
N675   N     0.61906   0.83331   0.25001   0.00000  Uiso   1.00
O676   O     0.46179   0.89442   0.25001   0.00000  Uiso   1.00
O677   O     0.53823   0.89441   0.25001   0.00000  Uiso   1.00
O678   O     0.44280   0.83333   0.32681   0.00000  Uiso   1.00
O679   O     0.51924   0.83332   0.32681   0.00000  Uiso   1.00
O680   O     0.46177   0.77226   0.25000   0.00000  Uiso   1.00
O681   O     0.53821   0.77225   0.25000   0.00000  Uiso   1.00
O682   O     0.48076   0.83335   0.17319   0.00000  Uiso   1.00
O683   O     0.55720   0.83334   0.17319   0.00000  Uiso   1.00
Zn684  Zn    0.44896   0.83334   0.25000   0.00000  Uiso   1.00
Zn685  Zn    0.55104   0.83333   0.25000   0.00000  Uiso   1.00
H686   H     0.61407   0.80356   0.07783   0.00000  Uiso   1.00
C687   C     0.51919   0.71209   0.14290   0.00000  Uiso   1.00
C688   C     0.57282   0.71833   0.12099   0.00000  Uiso   1.00
H689   H     0.58084   0.74644   0.14072   0.00000  Uiso   1.00
H690   H     0.59370   0.69062   0.12882   0.00000  Uiso   1.00
H691   H     0.58464   0.72279   0.07633   0.00000  Uiso   1.00
H692   H     0.50948   0.69599   0.11091   0.00000  Uiso   1.00
H693   H     0.49913   0.74314   0.14895   0.00000  Uiso   1.00
H694   H     0.50025   0.70498   0.32888   0.00000  Uiso   1.00
C695   C     0.62822   0.75321   0.24120   0.00000  Uiso   1.00
C696   C     0.66102   0.71361   0.23754   0.00000  Uiso   1.00
H697   H     0.35954   0.71318   0.19997   0.00000  Uiso   1.00
H698   H     0.33877   0.71130   0.27410   0.00000  Uiso   1.00
H699   H     0.64116   0.68527   0.23600   0.00000  Uiso   1.00
H700   H     0.59765   0.74938   0.27903   0.00000  Uiso   1.00
H701   H     0.61828   0.75274   0.20401   0.00000  Uiso   1.00
H702   H     0.38406   0.76845   0.24014   0.00000  Uiso   1.00
H703   H     0.36856   0.89972   0.25902   0.00000  Uiso   1.00
H704   H     0.61900   0.89983   0.25885   0.00000  Uiso   1.00
C705   C     0.60521   0.74611   0.40361   0.00000  Uiso   1.00
C706   C     0.60376   0.70345   0.43094   0.00000  Uiso   1.00
H707   H     0.60473   0.70701   0.47286   0.00000  Uiso   1.00
H708   H     0.57072   0.68787   0.43287   0.00000  Uiso   1.00
H709   H     0.63512   0.68289   0.40678   0.00000  Uiso   1.00
H710   H     0.60586   0.73997   0.36157   0.00000  Uiso   1.00
H711   H     0.63904   0.76120   0.39926   0.00000  Uiso   1.00
H712   H     0.62867   0.77634   0.48639   0.00000  Uiso   1.00
H713   H     0.47816   0.85735   0.08399   0.00000  Uiso   1.00
H714   H     0.39174   0.86594   0.42043   0.00000  Uiso   1.00
C715   C     0.40240   0.81561   0.08351   0.00000  Uiso   1.00
C716   C     0.41820   0.77000   0.09051   0.00000  Uiso   1.00
H717   H     0.41501   0.74941   0.05757   0.00000  Uiso   1.00
H718   H     0.45538   0.76737   0.09040   0.00000  Uiso   1.00
H719   H     0.39493   0.75854   0.13022   0.00000  Uiso   1.00
H720   H     0.40687   0.83653   0.11524   0.00000  Uiso   1.00
H721   H     0.36334   0.81467   0.09249   0.00000  Uiso   1.00
C722   C     0.35196   0.87816   0.02839   0.00000  Uiso   1.00
C723   C     0.35737   0.92493   0.01541   0.00000  Uiso   1.00
H724   H     0.38768   0.93659   0.02603   0.00000  Uiso   1.00
H725   H     0.36352   0.93039   0.47157   0.00000  Uiso   1.00
H726   H     0.65754   0.94329   0.03971   0.00000  Uiso   1.00
H727   H     0.65576   0.86682   0.01610   0.00000  Uiso   1.00
H728   H     0.34129   0.87604   0.07329   0.00000  Uiso   1.00
H729   H     0.53211   0.77102   0.37125   0.00000  Uiso   1.00
C730   C     0.49924   0.95277   0.14820   0.00000  Uiso   1.00
C731   C     0.54911   0.94052   0.10828   0.00000  Uiso   1.00
H732   H     0.56760   0.96861   0.08867   0.00000  Uiso   1.00
H733   H     0.57086   0.92335   0.12956   0.00000  Uiso   1.00
H734   H     0.54617   0.91972   0.07549   0.00000  Uiso   1.00
H735   H     0.48017   0.92349   0.16040   0.00000  Uiso   1.00
H736   H     0.47750   0.97018   0.12725   0.00000  Uiso   1.00
C737   C     0.83250   0.91318   0.24934   0.00000  Uiso   1.00
C738   C     0.80813   0.81894   0.49431   0.00000  Uiso   1.00
C739   C     0.81949   0.81044   0.43847   0.00000  Uiso   1.00
C740   C     0.84614   0.81573   0.01527   0.00000  Uiso   1.00
C741   C     0.89027   0.79381   0.48552   0.00000  Uiso   1.00
C742   C     0.89569   0.77499   0.43456   0.00000  Uiso   1.00
C743   C     0.86062   0.78442   0.41106   0.00000  Uiso   1.00
C744   C     0.84209   0.83639   0.06376   0.00000  Uiso   1.00
C745   C     0.91998   0.80857   0.05952   0.00000  Uiso   1.00
C746   C     0.78984   0.82878   0.41154   0.00000  Uiso   1.00
C747   C     0.83426   0.97777   0.19764   0.00000  Uiso   1.00
C748   C     0.80692   0.83168   0.35215   0.00000  Uiso   1.00
C749   C     0.83968   0.68819   0.19607   0.00000  Uiso   1.00
C750   C     0.83791   0.70908   0.24466   0.00000  Uiso   1.00
C751   C     0.83462   0.68810   0.29226   0.00000  Uiso   1.00
C752   C     0.83198   0.97867   0.29304   0.00000  Uiso   1.00
C753   C     0.83116   0.95741   0.24676   0.00000  Uiso   1.00
C754   C     0.98067   0.79592   0.24523   0.00000  Uiso   1.00
C755   C     0.69505   0.79683   0.24471   0.00000  Uiso   1.00
C756   C     0.68697   0.87010   0.25496   0.00000  Uiso   1.00
C757   C     0.97269   0.87012   0.25482   0.00000  Uiso   1.00
C758   C     0.83484   0.75345   0.24830   0.00000  Uiso   1.00
C759   C     0.85982   0.83383   0.14773   0.00000  Uiso   1.00
C760   C     0.92755   0.79193   0.00762   0.00000  Uiso   1.00
C761   C     0.87597   0.82872   0.08872   0.00000  Uiso   1.00
C762   C     0.74667   0.85026   0.44158   0.00000  Uiso   1.00
C763   C     0.73109   0.85217   0.49859   0.00000  Uiso   1.00
C764   C     0.75979   0.83185   0.02585   0.00000  Uiso   1.00
H765   H     0.83022   0.96200   0.32990   0.00000  Uiso   1.00
N766   N     0.71426   0.83334   0.25002   0.00000  Uiso   1.00
N767   N     0.95239   0.83331   0.25001   0.00000  Uiso   1.00
O768   O     0.79512   0.89442   0.25001   0.00000  Uiso   1.00
O769   O     0.87157   0.89441   0.25001   0.00000  Uiso   1.00
O770   O     0.77613   0.83333   0.32681   0.00000  Uiso   1.00
O771   O     0.85258   0.83332   0.32681   0.00000  Uiso   1.00
O772   O     0.79510   0.77226   0.25000   0.00000  Uiso   1.00
O773   O     0.87154   0.77225   0.25000   0.00000  Uiso   1.00
O774   O     0.81409   0.83335   0.17319   0.00000  Uiso   1.00
O775   O     0.89053   0.83334   0.17319   0.00000  Uiso   1.00
Zn776  Zn    0.78229   0.83334   0.25000   0.00000  Uiso   1.00
Zn777  Zn    0.88438   0.83333   0.25000   0.00000  Uiso   1.00
H778   H     0.94740   0.80356   0.07783   0.00000  Uiso   1.00
C779   C     0.85252   0.71209   0.14290   0.00000  Uiso   1.00
C780   C     0.90615   0.71833   0.12099   0.00000  Uiso   1.00
H781   H     0.91417   0.74644   0.14072   0.00000  Uiso   1.00
H782   H     0.92703   0.69062   0.12882   0.00000  Uiso   1.00
H783   H     0.91798   0.72279   0.07633   0.00000  Uiso   1.00
H784   H     0.84282   0.69599   0.11091   0.00000  Uiso   1.00
H785   H     0.83246   0.74314   0.14895   0.00000  Uiso   1.00
H786   H     0.83359   0.70498   0.32888   0.00000  Uiso   1.00
C787   C     0.96156   0.75321   0.24120   0.00000  Uiso   1.00
C788   C     0.99435   0.71361   0.23754   0.00000  Uiso   1.00
H789   H     0.69287   0.71318   0.19997   0.00000  Uiso   1.00
H790   H     0.67210   0.71130   0.27410   0.00000  Uiso   1.00
H791   H     0.97449   0.68527   0.23600   0.00000  Uiso   1.00
H792   H     0.93099   0.74938   0.27903   0.00000  Uiso   1.00
H793   H     0.95161   0.75274   0.20401   0.00000  Uiso   1.00
H794   H     0.71739   0.76845   0.24014   0.00000  Uiso   1.00
H795   H     0.70189   0.89972   0.25902   0.00000  Uiso   1.00
H796   H     0.95234   0.89983   0.25885   0.00000  Uiso   1.00
C797   C     0.93854   0.74611   0.40361   0.00000  Uiso   1.00
C798   C     0.93709   0.70345   0.43094   0.00000  Uiso   1.00
H799   H     0.93807   0.70701   0.47286   0.00000  Uiso   1.00
H800   H     0.90405   0.68787   0.43287   0.00000  Uiso   1.00
H801   H     0.96845   0.68289   0.40678   0.00000  Uiso   1.00
H802   H     0.93919   0.73997   0.36157   0.00000  Uiso   1.00
H803   H     0.97237   0.76120   0.39926   0.00000  Uiso   1.00
H804   H     0.96200   0.77634   0.48639   0.00000  Uiso   1.00
H805   H     0.81149   0.85735   0.08399   0.00000  Uiso   1.00
H806   H     0.72507   0.86594   0.42043   0.00000  Uiso   1.00
C807   C     0.73574   0.81561   0.08351   0.00000  Uiso   1.00
C808   C     0.75154   0.77000   0.09051   0.00000  Uiso   1.00
H809   H     0.74835   0.74941   0.05757   0.00000  Uiso   1.00
H810   H     0.78872   0.76737   0.09040   0.00000  Uiso   1.00
H811   H     0.72826   0.75854   0.13022   0.00000  Uiso   1.00
H812   H     0.74020   0.83653   0.11524   0.00000  Uiso   1.00
H813   H     0.69667   0.81467   0.09249   0.00000  Uiso   1.00
C814   C     0.68530   0.87816   0.02839   0.00000  Uiso   1.00
C815   C     0.69070   0.92493   0.01541   0.00000  Uiso   1.00
H816   H     0.72102   0.93659   0.02603   0.00000  Uiso   1.00
H817   H     0.69686   0.93039   0.47157   0.00000  Uiso   1.00
H818   H     0.99087   0.94329   0.03971   0.00000  Uiso   1.00
H819   H     0.98910   0.86682   0.01610   0.00000  Uiso   1.00
H820   H     0.67463   0.87604   0.07329   0.00000  Uiso   1.00
H821   H     0.86545   0.77102   0.37125   0.00000  Uiso   1.00
C822   C     0.83258   0.95277   0.14820   0.00000  Uiso   1.00
C823   C     0.88244   0.94052   0.10828   0.00000  Uiso   1.00
H824   H     0.90093   0.96861   0.08867   0.00000  Uiso   1.00
H825   H     0.90419   0.92335   0.12956   0.00000  Uiso   1.00
H826   H     0.87951   0.91972   0.07549   0.00000  Uiso   1.00
H827   H     0.81350   0.92349   0.16040   0.00000  Uiso   1.00
H828   H     0.81083   0.97018   0.12725   0.00000  Uiso   1.00
C829   C     0.16584   0.24651   0.74934   0.00000  Uiso   1.00
C830   C     0.14147   0.15228   0.99431   0.00000  Uiso   1.00
C831   C     0.15282   0.14378   0.93847   0.00000  Uiso   1.00
C832   C     0.17947   0.14906   0.51527   0.00000  Uiso   1.00
C833   C     0.22360   0.12715   0.98552   0.00000  Uiso   1.00
C834   C     0.22902   0.10832   0.93456   0.00000  Uiso   1.00
C835   C     0.19395   0.11775   0.91106   0.00000  Uiso   1.00
C836   C     0.17542   0.16972   0.56376   0.00000  Uiso   1.00
C837   C     0.25331   0.14191   0.55952   0.00000  Uiso   1.00
C838   C     0.12317   0.16211   0.91154   0.00000  Uiso   1.00
C839   C     0.16759   0.31110   0.69764   0.00000  Uiso   1.00
C840   C     0.14025   0.16502   0.85215   0.00000  Uiso   1.00
C841   C     0.17301   0.02152   0.69607   0.00000  Uiso   1.00
C842   C     0.17124   0.04241   0.74466   0.00000  Uiso   1.00
C843   C     0.16796   0.02143   0.79226   0.00000  Uiso   1.00
C844   C     0.16531   0.31200   0.79304   0.00000  Uiso   1.00
C845   C     0.16449   0.29075   0.74676   0.00000  Uiso   1.00
C846   C     0.31401   0.12925   0.74523   0.00000  Uiso   1.00
C847   C     0.02838   0.13016   0.74471   0.00000  Uiso   1.00
C848   C     0.02030   0.20344   0.75496   0.00000  Uiso   1.00
C849   C     0.30602   0.20346   0.75482   0.00000  Uiso   1.00
C850   C     0.16818   0.08678   0.74830   0.00000  Uiso   1.00
C851   C     0.19316   0.16716   0.64773   0.00000  Uiso   1.00
C852   C     0.26088   0.12526   0.50762   0.00000  Uiso   1.00
C853   C     0.20930   0.16205   0.58872   0.00000  Uiso   1.00
C854   C     0.08000   0.18359   0.94158   0.00000  Uiso   1.00
C855   C     0.06443   0.18551   0.99859   0.00000  Uiso   1.00
C856   C     0.09313   0.16518   0.52585   0.00000  Uiso   1.00
H857   H     0.16355   0.29534   0.82990   0.00000  Uiso   1.00
N858   N     0.04760   0.16668   0.75002   0.00000  Uiso   1.00
N859   N     0.28573   0.16665   0.75001   0.00000  Uiso   1.00
O860   O     0.12846   0.22775   0.75001   0.00000  Uiso   1.00
O861   O     0.20490   0.22774   0.75001   0.00000  Uiso   1.00
O862   O     0.10947   0.16666   0.82681   0.00000  Uiso   1.00
O863   O     0.18591   0.16665   0.82681   0.00000  Uiso   1.00
O864   O     0.12843   0.10559   0.75000   0.00000  Uiso   1.00
O865   O     0.20488   0.10558   0.75000   0.00000  Uiso   1.00
O866   O     0.14742   0.16668   0.67319   0.00000  Uiso   1.00
O867   O     0.22387   0.16667   0.67319   0.00000  Uiso   1.00
Zn868  Zn    0.11562   0.16667   0.75000   0.00000  Uiso   1.00
Zn869  Zn    0.21771   0.16666   0.75000   0.00000  Uiso   1.00
H870   H     0.28074   0.13689   0.57783   0.00000  Uiso   1.00
C871   C     0.18585   0.04542   0.64290   0.00000  Uiso   1.00
C872   C     0.23949   0.05166   0.62099   0.00000  Uiso   1.00
H873   H     0.24751   0.07978   0.64072   0.00000  Uiso   1.00
H874   H     0.26037   0.02395   0.62882   0.00000  Uiso   1.00
H875   H     0.25131   0.05612   0.57633   0.00000  Uiso   1.00
H876   H     0.17615   0.02932   0.61091   0.00000  Uiso   1.00
H877   H     0.16579   0.07647   0.64895   0.00000  Uiso   1.00
H878   H     0.16692   0.03831   0.82888   0.00000  Uiso   1.00
C879   C     0.29489   0.08654   0.74120   0.00000  Uiso   1.00
C880   C     0.32769   0.04695   0.73754   0.00000  Uiso   1.00
H881   H     0.02620   0.04652   0.69997   0.00000  Uiso   1.00
H882   H     0.00543   0.04464   0.77410   0.00000  Uiso   1.00
H883   H     0.30782   0.01860   0.73600   0.00000  Uiso   1.00
H884   H     0.26432   0.08272   0.77903   0.00000  Uiso   1.00
H885   H     0.28494   0.08607   0.70401   0.00000  Uiso   1.00
H886   H     0.05073   0.10178   0.74014   0.00000  Uiso   1.00
H887   H     0.03522   0.23306   0.75902   0.00000  Uiso   1.00
H888   H     0.28567   0.23317   0.75885   0.00000  Uiso   1.00
C889   C     0.27188   0.07944   0.90361   0.00000  Uiso   1.00
C890   C     0.27042   0.03679   0.93094   0.00000  Uiso   1.00
H891   H     0.27140   0.04034   0.97286   0.00000  Uiso   1.00
H892   H     0.23739   0.02120   0.93287   0.00000  Uiso   1.00
H893   H     0.30179   0.01623   0.90678   0.00000  Uiso   1.00
H894   H     0.27253   0.07331   0.86157   0.00000  Uiso   1.00
H895   H     0.30570   0.09453   0.89926   0.00000  Uiso   1.00
H896   H     0.29533   0.10967   0.98639   0.00000  Uiso   1.00
H897   H     0.14483   0.19069   0.58399   0.00000  Uiso   1.00
H898   H     0.05840   0.19928   0.92043   0.00000  Uiso   1.00
C899   C     0.06907   0.14894   0.58351   0.00000  Uiso   1.00
C900   C     0.08487   0.10333   0.59051   0.00000  Uiso   1.00
H901   H     0.08168   0.08274   0.55757   0.00000  Uiso   1.00
H902   H     0.12205   0.10070   0.59040   0.00000  Uiso   1.00
H903   H     0.06159   0.09187   0.63022   0.00000  Uiso   1.00
H904   H     0.07353   0.16986   0.61524   0.00000  Uiso   1.00
H905   H     0.03000   0.14800   0.59249   0.00000  Uiso   1.00
C906   C     0.01863   0.21150   0.52839   0.00000  Uiso   1.00
C907   C     0.02403   0.25826   0.51541   0.00000  Uiso   1.00
H908   H     0.05435   0.26992   0.52603   0.00000  Uiso   1.00
H909   H     0.03019   0.26372   0.97157   0.00000  Uiso   1.00
H910   H     0.32420   0.27663   0.53971   0.00000  Uiso   1.00
H911   H     0.32243   0.20016   0.51610   0.00000  Uiso   1.00
H912   H     0.00796   0.20937   0.57329   0.00000  Uiso   1.00
H913   H     0.19878   0.10436   0.87125   0.00000  Uiso   1.00
C914   C     0.16591   0.28610   0.64820   0.00000  Uiso   1.00
C915   C     0.21578   0.27386   0.60828   0.00000  Uiso   1.00
H916   H     0.23426   0.30195   0.58867   0.00000  Uiso   1.00
H917   H     0.23752   0.25668   0.62956   0.00000  Uiso   1.00
H918   H     0.21284   0.25305   0.57549   0.00000  Uiso   1.00
H919   H     0.14683   0.25683   0.66040   0.00000  Uiso   1.00
H920   H     0.14417   0.30351   0.62725   0.00000  Uiso   1.00
C921   C     0.49917   0.24651   0.74934   0.00000  Uiso   1.00
C922   C     0.47480   0.15228   0.99431   0.00000  Uiso   1.00
C923   C     0.48616   0.14378   0.93847   0.00000  Uiso   1.00
C924   C     0.51281   0.14906   0.51527   0.00000  Uiso   1.00
C925   C     0.55694   0.12715   0.98552   0.00000  Uiso   1.00
C926   C     0.56235   0.10832   0.93456   0.00000  Uiso   1.00
C927   C     0.52728   0.11775   0.91106   0.00000  Uiso   1.00
C928   C     0.50876   0.16972   0.56376   0.00000  Uiso   1.00
C929   C     0.58665   0.14191   0.55952   0.00000  Uiso   1.00
C930   C     0.45650   0.16211   0.91154   0.00000  Uiso   1.00
C931   C     0.50093   0.31110   0.69764   0.00000  Uiso   1.00
C932   C     0.47359   0.16502   0.85215   0.00000  Uiso   1.00
C933   C     0.50635   0.02152   0.69607   0.00000  Uiso   1.00
C934   C     0.50457   0.04241   0.74466   0.00000  Uiso   1.00
C935   C     0.50129   0.02143   0.79226   0.00000  Uiso   1.00
C936   C     0.49865   0.31200   0.79304   0.00000  Uiso   1.00
C937   C     0.49783   0.29075   0.74676   0.00000  Uiso   1.00
C938   C     0.64734   0.12925   0.74523   0.00000  Uiso   1.00
C939   C     0.36172   0.13016   0.74471   0.00000  Uiso   1.00
C940   C     0.35363   0.20344   0.75496   0.00000  Uiso   1.00
C941   C     0.63935   0.20346   0.75482   0.00000  Uiso   1.00
C942   C     0.50151   0.08678   0.74830   0.00000  Uiso   1.00
C943   C     0.52649   0.16716   0.64773   0.00000  Uiso   1.00
C944   C     0.59421   0.12526   0.50762   0.00000  Uiso   1.00
C945   C     0.54263   0.16205   0.58872   0.00000  Uiso   1.00
C946   C     0.41333   0.18359   0.94158   0.00000  Uiso   1.00
C947   C     0.39776   0.18551   0.99859   0.00000  Uiso   1.00
C948   C     0.42646   0.16518   0.52585   0.00000  Uiso   1.00
H949   H     0.49688   0.29534   0.82990   0.00000  Uiso   1.00
N950   N     0.38093   0.16668   0.75002   0.00000  Uiso   1.00
N951   N     0.61906   0.16665   0.75001   0.00000  Uiso   1.00
O952   O     0.46179   0.22775   0.75001   0.00000  Uiso   1.00
O953   O     0.53823   0.22774   0.75001   0.00000  Uiso   1.00
O954   O     0.44280   0.16666   0.82681   0.00000  Uiso   1.00
O955   O     0.51924   0.16665   0.82681   0.00000  Uiso   1.00
O956   O     0.46177   0.10559   0.75000   0.00000  Uiso   1.00
O957   O     0.53821   0.10558   0.75000   0.00000  Uiso   1.00
O958   O     0.48076   0.16668   0.67319   0.00000  Uiso   1.00
O959   O     0.55720   0.16667   0.67319   0.00000  Uiso   1.00
Zn960  Zn    0.44896   0.16667   0.75000   0.00000  Uiso   1.00
Zn961  Zn    0.55104   0.16666   0.75000   0.00000  Uiso   1.00
H962   H     0.61407   0.13689   0.57783   0.00000  Uiso   1.00
C963   C     0.51919   0.04542   0.64290   0.00000  Uiso   1.00
C964   C     0.57282   0.05166   0.62099   0.00000  Uiso   1.00
H965   H     0.58084   0.07978   0.64072   0.00000  Uiso   1.00
H966   H     0.59370   0.02395   0.62882   0.00000  Uiso   1.00
H967   H     0.58464   0.05612   0.57633   0.00000  Uiso   1.00
H968   H     0.50948   0.02932   0.61091   0.00000  Uiso   1.00
H969   H     0.49913   0.07647   0.64895   0.00000  Uiso   1.00
H970   H     0.50025   0.03831   0.82888   0.00000  Uiso   1.00
C971   C     0.62822   0.08654   0.74120   0.00000  Uiso   1.00
C972   C     0.66102   0.04695   0.73754   0.00000  Uiso   1.00
H973   H     0.35954   0.04652   0.69997   0.00000  Uiso   1.00
H974   H     0.33877   0.04464   0.77410   0.00000  Uiso   1.00
H975   H     0.64116   0.01860   0.73600   0.00000  Uiso   1.00
H976   H     0.59765   0.08272   0.77903   0.00000  Uiso   1.00
H977   H     0.61828   0.08607   0.70401   0.00000  Uiso   1.00
H978   H     0.38406   0.10178   0.74014   0.00000  Uiso   1.00
H979   H     0.36856   0.23306   0.75902   0.00000  Uiso   1.00
H980   H     0.61900   0.23317   0.75885   0.00000  Uiso   1.00
C981   C     0.60521   0.07944   0.90361   0.00000  Uiso   1.00
C982   C     0.60376   0.03679   0.93094   0.00000  Uiso   1.00
H983   H     0.60473   0.04034   0.97286   0.00000  Uiso   1.00
H984   H     0.57072   0.02120   0.93287   0.00000  Uiso   1.00
H985   H     0.63512   0.01623   0.90678   0.00000  Uiso   1.00
H986   H     0.60586   0.07331   0.86157   0.00000  Uiso   1.00
H987   H     0.63904   0.09453   0.89926   0.00000  Uiso   1.00
H988   H     0.62867   0.10967   0.98639   0.00000  Uiso   1.00
H989   H     0.47816   0.19069   0.58399   0.00000  Uiso   1.00
H990   H     0.39174   0.19928   0.92043   0.00000  Uiso   1.00
C991   C     0.40240   0.14894   0.58351   0.00000  Uiso   1.00
C992   C     0.41820   0.10333   0.59051   0.00000  Uiso   1.00
H993   H     0.41501   0.08274   0.55757   0.00000  Uiso   1.00
H994   H     0.45538   0.10070   0.59040   0.00000  Uiso   1.00
H995   H     0.39493   0.09187   0.63022   0.00000  Uiso   1.00
H996   H     0.40687   0.16986   0.61524   0.00000  Uiso   1.00
H997   H     0.36334   0.14800   0.59249   0.00000  Uiso   1.00
C998   C     0.35196   0.21150   0.52839   0.00000  Uiso   1.00
C999   C     0.35737   0.25826   0.51541   0.00000  Uiso   1.00
H1000  H     0.38768   0.26992   0.52603   0.00000  Uiso   1.00
H1001  H     0.36352   0.26372   0.97157   0.00000  Uiso   1.00
H1002  H     0.65754   0.27663   0.53971   0.00000  Uiso   1.00
H1003  H     0.65576   0.20016   0.51610   0.00000  Uiso   1.00
H1004  H     0.34129   0.20937   0.57329   0.00000  Uiso   1.00
H1005  H     0.53211   0.10436   0.87125   0.00000  Uiso   1.00
C1006  C     0.49924   0.28610   0.64820   0.00000  Uiso   1.00
C1007  C     0.54911   0.27386   0.60828   0.00000  Uiso   1.00
H1008  H     0.56760   0.30195   0.58867   0.00000  Uiso   1.00
H1009  H     0.57086   0.25668   0.62956   0.00000  Uiso   1.00
H1010  H     0.54617   0.25305   0.57549   0.00000  Uiso   1.00
H1011  H     0.48017   0.25683   0.66040   0.00000  Uiso   1.00
H1012  H     0.47750   0.30351   0.62725   0.00000  Uiso   1.00
C1013  C     0.83250   0.24651   0.74934   0.00000  Uiso   1.00
C1014  C     0.80813   0.15228   0.99431   0.00000  Uiso   1.00
C1015  C     0.81949   0.14378   0.93847   0.00000  Uiso   1.00
C1016  C     0.84614   0.14906   0.51527   0.00000  Uiso   1.00
C1017  C     0.89027   0.12715   0.98552   0.00000  Uiso   1.00
C1018  C     0.89569   0.10832   0.93456   0.00000  Uiso   1.00
C1019  C     0.86062   0.11775   0.91106   0.00000  Uiso   1.00
C1020  C     0.84209   0.16972   0.56376   0.00000  Uiso   1.00
C1021  C     0.91998   0.14191   0.55952   0.00000  Uiso   1.00
C1022  C     0.78984   0.16211   0.91154   0.00000  Uiso   1.00
C1023  C     0.83426   0.31110   0.69764   0.00000  Uiso   1.00
C1024  C     0.80692   0.16502   0.85215   0.00000  Uiso   1.00
C1025  C     0.83968   0.02152   0.69607   0.00000  Uiso   1.00
C1026  C     0.83791   0.04241   0.74466   0.00000  Uiso   1.00
C1027  C     0.83462   0.02143   0.79226   0.00000  Uiso   1.00
C1028  C     0.83198   0.31200   0.79304   0.00000  Uiso   1.00
C1029  C     0.83116   0.29075   0.74676   0.00000  Uiso   1.00
C1030  C     0.98067   0.12925   0.74523   0.00000  Uiso   1.00
C1031  C     0.69505   0.13016   0.74471   0.00000  Uiso   1.00
C1032  C     0.68697   0.20344   0.75496   0.00000  Uiso   1.00
C1033  C     0.97269   0.20346   0.75482   0.00000  Uiso   1.00
C1034  C     0.83484   0.08678   0.74830   0.00000  Uiso   1.00
C1035  C     0.85982   0.16716   0.64773   0.00000  Uiso   1.00
C1036  C     0.92755   0.12526   0.50762   0.00000  Uiso   1.00
C1037  C     0.87597   0.16205   0.58872   0.00000  Uiso   1.00
C1038  C     0.74667   0.18359   0.94158   0.00000  Uiso   1.00
C1039  C     0.73109   0.18551   0.99859   0.00000  Uiso   1.00
C1040  C     0.75979   0.16518   0.52585   0.00000  Uiso   1.00
H1041  H     0.83022   0.29534   0.82990   0.00000  Uiso   1.00
N1042  N     0.71426   0.16668   0.75002   0.00000  Uiso   1.00
N1043  N     0.95239   0.16665   0.75001   0.00000  Uiso   1.00
O1044  O     0.79512   0.22775   0.75001   0.00000  Uiso   1.00
O1045  O     0.87157   0.22774   0.75001   0.00000  Uiso   1.00
O1046  O     0.77613   0.16666   0.82681   0.00000  Uiso   1.00
O1047  O     0.85258   0.16665   0.82681   0.00000  Uiso   1.00
O1048  O     0.79510   0.10559   0.75000   0.00000  Uiso   1.00
O1049  O     0.87154   0.10558   0.75000   0.00000  Uiso   1.00
O1050  O     0.81409   0.16668   0.67319   0.00000  Uiso   1.00
O1051  O     0.89053   0.16667   0.67319   0.00000  Uiso   1.00
Zn1052 Zn    0.78229   0.16667   0.75000   0.00000  Uiso   1.00
Zn1053 Zn    0.88438   0.16666   0.75000   0.00000  Uiso   1.00
H1054  H     0.94740   0.13689   0.57783   0.00000  Uiso   1.00
C1055  C     0.85252   0.04542   0.64290   0.00000  Uiso   1.00
C1056  C     0.90615   0.05166   0.62099   0.00000  Uiso   1.00
H1057  H     0.91417   0.07978   0.64072   0.00000  Uiso   1.00
H1058  H     0.92703   0.02395   0.62882   0.00000  Uiso   1.00
H1059  H     0.91798   0.05612   0.57633   0.00000  Uiso   1.00
H1060  H     0.84282   0.02932   0.61091   0.00000  Uiso   1.00
H1061  H     0.83246   0.07647   0.64895   0.00000  Uiso   1.00
H1062  H     0.83359   0.03831   0.82888   0.00000  Uiso   1.00
C1063  C     0.96156   0.08654   0.74120   0.00000  Uiso   1.00
C1064  C     0.99435   0.04695   0.73754   0.00000  Uiso   1.00
H1065  H     0.69287   0.04652   0.69997   0.00000  Uiso   1.00
H1066  H     0.67210   0.04464   0.77410   0.00000  Uiso   1.00
H1067  H     0.97449   0.01860   0.73600   0.00000  Uiso   1.00
H1068  H     0.93099   0.08272   0.77903   0.00000  Uiso   1.00
H1069  H     0.95161   0.08607   0.70401   0.00000  Uiso   1.00
H1070  H     0.71739   0.10178   0.74014   0.00000  Uiso   1.00
H1071  H     0.70189   0.23306   0.75902   0.00000  Uiso   1.00
H1072  H     0.95234   0.23317   0.75885   0.00000  Uiso   1.00
C1073  C     0.93854   0.07944   0.90361   0.00000  Uiso   1.00
C1074  C     0.93709   0.03679   0.93094   0.00000  Uiso   1.00
H1075  H     0.93807   0.04034   0.97286   0.00000  Uiso   1.00
H1076  H     0.90405   0.02120   0.93287   0.00000  Uiso   1.00
H1077  H     0.96845   0.01623   0.90678   0.00000  Uiso   1.00
H1078  H     0.93919   0.07331   0.86157   0.00000  Uiso   1.00
H1079  H     0.97237   0.09453   0.89926   0.00000  Uiso   1.00
H1080  H     0.96200   0.10967   0.98639   0.00000  Uiso   1.00
H1081  H     0.81149   0.19069   0.58399   0.00000  Uiso   1.00
H1082  H     0.72507   0.19928   0.92043   0.00000  Uiso   1.00
C1083  C     0.73574   0.14894   0.58351   0.00000  Uiso   1.00
C1084  C     0.75154   0.10333   0.59051   0.00000  Uiso   1.00
H1085  H     0.74835   0.08274   0.55757   0.00000  Uiso   1.00
H1086  H     0.78872   0.10070   0.59040   0.00000  Uiso   1.00
H1087  H     0.72826   0.09187   0.63022   0.00000  Uiso   1.00
H1088  H     0.74020   0.16986   0.61524   0.00000  Uiso   1.00
H1089  H     0.69667   0.14800   0.59249   0.00000  Uiso   1.00
C1090  C     0.68530   0.21150   0.52839   0.00000  Uiso   1.00
C1091  C     0.69070   0.25826   0.51541   0.00000  Uiso   1.00
H1092  H     0.72102   0.26992   0.52603   0.00000  Uiso   1.00
H1093  H     0.69686   0.26372   0.97157   0.00000  Uiso   1.00
H1094  H     0.99087   0.27663   0.53971   0.00000  Uiso   1.00
H1095  H     0.98910   0.20016   0.51610   0.00000  Uiso   1.00
H1096  H     0.67463   0.20937   0.57329   0.00000  Uiso   1.00
H1097  H     0.86545   0.10436   0.87125   0.00000  Uiso   1.00
C1098  C     0.83258   0.28610   0.64820   0.00000  Uiso   1.00
C1099  C     0.88244   0.27386   0.60828   0.00000  Uiso   1.00
H1100  H     0.90093   0.30195   0.58867   0.00000  Uiso   1.00
H1101  H     0.90419   0.25668   0.62956   0.00000  Uiso   1.00
H1102  H     0.87951   0.25305   0.57549   0.00000  Uiso   1.00
H1103  H     0.81350   0.25683   0.66040   0.00000  Uiso   1.00
H1104  H     0.81083   0.30351   0.62725   0.00000  Uiso   1.00
C1105  C     0.16584   0.57985   0.74934   0.00000  Uiso   1.00
C1106  C     0.14147   0.48561   0.99431   0.00000  Uiso   1.00
C1107  C     0.15282   0.47711   0.93847   0.00000  Uiso   1.00
C1108  C     0.17947   0.48239   0.51527   0.00000  Uiso   1.00
C1109  C     0.22360   0.46048   0.98552   0.00000  Uiso   1.00
C1110  C     0.22902   0.44165   0.93456   0.00000  Uiso   1.00
C1111  C     0.19395   0.45109   0.91106   0.00000  Uiso   1.00
C1112  C     0.17542   0.50306   0.56376   0.00000  Uiso   1.00
C1113  C     0.25331   0.47524   0.55952   0.00000  Uiso   1.00
C1114  C     0.12317   0.49545   0.91154   0.00000  Uiso   1.00
C1115  C     0.16759   0.64443   0.69764   0.00000  Uiso   1.00
C1116  C     0.14025   0.49835   0.85215   0.00000  Uiso   1.00
C1117  C     0.17301   0.35486   0.69607   0.00000  Uiso   1.00
C1118  C     0.17124   0.37574   0.74466   0.00000  Uiso   1.00
C1119  C     0.16796   0.35476   0.79226   0.00000  Uiso   1.00
C1120  C     0.16531   0.64534   0.79304   0.00000  Uiso   1.00
C1121  C     0.16449   0.62408   0.74676   0.00000  Uiso   1.00
C1122  C     0.31401   0.46258   0.74523   0.00000  Uiso   1.00
C1123  C     0.02838   0.46350   0.74471   0.00000  Uiso   1.00
C1124  C     0.02030   0.53677   0.75496   0.00000  Uiso   1.00
C1125  C     0.30602   0.53679   0.75482   0.00000  Uiso   1.00
C1126  C     0.16818   0.42011   0.74830   0.00000  Uiso   1.00
C1127  C     0.19316   0.50049   0.64773   0.00000  Uiso   1.00
C1128  C     0.26088   0.45859   0.50762   0.00000  Uiso   1.00
C1129  C     0.20930   0.49539   0.58872   0.00000  Uiso   1.00
C1130  C     0.08000   0.51692   0.94158   0.00000  Uiso   1.00
C1131  C     0.06443   0.51884   0.99859   0.00000  Uiso   1.00
C1132  C     0.09313   0.49852   0.52585   0.00000  Uiso   1.00
H1133  H     0.16355   0.62867   0.82990   0.00000  Uiso   1.00
N1134  N     0.04760   0.50001   0.75002   0.00000  Uiso   1.00
N1135  N     0.28573   0.49998   0.75001   0.00000  Uiso   1.00
O1136  O     0.12846   0.56108   0.75001   0.00000  Uiso   1.00
O1137  O     0.20490   0.56107   0.75001   0.00000  Uiso   1.00
O1138  O     0.10947   0.50000   0.82681   0.00000  Uiso   1.00
O1139  O     0.18591   0.49999   0.82681   0.00000  Uiso   1.00
O1140  O     0.12843   0.43893   0.75000   0.00000  Uiso   1.00
O1141  O     0.20488   0.43892   0.75000   0.00000  Uiso   1.00
O1142  O     0.14742   0.50001   0.67319   0.00000  Uiso   1.00
O1143  O     0.22387   0.50000   0.67319   0.00000  Uiso   1.00
Zn1144 Zn    0.11562   0.50001   0.75000   0.00000  Uiso   1.00
Zn1145 Zn    0.21771   0.49999   0.75000   0.00000  Uiso   1.00
H1146  H     0.28074   0.47022   0.57783   0.00000  Uiso   1.00
C1147  C     0.18585   0.37876   0.64290   0.00000  Uiso   1.00
C1148  C     0.23949   0.38500   0.62099   0.00000  Uiso   1.00
H1149  H     0.24751   0.41311   0.64072   0.00000  Uiso   1.00
H1150  H     0.26037   0.35728   0.62882   0.00000  Uiso   1.00
H1151  H     0.25131   0.38946   0.57633   0.00000  Uiso   1.00
H1152  H     0.17615   0.36266   0.61091   0.00000  Uiso   1.00
H1153  H     0.16579   0.40980   0.64895   0.00000  Uiso   1.00
H1154  H     0.16692   0.37164   0.82888   0.00000  Uiso   1.00
C1155  C     0.29489   0.41988   0.74120   0.00000  Uiso   1.00
C1156  C     0.32769   0.38028   0.73754   0.00000  Uiso   1.00
H1157  H     0.02620   0.37985   0.69997   0.00000  Uiso   1.00
H1158  H     0.00543   0.37797   0.77410   0.00000  Uiso   1.00
H1159  H     0.30782   0.35193   0.73600   0.00000  Uiso   1.00
H1160  H     0.26432   0.41605   0.77903   0.00000  Uiso   1.00
H1161  H     0.28494   0.41941   0.70401   0.00000  Uiso   1.00
H1162  H     0.05073   0.43511   0.74014   0.00000  Uiso   1.00
H1163  H     0.03522   0.56639   0.75902   0.00000  Uiso   1.00
H1164  H     0.28567   0.56650   0.75885   0.00000  Uiso   1.00
C1165  C     0.27188   0.41278   0.90361   0.00000  Uiso   1.00
C1166  C     0.27042   0.37012   0.93094   0.00000  Uiso   1.00
H1167  H     0.27140   0.37367   0.97286   0.00000  Uiso   1.00
H1168  H     0.23739   0.35453   0.93287   0.00000  Uiso   1.00
H1169  H     0.30179   0.34956   0.90678   0.00000  Uiso   1.00
H1170  H     0.27253   0.40664   0.86157   0.00000  Uiso   1.00
H1171  H     0.30570   0.42787   0.89926   0.00000  Uiso   1.00
H1172  H     0.29533   0.44300   0.98639   0.00000  Uiso   1.00
H1173  H     0.14483   0.52402   0.58399   0.00000  Uiso   1.00
H1174  H     0.05840   0.53261   0.92043   0.00000  Uiso   1.00
C1175  C     0.06907   0.48227   0.58351   0.00000  Uiso   1.00
C1176  C     0.08487   0.43667   0.59051   0.00000  Uiso   1.00
H1177  H     0.08168   0.41607   0.55757   0.00000  Uiso   1.00
H1178  H     0.12205   0.43404   0.59040   0.00000  Uiso   1.00
H1179  H     0.06159   0.42520   0.63022   0.00000  Uiso   1.00
H1180  H     0.07353   0.50319   0.61524   0.00000  Uiso   1.00
H1181  H     0.03000   0.48134   0.59249   0.00000  Uiso   1.00
C1182  C     0.01863   0.54483   0.52839   0.00000  Uiso   1.00
C1183  C     0.02403   0.59160   0.51541   0.00000  Uiso   1.00
H1184  H     0.05435   0.60326   0.52603   0.00000  Uiso   1.00
H1185  H     0.03019   0.59706   0.97157   0.00000  Uiso   1.00
H1186  H     0.32420   0.60996   0.53971   0.00000  Uiso   1.00
H1187  H     0.32243   0.53349   0.51610   0.00000  Uiso   1.00
H1188  H     0.00796   0.54271   0.57329   0.00000  Uiso   1.00
H1189  H     0.19878   0.43769   0.87125   0.00000  Uiso   1.00
C1190  C     0.16591   0.61944   0.64820   0.00000  Uiso   1.00
C1191  C     0.21578   0.60719   0.60828   0.00000  Uiso   1.00
H1192  H     0.23426   0.63528   0.58867   0.00000  Uiso   1.00
H1193  H     0.23752   0.59002   0.62956   0.00000  Uiso   1.00
H1194  H     0.21284   0.58638   0.57549   0.00000  Uiso   1.00
H1195  H     0.14683   0.59016   0.66040   0.00000  Uiso   1.00
H1196  H     0.14417   0.63685   0.62725   0.00000  Uiso   1.00
C1197  C     0.49917   0.57985   0.74934   0.00000  Uiso   1.00
C1198  C     0.47480   0.48561   0.99431   0.00000  Uiso   1.00
C1199  C     0.48616   0.47711   0.93847   0.00000  Uiso   1.00
C1200  C     0.51281   0.48239   0.51527   0.00000  Uiso   1.00
C1201  C     0.55694   0.46048   0.98552   0.00000  Uiso   1.00
C1202  C     0.56235   0.44165   0.93456   0.00000  Uiso   1.00
C1203  C     0.52728   0.45109   0.91106   0.00000  Uiso   1.00
C1204  C     0.50876   0.50306   0.56376   0.00000  Uiso   1.00
C1205  C     0.58665   0.47524   0.55952   0.00000  Uiso   1.00
C1206  C     0.45650   0.49545   0.91154   0.00000  Uiso   1.00
C1207  C     0.50093   0.64443   0.69764   0.00000  Uiso   1.00
C1208  C     0.47359   0.49835   0.85215   0.00000  Uiso   1.00
C1209  C     0.50635   0.35486   0.69607   0.00000  Uiso   1.00
C1210  C     0.50457   0.37574   0.74466   0.00000  Uiso   1.00
C1211  C     0.50129   0.35476   0.79226   0.00000  Uiso   1.00
C1212  C     0.49865   0.64534   0.79304   0.00000  Uiso   1.00
C1213  C     0.49783   0.62408   0.74676   0.00000  Uiso   1.00
C1214  C     0.64734   0.46258   0.74523   0.00000  Uiso   1.00
C1215  C     0.36172   0.46350   0.74471   0.00000  Uiso   1.00
C1216  C     0.35363   0.53677   0.75496   0.00000  Uiso   1.00
C1217  C     0.63935   0.53679   0.75482   0.00000  Uiso   1.00
C1218  C     0.50151   0.42011   0.74830   0.00000  Uiso   1.00
C1219  C     0.52649   0.50049   0.64773   0.00000  Uiso   1.00
C1220  C     0.59421   0.45859   0.50762   0.00000  Uiso   1.00
C1221  C     0.54263   0.49539   0.58872   0.00000  Uiso   1.00
C1222  C     0.41333   0.51692   0.94158   0.00000  Uiso   1.00
C1223  C     0.39776   0.51884   0.99859   0.00000  Uiso   1.00
C1224  C     0.42646   0.49852   0.52585   0.00000  Uiso   1.00
H1225  H     0.49688   0.62867   0.82990   0.00000  Uiso   1.00
N1226  N     0.38093   0.50001   0.75002   0.00000  Uiso   1.00
N1227  N     0.61906   0.49998   0.75001   0.00000  Uiso   1.00
O1228  O     0.46179   0.56108   0.75001   0.00000  Uiso   1.00
O1229  O     0.53823   0.56107   0.75001   0.00000  Uiso   1.00
O1230  O     0.44280   0.50000   0.82681   0.00000  Uiso   1.00
O1231  O     0.51924   0.49999   0.82681   0.00000  Uiso   1.00
O1232  O     0.46177   0.43893   0.75000   0.00000  Uiso   1.00
O1233  O     0.53821   0.43892   0.75000   0.00000  Uiso   1.00
O1234  O     0.48076   0.50001   0.67319   0.00000  Uiso   1.00
O1235  O     0.55720   0.50000   0.67319   0.00000  Uiso   1.00
Zn1236 Zn    0.44896   0.50001   0.75000   0.00000  Uiso   1.00
Zn1237 Zn    0.55104   0.49999   0.75000   0.00000  Uiso   1.00
H1238  H     0.61407   0.47022   0.57783   0.00000  Uiso   1.00
C1239  C     0.51919   0.37876   0.64290   0.00000  Uiso   1.00
C1240  C     0.57282   0.38500   0.62099   0.00000  Uiso   1.00
H1241  H     0.58084   0.41311   0.64072   0.00000  Uiso   1.00
H1242  H     0.59370   0.35728   0.62882   0.00000  Uiso   1.00
H1243  H     0.58464   0.38946   0.57633   0.00000  Uiso   1.00
H1244  H     0.50948   0.36266   0.61091   0.00000  Uiso   1.00
H1245  H     0.49913   0.40980   0.64895   0.00000  Uiso   1.00
H1246  H     0.50025   0.37164   0.82888   0.00000  Uiso   1.00
C1247  C     0.62822   0.41988   0.74120   0.00000  Uiso   1.00
C1248  C     0.66102   0.38028   0.73754   0.00000  Uiso   1.00
H1249  H     0.35954   0.37985   0.69997   0.00000  Uiso   1.00
H1250  H     0.33877   0.37797   0.77410   0.00000  Uiso   1.00
H1251  H     0.64116   0.35193   0.73600   0.00000  Uiso   1.00
H1252  H     0.59765   0.41605   0.77903   0.00000  Uiso   1.00
H1253  H     0.61828   0.41941   0.70401   0.00000  Uiso   1.00
H1254  H     0.38406   0.43511   0.74014   0.00000  Uiso   1.00
H1255  H     0.36856   0.56639   0.75902   0.00000  Uiso   1.00
H1256  H     0.61900   0.56650   0.75885   0.00000  Uiso   1.00
C1257  C     0.60521   0.41278   0.90361   0.00000  Uiso   1.00
C1258  C     0.60376   0.37012   0.93094   0.00000  Uiso   1.00
H1259  H     0.60473   0.37367   0.97286   0.00000  Uiso   1.00
H1260  H     0.57072   0.35453   0.93287   0.00000  Uiso   1.00
H1261  H     0.63512   0.34956   0.90678   0.00000  Uiso   1.00
H1262  H     0.60586   0.40664   0.86157   0.00000  Uiso   1.00
H1263  H     0.63904   0.42787   0.89926   0.00000  Uiso   1.00
H1264  H     0.62867   0.44300   0.98639   0.00000  Uiso   1.00
H1265  H     0.47816   0.52402   0.58399   0.00000  Uiso   1.00
H1266  H     0.39174   0.53261   0.92043   0.00000  Uiso   1.00
C1267  C     0.40240   0.48227   0.58351   0.00000  Uiso   1.00
C1268  C     0.41820   0.43667   0.59051   0.00000  Uiso   1.00
H1269  H     0.41501   0.41607   0.55757   0.00000  Uiso   1.00
H1270  H     0.45538   0.43404   0.59040   0.00000  Uiso   1.00
H1271  H     0.39493   0.42520   0.63022   0.00000  Uiso   1.00
H1272  H     0.40687   0.50319   0.61524   0.00000  Uiso   1.00
H1273  H     0.36334   0.48134   0.59249   0.00000  Uiso   1.00
C1274  C     0.35196   0.54483   0.52839   0.00000  Uiso   1.00
C1275  C     0.35737   0.59160   0.51541   0.00000  Uiso   1.00
H1276  H     0.38768   0.60326   0.52603   0.00000  Uiso   1.00
H1277  H     0.36352   0.59706   0.97157   0.00000  Uiso   1.00
H1278  H     0.65754   0.60996   0.53971   0.00000  Uiso   1.00
H1279  H     0.65576   0.53349   0.51610   0.00000  Uiso   1.00
H1280  H     0.34129   0.54271   0.57329   0.00000  Uiso   1.00
H1281  H     0.53211   0.43769   0.87125   0.00000  Uiso   1.00
C1282  C     0.49924   0.61944   0.64820   0.00000  Uiso   1.00
C1283  C     0.54911   0.60719   0.60828   0.00000  Uiso   1.00
H1284  H     0.56760   0.63528   0.58867   0.00000  Uiso   1.00
H1285  H     0.57086   0.59002   0.62956   0.00000  Uiso   1.00
H1286  H     0.54617   0.58638   0.57549   0.00000  Uiso   1.00
H1287  H     0.48017   0.59016   0.66040   0.00000  Uiso   1.00
H1288  H     0.47750   0.63685   0.62725   0.00000  Uiso   1.00
C1289  C     0.83250   0.57985   0.74934   0.00000  Uiso   1.00
C1290  C     0.80813   0.48561   0.99431   0.00000  Uiso   1.00
C1291  C     0.81949   0.47711   0.93847   0.00000  Uiso   1.00
C1292  C     0.84614   0.48239   0.51527   0.00000  Uiso   1.00
C1293  C     0.89027   0.46048   0.98552   0.00000  Uiso   1.00
C1294  C     0.89569   0.44165   0.93456   0.00000  Uiso   1.00
C1295  C     0.86062   0.45109   0.91106   0.00000  Uiso   1.00
C1296  C     0.84209   0.50306   0.56376   0.00000  Uiso   1.00
C1297  C     0.91998   0.47524   0.55952   0.00000  Uiso   1.00
C1298  C     0.78984   0.49545   0.91154   0.00000  Uiso   1.00
C1299  C     0.83426   0.64443   0.69764   0.00000  Uiso   1.00
C1300  C     0.80692   0.49835   0.85215   0.00000  Uiso   1.00
C1301  C     0.83968   0.35486   0.69607   0.00000  Uiso   1.00
C1302  C     0.83791   0.37574   0.74466   0.00000  Uiso   1.00
C1303  C     0.83462   0.35476   0.79226   0.00000  Uiso   1.00
C1304  C     0.83198   0.64534   0.79304   0.00000  Uiso   1.00
C1305  C     0.83116   0.62408   0.74676   0.00000  Uiso   1.00
C1306  C     0.98067   0.46258   0.74523   0.00000  Uiso   1.00
C1307  C     0.69505   0.46350   0.74471   0.00000  Uiso   1.00
C1308  C     0.68697   0.53677   0.75496   0.00000  Uiso   1.00
C1309  C     0.97269   0.53679   0.75482   0.00000  Uiso   1.00
C1310  C     0.83484   0.42011   0.74830   0.00000  Uiso   1.00
C1311  C     0.85982   0.50049   0.64773   0.00000  Uiso   1.00
C1312  C     0.92755   0.45859   0.50762   0.00000  Uiso   1.00
C1313  C     0.87597   0.49539   0.58872   0.00000  Uiso   1.00
C1314  C     0.74667   0.51692   0.94158   0.00000  Uiso   1.00
C1315  C     0.73109   0.51884   0.99859   0.00000  Uiso   1.00
C1316  C     0.75979   0.49852   0.52585   0.00000  Uiso   1.00
H1317  H     0.83022   0.62867   0.82990   0.00000  Uiso   1.00
N1318  N     0.71426   0.50001   0.75002   0.00000  Uiso   1.00
N1319  N     0.95239   0.49998   0.75001   0.00000  Uiso   1.00
O1320  O     0.79512   0.56108   0.75001   0.00000  Uiso   1.00
O1321  O     0.87157   0.56107   0.75001   0.00000  Uiso   1.00
O1322  O     0.77613   0.50000   0.82681   0.00000  Uiso   1.00
O1323  O     0.85258   0.49999   0.82681   0.00000  Uiso   1.00
O1324  O     0.79510   0.43893   0.75000   0.00000  Uiso   1.00
O1325  O     0.87154   0.43892   0.75000   0.00000  Uiso   1.00
O1326  O     0.81409   0.50001   0.67319   0.00000  Uiso   1.00
O1327  O     0.89053   0.50000   0.67319   0.00000  Uiso   1.00
Zn1328 Zn    0.78229   0.50001   0.75000   0.00000  Uiso   1.00
Zn1329 Zn    0.88438   0.49999   0.75000   0.00000  Uiso   1.00
H1330  H     0.94740   0.47022   0.57783   0.00000  Uiso   1.00
C1331  C     0.85252   0.37876   0.64290   0.00000  Uiso   1.00
C1332  C     0.90615   0.38500   0.62099   0.00000  Uiso   1.00
H1333  H     0.91417   0.41311   0.64072   0.00000  Uiso   1.00
H1334  H     0.92703   0.35728   0.62882   0.00000  Uiso   1.00
H1335  H     0.91798   0.38946   0.57633   0.00000  Uiso   1.00
H1336  H     0.84282   0.36266   0.61091   0.00000  Uiso   1.00
H1337  H     0.83246   0.40980   0.64895   0.00000  Uiso   1.00
H1338  H     0.83359   0.37164   0.82888   0.00000  Uiso   1.00
C1339  C     0.96156   0.41988   0.74120   0.00000  Uiso   1.00
C1340  C     0.99435   0.38028   0.73754   0.00000  Uiso   1.00
H1341  H     0.69287   0.37985   0.69997   0.00000  Uiso   1.00
H1342  H     0.67210   0.37797   0.77410   0.00000  Uiso   1.00
H1343  H     0.97449   0.35193   0.73600   0.00000  Uiso   1.00
H1344  H     0.93099   0.41605   0.77903   0.00000  Uiso   1.00
H1345  H     0.95161   0.41941   0.70401   0.00000  Uiso   1.00
H1346  H     0.71739   0.43511   0.74014   0.00000  Uiso   1.00
H1347  H     0.70189   0.56639   0.75902   0.00000  Uiso   1.00
H1348  H     0.95234   0.56650   0.75885   0.00000  Uiso   1.00
C1349  C     0.93854   0.41278   0.90361   0.00000  Uiso   1.00
C1350  C     0.93709   0.37012   0.93094   0.00000  Uiso   1.00
H1351  H     0.93807   0.37367   0.97286   0.00000  Uiso   1.00
H1352  H     0.90405   0.35453   0.93287   0.00000  Uiso   1.00
H1353  H     0.96845   0.34956   0.90678   0.00000  Uiso   1.00
H1354  H     0.93919   0.40664   0.86157   0.00000  Uiso   1.00
H1355  H     0.97237   0.42787   0.89926   0.00000  Uiso   1.00
H1356  H     0.96200   0.44300   0.98639   0.00000  Uiso   1.00
H1357  H     0.81149   0.52402   0.58399   0.00000  Uiso   1.00
H1358  H     0.72507   0.53261   0.92043   0.00000  Uiso   1.00
C1359  C     0.73574   0.48227   0.58351   0.00000  Uiso   1.00
C1360  C     0.75154   0.43667   0.59051   0.00000  Uiso   1.00
H1361  H     0.74835   0.41607   0.55757   0.00000  Uiso   1.00
H1362  H     0.78872   0.43404   0.59040   0.00000  Uiso   1.00
H1363  H     0.72826   0.42520   0.63022   0.00000  Uiso   1.00
H1364  H     0.74020   0.50319   0.61524   0.00000  Uiso   1.00
H1365  H     0.69667   0.48134   0.59249   0.00000  Uiso   1.00
C1366  C     0.68530   0.54483   0.52839   0.00000  Uiso   1.00
C1367  C     0.69070   0.59160   0.51541   0.00000  Uiso   1.00
H1368  H     0.72102   0.60326   0.52603   0.00000  Uiso   1.00
H1369  H     0.69686   0.59706   0.97157   0.00000  Uiso   1.00
H1370  H     0.99087   0.60996   0.53971   0.00000  Uiso   1.00
H1371  H     0.98910   0.53349   0.51610   0.00000  Uiso   1.00
H1372  H     0.67463   0.54271   0.57329   0.00000  Uiso   1.00
H1373  H     0.86545   0.43769   0.87125   0.00000  Uiso   1.00
C1374  C     0.83258   0.61944   0.64820   0.00000  Uiso   1.00
C1375  C     0.88244   0.60719   0.60828   0.00000  Uiso   1.00
H1376  H     0.90093   0.63528   0.58867   0.00000  Uiso   1.00
H1377  H     0.90419   0.59002   0.62956   0.00000  Uiso   1.00
H1378  H     0.87951   0.58638   0.57549   0.00000  Uiso   1.00
H1379  H     0.81350   0.59016   0.66040   0.00000  Uiso   1.00
H1380  H     0.81083   0.63685   0.62725   0.00000  Uiso   1.00
C1381  C     0.16584   0.91318   0.74934   0.00000  Uiso   1.00
C1382  C     0.14147   0.81894   0.99431   0.00000  Uiso   1.00
C1383  C     0.15282   0.81044   0.93847   0.00000  Uiso   1.00
C1384  C     0.17947   0.81573   0.51527   0.00000  Uiso   1.00
C1385  C     0.22360   0.79381   0.98552   0.00000  Uiso   1.00
C1386  C     0.22902   0.77499   0.93456   0.00000  Uiso   1.00
C1387  C     0.19395   0.78442   0.91106   0.00000  Uiso   1.00
C1388  C     0.17542   0.83639   0.56376   0.00000  Uiso   1.00
C1389  C     0.25331   0.80857   0.55952   0.00000  Uiso   1.00
C1390  C     0.12317   0.82878   0.91154   0.00000  Uiso   1.00
C1391  C     0.16759   0.97777   0.69764   0.00000  Uiso   1.00
C1392  C     0.14025   0.83168   0.85215   0.00000  Uiso   1.00
C1393  C     0.17301   0.68819   0.69607   0.00000  Uiso   1.00
C1394  C     0.17124   0.70908   0.74466   0.00000  Uiso   1.00
C1395  C     0.16796   0.68810   0.79226   0.00000  Uiso   1.00
C1396  C     0.16531   0.97867   0.79304   0.00000  Uiso   1.00
C1397  C     0.16449   0.95741   0.74676   0.00000  Uiso   1.00
C1398  C     0.31401   0.79592   0.74523   0.00000  Uiso   1.00
C1399  C     0.02838   0.79683   0.74471   0.00000  Uiso   1.00
C1400  C     0.02030   0.87010   0.75496   0.00000  Uiso   1.00
C1401  C     0.30602   0.87012   0.75482   0.00000  Uiso   1.00
C1402  C     0.16818   0.75345   0.74830   0.00000  Uiso   1.00
C1403  C     0.19316   0.83383   0.64773   0.00000  Uiso   1.00
C1404  C     0.26088   0.79193   0.50762   0.00000  Uiso   1.00
C1405  C     0.20930   0.82872   0.58872   0.00000  Uiso   1.00
C1406  C     0.08000   0.85026   0.94158   0.00000  Uiso   1.00
C1407  C     0.06443   0.85217   0.99859   0.00000  Uiso   1.00
C1408  C     0.09313   0.83185   0.52585   0.00000  Uiso   1.00
H1409  H     0.16355   0.96200   0.82990   0.00000  Uiso   1.00
N1410  N     0.04760   0.83334   0.75002   0.00000  Uiso   1.00
N1411  N     0.28573   0.83331   0.75001   0.00000  Uiso   1.00
O1412  O     0.12846   0.89442   0.75001   0.00000  Uiso   1.00
O1413  O     0.20490   0.89441   0.75001   0.00000  Uiso   1.00
O1414  O     0.10947   0.83333   0.82681   0.00000  Uiso   1.00
O1415  O     0.18591   0.83332   0.82681   0.00000  Uiso   1.00
O1416  O     0.12843   0.77226   0.75000   0.00000  Uiso   1.00
O1417  O     0.20488   0.77225   0.75000   0.00000  Uiso   1.00
O1418  O     0.14742   0.83335   0.67319   0.00000  Uiso   1.00
O1419  O     0.22387   0.83334   0.67319   0.00000  Uiso   1.00
Zn1420 Zn    0.11562   0.83334   0.75000   0.00000  Uiso   1.00
Zn1421 Zn    0.21771   0.83333   0.75000   0.00000  Uiso   1.00
H1422  H     0.28074   0.80356   0.57783   0.00000  Uiso   1.00
C1423  C     0.18585   0.71209   0.64290   0.00000  Uiso   1.00
C1424  C     0.23949   0.71833   0.62099   0.00000  Uiso   1.00
H1425  H     0.24751   0.74644   0.64072   0.00000  Uiso   1.00
H1426  H     0.26037   0.69062   0.62882   0.00000  Uiso   1.00
H1427  H     0.25131   0.72279   0.57633   0.00000  Uiso   1.00
H1428  H     0.17615   0.69599   0.61091   0.00000  Uiso   1.00
H1429  H     0.16579   0.74314   0.64895   0.00000  Uiso   1.00
H1430  H     0.16692   0.70498   0.82888   0.00000  Uiso   1.00
C1431  C     0.29489   0.75321   0.74120   0.00000  Uiso   1.00
C1432  C     0.32769   0.71361   0.73754   0.00000  Uiso   1.00
H1433  H     0.02620   0.71318   0.69997   0.00000  Uiso   1.00
H1434  H     0.00543   0.71130   0.77410   0.00000  Uiso   1.00
H1435  H     0.30782   0.68527   0.73600   0.00000  Uiso   1.00
H1436  H     0.26432   0.74938   0.77903   0.00000  Uiso   1.00
H1437  H     0.28494   0.75274   0.70401   0.00000  Uiso   1.00
H1438  H     0.05073   0.76845   0.74014   0.00000  Uiso   1.00
H1439  H     0.03522   0.89972   0.75902   0.00000  Uiso   1.00
H1440  H     0.28567   0.89983   0.75885   0.00000  Uiso   1.00
C1441  C     0.27188   0.74611   0.90361   0.00000  Uiso   1.00
C1442  C     0.27042   0.70345   0.93094   0.00000  Uiso   1.00
H1443  H     0.27140   0.70701   0.97286   0.00000  Uiso   1.00
H1444  H     0.23739   0.68787   0.93287   0.00000  Uiso   1.00
H1445  H     0.30179   0.68289   0.90678   0.00000  Uiso   1.00
H1446  H     0.27253   0.73997   0.86157   0.00000  Uiso   1.00
H1447  H     0.30570   0.76120   0.89926   0.00000  Uiso   1.00
H1448  H     0.29533   0.77634   0.98639   0.00000  Uiso   1.00
H1449  H     0.14483   0.85735   0.58399   0.00000  Uiso   1.00
H1450  H     0.05840   0.86594   0.92043   0.00000  Uiso   1.00
C1451  C     0.06907   0.81561   0.58351   0.00000  Uiso   1.00
C1452  C     0.08487   0.77000   0.59051   0.00000  Uiso   1.00
H1453  H     0.08168   0.74941   0.55757   0.00000  Uiso   1.00
H1454  H     0.12205   0.76737   0.59040   0.00000  Uiso   1.00
H1455  H     0.06159   0.75854   0.63022   0.00000  Uiso   1.00
H1456  H     0.07353   0.83653   0.61524   0.00000  Uiso   1.00
H1457  H     0.03000   0.81467   0.59249   0.00000  Uiso   1.00
C1458  C     0.01863   0.87816   0.52839   0.00000  Uiso   1.00
C1459  C     0.02403   0.92493   0.51541   0.00000  Uiso   1.00
H1460  H     0.05435   0.93659   0.52603   0.00000  Uiso   1.00
H1461  H     0.03019   0.93039   0.97157   0.00000  Uiso   1.00
H1462  H     0.32420   0.94329   0.53971   0.00000  Uiso   1.00
H1463  H     0.32243   0.86682   0.51610   0.00000  Uiso   1.00
H1464  H     0.00796   0.87604   0.57329   0.00000  Uiso   1.00
H1465  H     0.19878   0.77102   0.87125   0.00000  Uiso   1.00
C1466  C     0.16591   0.95277   0.64820   0.00000  Uiso   1.00
C1467  C     0.21578   0.94052   0.60828   0.00000  Uiso   1.00
H1468  H     0.23426   0.96861   0.58867   0.00000  Uiso   1.00
H1469  H     0.23752   0.92335   0.62956   0.00000  Uiso   1.00
H1470  H     0.21284   0.91972   0.57549   0.00000  Uiso   1.00
H1471  H     0.14683   0.92349   0.66040   0.00000  Uiso   1.00
H1472  H     0.14417   0.97018   0.62725   0.00000  Uiso   1.00
C1473  C     0.49917   0.91318   0.74934   0.00000  Uiso   1.00
C1474  C     0.47480   0.81894   0.99431   0.00000  Uiso   1.00
C1475  C     0.48616   0.81044   0.93847   0.00000  Uiso   1.00
C1476  C     0.51281   0.81573   0.51527   0.00000  Uiso   1.00
C1477  C     0.55694   0.79381   0.98552   0.00000  Uiso   1.00
C1478  C     0.56235   0.77499   0.93456   0.00000  Uiso   1.00
C1479  C     0.52728   0.78442   0.91106   0.00000  Uiso   1.00
C1480  C     0.50876   0.83639   0.56376   0.00000  Uiso   1.00
C1481  C     0.58665   0.80857   0.55952   0.00000  Uiso   1.00
C1482  C     0.45650   0.82878   0.91154   0.00000  Uiso   1.00
C1483  C     0.50093   0.97777   0.69764   0.00000  Uiso   1.00
C1484  C     0.47359   0.83168   0.85215   0.00000  Uiso   1.00
C1485  C     0.50635   0.68819   0.69607   0.00000  Uiso   1.00
C1486  C     0.50457   0.70908   0.74466   0.00000  Uiso   1.00
C1487  C     0.50129   0.68810   0.79226   0.00000  Uiso   1.00
C1488  C     0.49865   0.97867   0.79304   0.00000  Uiso   1.00
C1489  C     0.49783   0.95741   0.74676   0.00000  Uiso   1.00
C1490  C     0.64734   0.79592   0.74523   0.00000  Uiso   1.00
C1491  C     0.36172   0.79683   0.74471   0.00000  Uiso   1.00
C1492  C     0.35363   0.87010   0.75496   0.00000  Uiso   1.00
C1493  C     0.63935   0.87012   0.75482   0.00000  Uiso   1.00
C1494  C     0.50151   0.75345   0.74830   0.00000  Uiso   1.00
C1495  C     0.52649   0.83383   0.64773   0.00000  Uiso   1.00
C1496  C     0.59421   0.79193   0.50762   0.00000  Uiso   1.00
C1497  C     0.54263   0.82872   0.58872   0.00000  Uiso   1.00
C1498  C     0.41333   0.85026   0.94158   0.00000  Uiso   1.00
C1499  C     0.39776   0.85217   0.99859   0.00000  Uiso   1.00
C1500  C     0.42646   0.83185   0.52585   0.00000  Uiso   1.00
H1501  H     0.49688   0.96200   0.82990   0.00000  Uiso   1.00
N1502  N     0.38093   0.83334   0.75002   0.00000  Uiso   1.00
N1503  N     0.61906   0.83331   0.75001   0.00000  Uiso   1.00
O1504  O     0.46179   0.89442   0.75001   0.00000  Uiso   1.00
O1505  O     0.53823   0.89441   0.75001   0.00000  Uiso   1.00
O1506  O     0.44280   0.83333   0.82681   0.00000  Uiso   1.00
O1507  O     0.51924   0.83332   0.82681   0.00000  Uiso   1.00
O1508  O     0.46177   0.77226   0.75000   0.00000  Uiso   1.00
O1509  O     0.53821   0.77225   0.75000   0.00000  Uiso   1.00
O1510  O     0.48076   0.83335   0.67319   0.00000  Uiso   1.00
O1511  O     0.55720   0.83334   0.67319   0.00000  Uiso   1.00
Zn1512 Zn    0.44896   0.83334   0.75000   0.00000  Uiso   1.00
Zn1513 Zn    0.55104   0.83333   0.75000   0.00000  Uiso   1.00
H1514  H     0.61407   0.80356   0.57783   0.00000  Uiso   1.00
C1515  C     0.51919   0.71209   0.64290   0.00000  Uiso   1.00
C1516  C     0.57282   0.71833   0.62099   0.00000  Uiso   1.00
H1517  H     0.58084   0.74644   0.64072   0.00000  Uiso   1.00
H1518  H     0.59370   0.69062   0.62882   0.00000  Uiso   1.00
H1519  H     0.58464   0.72279   0.57633   0.00000  Uiso   1.00
H1520  H     0.50948   0.69599   0.61091   0.00000  Uiso   1.00
H1521  H     0.49913   0.74314   0.64895   0.00000  Uiso   1.00
H1522  H     0.50025   0.70498   0.82888   0.00000  Uiso   1.00
C1523  C     0.62822   0.75321   0.74120   0.00000  Uiso   1.00
C1524  C     0.66102   0.71361   0.73754   0.00000  Uiso   1.00
H1525  H     0.35954   0.71318   0.69997   0.00000  Uiso   1.00
H1526  H     0.33877   0.71130   0.77410   0.00000  Uiso   1.00
H1527  H     0.64116   0.68527   0.73600   0.00000  Uiso   1.00
H1528  H     0.59765   0.74938   0.77903   0.00000  Uiso   1.00
H1529  H     0.61828   0.75274   0.70401   0.00000  Uiso   1.00
H1530  H     0.38406   0.76845   0.74014   0.00000  Uiso   1.00
H1531  H     0.36856   0.89972   0.75902   0.00000  Uiso   1.00
H1532  H     0.61900   0.89983   0.75885   0.00000  Uiso   1.00
C1533  C     0.60521   0.74611   0.90361   0.00000  Uiso   1.00
C1534  C     0.60376   0.70345   0.93094   0.00000  Uiso   1.00
H1535  H     0.60473   0.70701   0.97286   0.00000  Uiso   1.00
H1536  H     0.57072   0.68787   0.93287   0.00000  Uiso   1.00
H1537  H     0.63512   0.68289   0.90678   0.00000  Uiso   1.00
H1538  H     0.60586   0.73997   0.86157   0.00000  Uiso   1.00
H1539  H     0.63904   0.76120   0.89926   0.00000  Uiso   1.00
H1540  H     0.62867   0.77634   0.98639   0.00000  Uiso   1.00
H1541  H     0.47816   0.85735   0.58399   0.00000  Uiso   1.00
H1542  H     0.39174   0.86594   0.92043   0.00000  Uiso   1.00
C1543  C     0.40240   0.81561   0.58351   0.00000  Uiso   1.00
C1544  C     0.41820   0.77000   0.59051   0.00000  Uiso   1.00
H1545  H     0.41501   0.74941   0.55757   0.00000  Uiso   1.00
H1546  H     0.45538   0.76737   0.59040   0.00000  Uiso   1.00
H1547  H     0.39493   0.75854   0.63022   0.00000  Uiso   1.00
H1548  H     0.40687   0.83653   0.61524   0.00000  Uiso   1.00
H1549  H     0.36334   0.81467   0.59249   0.00000  Uiso   1.00
C1550  C     0.35196   0.87816   0.52839   0.00000  Uiso   1.00
C1551  C     0.35737   0.92493   0.51541   0.00000  Uiso   1.00
H1552  H     0.38768   0.93659   0.52603   0.00000  Uiso   1.00
H1553  H     0.36352   0.93039   0.97157   0.00000  Uiso   1.00
H1554  H     0.65754   0.94329   0.53971   0.00000  Uiso   1.00
H1555  H     0.65576   0.86682   0.51610   0.00000  Uiso   1.00
H1556  H     0.34129   0.87604   0.57329   0.00000  Uiso   1.00
H1557  H     0.53211   0.77102   0.87125   0.00000  Uiso   1.00
C1558  C     0.49924   0.95277   0.64820   0.00000  Uiso   1.00
C1559  C     0.54911   0.94052   0.60828   0.00000  Uiso   1.00
H1560  H     0.56760   0.96861   0.58867   0.00000  Uiso   1.00
H1561  H     0.57086   0.92335   0.62956   0.00000  Uiso   1.00
H1562  H     0.54617   0.91972   0.57549   0.00000  Uiso   1.00
H1563  H     0.48017   0.92349   0.66040   0.00000  Uiso   1.00
H1564  H     0.47750   0.97018   0.62725   0.00000  Uiso   1.00
C1565  C     0.83250   0.91318   0.74934   0.00000  Uiso   1.00
C1566  C     0.80813   0.81894   0.99431   0.00000  Uiso   1.00
C1567  C     0.81949   0.81044   0.93847   0.00000  Uiso   1.00
C1568  C     0.84614   0.81573   0.51527   0.00000  Uiso   1.00
C1569  C     0.89027   0.79381   0.98552   0.00000  Uiso   1.00
C1570  C     0.89569   0.77499   0.93456   0.00000  Uiso   1.00
C1571  C     0.86062   0.78442   0.91106   0.00000  Uiso   1.00
C1572  C     0.84209   0.83639   0.56376   0.00000  Uiso   1.00
C1573  C     0.91998   0.80857   0.55952   0.00000  Uiso   1.00
C1574  C     0.78984   0.82878   0.91154   0.00000  Uiso   1.00
C1575  C     0.83426   0.97777   0.69764   0.00000  Uiso   1.00
C1576  C     0.80692   0.83168   0.85215   0.00000  Uiso   1.00
C1577  C     0.83968   0.68819   0.69607   0.00000  Uiso   1.00
C1578  C     0.83791   0.70908   0.74466   0.00000  Uiso   1.00
C1579  C     0.83462   0.68810   0.79226   0.00000  Uiso   1.00
C1580  C     0.83198   0.97867   0.79304   0.00000  Uiso   1.00
C1581  C     0.83116   0.95741   0.74676   0.00000  Uiso   1.00
C1582  C     0.98067   0.79592   0.74523   0.00000  Uiso   1.00
C1583  C     0.69505   0.79683   0.74471   0.00000  Uiso   1.00
C1584  C     0.68697   0.87010   0.75496   0.00000  Uiso   1.00
C1585  C     0.97269   0.87012   0.75482   0.00000  Uiso   1.00
C1586  C     0.83484   0.75345   0.74830   0.00000  Uiso   1.00
C1587  C     0.85982   0.83383   0.64773   0.00000  Uiso   1.00
C1588  C     0.92755   0.79193   0.50762   0.00000  Uiso   1.00
C1589  C     0.87597   0.82872   0.58872   0.00000  Uiso   1.00
C1590  C     0.74667   0.85026   0.94158   0.00000  Uiso   1.00
C1591  C     0.73109   0.85217   0.99859   0.00000  Uiso   1.00
C1592  C     0.75979   0.83185   0.52585   0.00000  Uiso   1.00
H1593  H     0.83022   0.96200   0.82990   0.00000  Uiso   1.00
N1594  N     0.71426   0.83334   0.75002   0.00000  Uiso   1.00
N1595  N     0.95239   0.83331   0.75001   0.00000  Uiso   1.00
O1596  O     0.79512   0.89442   0.75001   0.00000  Uiso   1.00
O1597  O     0.87157   0.89441   0.75001   0.00000  Uiso   1.00
O1598  O     0.77613   0.83333   0.82681   0.00000  Uiso   1.00
O1599  O     0.85258   0.83332   0.82681   0.00000  Uiso   1.00
O1600  O     0.79510   0.77226   0.75000   0.00000  Uiso   1.00
O1601  O     0.87154   0.77225   0.75000   0.00000  Uiso   1.00
O1602  O     0.81409   0.83335   0.67319   0.00000  Uiso   1.00
O1603  O     0.89053   0.83334   0.67319   0.00000  Uiso   1.00
Zn1604 Zn    0.78229   0.83334   0.75000   0.00000  Uiso   1.00
Zn1605 Zn    0.88438   0.83333   0.75000   0.00000  Uiso   1.00
H1606  H     0.94740   0.80356   0.57783   0.00000  Uiso   1.00
C1607  C     0.85252   0.71209   0.64290   0.00000  Uiso   1.00
C1608  C     0.90615   0.71833   0.62099   0.00000  Uiso   1.00
H1609  H     0.91417   0.74644   0.64072   0.00000  Uiso   1.00
H1610  H     0.92703   0.69062   0.62882   0.00000  Uiso   1.00
H1611  H     0.91798   0.72279   0.57633   0.00000  Uiso   1.00
H1612  H     0.84282   0.69599   0.61091   0.00000  Uiso   1.00
H1613  H     0.83246   0.74314   0.64895   0.00000  Uiso   1.00
H1614  H     0.83359   0.70498   0.82888   0.00000  Uiso   1.00
C1615  C     0.96156   0.75321   0.74120   0.00000  Uiso   1.00
C1616  C     0.99435   0.71361   0.73754   0.00000  Uiso   1.00
H1617  H     0.69287   0.71318   0.69997   0.00000  Uiso   1.00
H1618  H     0.67210   0.71130   0.77410   0.00000  Uiso   1.00
H1619  H     0.97449   0.68527   0.73600   0.00000  Uiso   1.00
H1620  H     0.93099   0.74938   0.77903   0.00000  Uiso   1.00
H1621  H     0.95161   0.75274   0.70401   0.00000  Uiso   1.00
H1622  H     0.71739   0.76845   0.74014   0.00000  Uiso   1.00
H1623  H     0.70189   0.89972   0.75902   0.00000  Uiso   1.00
H1624  H     0.95234   0.89983   0.75885   0.00000  Uiso   1.00
C1625  C     0.93854   0.74611   0.90361   0.00000  Uiso   1.00
C1626  C     0.93709   0.70345   0.93094   0.00000  Uiso   1.00
H1627  H     0.93807   0.70701   0.97286   0.00000  Uiso   1.00
H1628  H     0.90405   0.68787   0.93287   0.00000  Uiso   1.00
H1629  H     0.96845   0.68289   0.90678   0.00000  Uiso   1.00
H1630  H     0.93919   0.73997   0.86157   0.00000  Uiso   1.00
H1631  H     0.97237   0.76120   0.89926   0.00000  Uiso   1.00
H1632  H     0.96200   0.77634   0.98639   0.00000  Uiso   1.00
H1633  H     0.81149   0.85735   0.58399   0.00000  Uiso   1.00
H1634  H     0.72507   0.86594   0.92043   0.00000  Uiso   1.00
C1635  C     0.73574   0.81561   0.58351   0.00000  Uiso   1.00
C1636  C     0.75154   0.77000   0.59051   0.00000  Uiso   1.00
H1637  H     0.74835   0.74941   0.55757   0.00000  Uiso   1.00
H1638  H     0.78872   0.76737   0.59040   0.00000  Uiso   1.00
H1639  H     0.72826   0.75854   0.63022   0.00000  Uiso   1.00
H1640  H     0.74020   0.83653   0.61524   0.00000  Uiso   1.00
H1641  H     0.69667   0.81467   0.59249   0.00000  Uiso   1.00
C1642  C     0.68530   0.87816   0.52839   0.00000  Uiso   1.00
C1643  C     0.69070   0.92493   0.51541   0.00000  Uiso   1.00
H1644  H     0.72102   0.93659   0.52603   0.00000  Uiso   1.00
H1645  H     0.69686   0.93039   0.97157   0.00000  Uiso   1.00
H1646  H     0.99087   0.94329   0.53971   0.00000  Uiso   1.00
H1647  H     0.98910   0.86682   0.51610   0.00000  Uiso   1.00
H1648  H     0.67463   0.87604   0.57329   0.00000  Uiso   1.00
H1649  H     0.86545   0.77102   0.87125   0.00000  Uiso   1.00
C1650  C     0.83258   0.95277   0.64820   0.00000  Uiso   1.00
C1651  C     0.88244   0.94052   0.60828   0.00000  Uiso   1.00
H1652  H     0.90093   0.96861   0.58867   0.00000  Uiso   1.00
H1653  H     0.90419   0.92335   0.62956   0.00000  Uiso   1.00
H1654  H     0.87951   0.91972   0.57549   0.00000  Uiso   1.00
H1655  H     0.81350   0.92349   0.66040   0.00000  Uiso   1.00
H1656  H     0.81083   0.97018   0.62725   0.00000  Uiso   1.00
loop_
_geom_bond_atom_site_label_1
_geom_bond_atom_site_label_2
_geom_bond_distance
_geom_bond_site_symmetry_2
_ccdc_geom_bond_type
C1     O33     1.286   .     A
C1     O32     1.286   .     A
C1     C17     1.406   .     S
C2     C3      1.401   .     A
C2     C832    1.414   .     S
C2     C856    1.433   .     S
C3     C7      1.413   .     A
C3     C10     1.408   .     A
C4     C8      1.389   .     A
C4     C830    1.414   1_554 S
C4     C833    1.424   1_554 S
C5     C6      1.411   .     A
C5     C832    1.424   .     S
C5     C852    1.413   .     S
C6     C61     1.517   .     S
C6     C7      1.400   .     A
C7     H85     1.082   .     S
C8     C25     1.387   .     A
C8     H69     1.078   .     S
C9     C25     1.394   .     A
C9     H42     1.083   .     S
C9     C24     1.393   .     A
C10    C26     1.399   .     A
C10    C12     1.461   .     S
C11    C86     1.530   .     S
C11    C17     1.413   .     A
C11    C289    1.407   .     S
C12    O35     1.299   .     A
C12    O34     1.299   .     A
C13    C43     1.523   .     S
C13    C14     1.413   .     A
C13    C563    1.407   1_545 S
C14    C22     1.409   .     S
C14    C15     1.386   .     A
C15    H50     1.085   .     S
C15    C568    1.365   1_545 S
C16    C17     1.390   .     A
C16    H29     1.085   .     S
C16    C291    1.365   .     S
C18    C51     1.515   .     S
C18    N31     1.401   .     A
C18    C111    1.419   .     S
C19    H58     1.074   .     S
C19    N30     1.347   .     A
C19    C202    1.419   1_455 S
C20    N30     1.368   .     A
C20    H59     1.081   .     S
C20    C205    1.420   1_455 S
C21    N31     1.369   .     A
C21    H60     1.080   .     S
C21    C112    1.420   .     S
C22    O37     1.287   .     A
C22    O36     1.286   .     A
C23    C25     1.454   .     S
C23    O38     1.299   .     A
C23    O39     1.300   .     A
C24    C833    1.413   1_554 S
C24    H896    1.080   1_554 S
C26    C27     1.399   .     A
C26    H70     1.084   .     S
C27    C856    1.418   .     S
C27    C906    1.520   .     S
C28    C71     1.533   .     S
C28    C830    1.433   1_554 S
C28    C855    1.418   1_554 S
N30    Zn40    2.027   .     S
N31    Zn41    2.027   .     S
O32    Zn40    1.997   .     S
O33    Zn41    1.958   .     S
O34    Zn40    1.948   .     S
O35    Zn41    1.903   .     S
O36    Zn40    1.958   .     S
O37    Zn41    1.997   .     S
O38    Zn40    1.903   .     S
O39    Zn41    1.948   .     S
C43    H48     1.104   .     S
C43    H49     1.109   .     S
C43    C44     1.528   .     S
C44    H45     1.106   .     S
C44    H46     1.111   .     S
C44    H47     1.108   .     S
C51    H56     1.105   .     S
C51    H57     1.106   .     S
C51    C52     1.535   .     S
C52    H55     1.111   .     S
C52    H145    1.108   .     S
C52    H146    1.111   .     S
H53    C236    1.108   1_455 S
H54    C236    1.111   1_455 S
C61    H66     1.107   .     S
C61    H67     1.110   .     S
C61    C62     1.528   .     S
C62    H64     1.111   .     S
C62    H63     1.109   .     S
C62    H65     1.110   .     S
H68    C852    1.080   .     S
C71    H76     1.107   .     S
C71    H77     1.109   .     S
C71    C72     1.530   .     S
C72    H75     1.107   .     S
C72    H74     1.106   .     S
C72    H73     1.111   .     S
C78    C79     1.529   .     S
C78    H84     1.107   .     S
C78    C855    1.520   1_554 S
C78    H267    1.110   1_455 S
C79    H80     1.111   .     S
C79    H909    1.110   1_554 S
C79    H266    1.110   1_455 S
H81    C907    1.110   .     S
H82    C171    1.110   .     S
H83    C170    1.110   .     S
C86    H91     1.106   .     S
C86    C87     1.527   .     S
C86    H92     1.108   .     S
C87    H88     1.106   .     S
C87    H89     1.111   .     S
C87    H90     1.109   .     S
C93    O125    1.286   .     A
C93    O124    1.286   .     A
C93    C109    1.406   .     S
C94    C95     1.401   .     A
C94    C924    1.414   .     S
C94    C948    1.433   .     S
C95    C99     1.413   .     A
C95    C102    1.408   .     A
C96    C100    1.389   .     A
C96    C922    1.414   1_554 S
C96    C925    1.424   1_554 S
C97    C98     1.411   .     A
C97    C924    1.424   .     S
C97    C944    1.413   .     S
C98    C153    1.517   .     S
C98    C99     1.400   .     A
C99    H177    1.082   .     S
C100   C117    1.387   .     A
C100   H161    1.078   .     S
C101   C117    1.394   .     A
C101   H134    1.083   .     S
C101   C116    1.393   .     A
C102   C118    1.399   .     A
C102   C104    1.461   .     S
C103   C178    1.530   .     S
C103   C109    1.413   .     A
C103   C381    1.407   .     S
C104   O127    1.299   .     A
C104   O126    1.299   .     A
C105   C135    1.523   .     S
C105   C106    1.413   .     A
C105   C655    1.407   1_545 S
C106   C114    1.409   .     S
C106   C107    1.386   .     A
C107   H142    1.085   .     S
C107   C660    1.365   1_545 S
C108   C109    1.390   .     A
C108   H121    1.085   .     S
C108   C383    1.365   .     S
C110   C143    1.515   .     S
C110   N123    1.401   .     A
C110   C203    1.419   .     S
C111   H150    1.074   .     S
C111   N122    1.347   .     A
C112   N122    1.368   .     A
C112   H151    1.081   .     S
C113   N123    1.369   .     A
C113   H152    1.080   .     S
C113   C204    1.420   .     S
C114   O129    1.287   .     A
C114   O128    1.286   .     A
C115   C117    1.454   .     S
C115   O130    1.299   .     A
C115   O131    1.300   .     A
C116   C925    1.413   1_554 S
C116   H988    1.080   1_554 S
C118   C119    1.399   .     A
C118   H162    1.084   .     S
C119   C948    1.418   .     S
C119   C998    1.520   .     S
C120   C163    1.533   .     S
C120   C922    1.433   1_554 S
C120   C947    1.418   1_554 S
N122   Zn132   2.027   .     S
N123   Zn133   2.027   .     S
O124   Zn132   1.997   .     S
O125   Zn133   1.958   .     S
O126   Zn132   1.948   .     S
O127   Zn133   1.903   .     S
O128   Zn132   1.958   .     S
O129   Zn133   1.997   .     S
O130   Zn132   1.903   .     S
O131   Zn133   1.948   .     S
C135   H140    1.104   .     S
C135   H141    1.109   .     S
C135   C136    1.528   .     S
C136   H137    1.106   .     S
C136   H138    1.111   .     S
C136   H139    1.108   .     S
C143   H148    1.105   .     S
C143   H149    1.106   .     S
C143   C144    1.535   .     S
C144   H147    1.111   .     S
C144   H237    1.108   .     S
C144   H238    1.111   .     S
C153   H158    1.107   .     S
C153   H159    1.110   .     S
C153   C154    1.528   .     S
C154   H156    1.111   .     S
C154   H155    1.109   .     S
C154   H157    1.110   .     S
H160   C944    1.080   .     S
C163   H168    1.107   .     S
C163   H169    1.109   .     S
C163   C164    1.530   .     S
C164   H167    1.107   .     S
C164   H166    1.106   .     S
C164   H165    1.111   .     S
C170   C171    1.529   .     S
C170   H176    1.107   .     S
C170   C947    1.520   1_554 S
C171   H172    1.111   .     S
C171   H1001   1.110   1_554 S
H173   C999    1.110   .     S
H174   C263    1.110   .     S
H175   C262    1.110   .     S
C178   H183    1.106   .     S
C178   C179    1.527   .     S
C178   H184    1.108   .     S
C179   H180    1.106   .     S
C179   H181    1.111   .     S
C179   H182    1.109   .     S
C185   O217    1.286   .     A
C185   O216    1.286   .     A
C185   C201    1.406   .     S
C186   C187    1.401   .     A
C186   C1016   1.414   .     S
C186   C1040   1.433   .     S
C187   C191    1.413   .     A
C187   C194    1.408   .     A
C188   C192    1.389   .     A
C188   C1014   1.414   1_554 S
C188   C1017   1.424   1_554 S
C189   C190    1.411   .     A
C189   C1016   1.424   .     S
C189   C1036   1.413   .     S
C190   C245    1.517   .     S
C190   C191    1.400   .     A
C191   H269    1.082   .     S
C192   C209    1.387   .     A
C192   H253    1.078   .     S
C193   C209    1.394   .     A
C193   H226    1.083   .     S
C193   C208    1.393   .     A
C194   C210    1.399   .     A
C194   C196    1.461   .     S
C195   C270    1.530   .     S
C195   C201    1.413   .     A
C195   C473    1.407   .     S
C196   O219    1.299   .     A
C196   O218    1.299   .     A
C197   C227    1.523   .     S
C197   C198    1.413   .     A
C197   C747    1.407   1_545 S
C198   C206    1.409   .     S
C198   C199    1.386   .     A
C199   H234    1.085   .     S
C199   C752    1.365   1_545 S
C200   C201    1.390   .     A
C200   H213    1.085   .     S
C200   C475    1.365   .     S
C202   C235    1.515   .     S
C202   N215    1.401   .     A
C202   C19     1.419   1_655 S
C203   H242    1.074   .     S
C203   N214    1.347   .     A
C204   N214    1.368   .     A
C204   H243    1.081   .     S
C205   N215    1.369   .     A
C205   H244    1.080   .     S
C205   C20     1.420   1_655 S
C206   O221    1.287   .     A
C206   O220    1.286   .     A
C207   C209    1.454   .     S
C207   O222    1.299   .     A
C207   O223    1.300   .     A
C208   C1017   1.413   1_554 S
C208   H1080   1.080   1_554 S
C210   C211    1.399   .     A
C210   H254    1.084   .     S
C211   C1040   1.418   .     S
C211   C1090   1.520   .     S
C212   C255    1.533   .     S
C212   C1014   1.433   1_554 S
C212   C1039   1.418   1_554 S
N214   Zn224   2.027   .     S
N215   Zn225   2.027   .     S
O216   Zn224   1.997   .     S
O217   Zn225   1.958   .     S
O218   Zn224   1.948   .     S
O219   Zn225   1.903   .     S
O220   Zn224   1.958   .     S
O221   Zn225   1.997   .     S
O222   Zn224   1.903   .     S
O223   Zn225   1.948   .     S
C227   H232    1.104   .     S
C227   H233    1.109   .     S
C227   C228    1.528   .     S
C228   H229    1.106   .     S
C228   H230    1.111   .     S
C228   H231    1.108   .     S
C235   H240    1.105   .     S
C235   H241    1.106   .     S
C235   C236    1.535   .     S
C236   H239    1.111   .     S
C236   H53     1.108   1_655 S
C236   H54     1.111   1_655 S
C245   H250    1.107   .     S
C245   H251    1.110   .     S
C245   C246    1.528   .     S
C246   H248    1.111   .     S
C246   H247    1.109   .     S
C246   H249    1.110   .     S
H252   C1036   1.080   .     S
C255   H260    1.107   .     S
C255   H261    1.109   .     S
C255   C256    1.530   .     S
C256   H259    1.107   .     S
C256   H258    1.106   .     S
C256   H257    1.111   .     S
C262   C263    1.529   .     S
C262   H268    1.107   .     S
C262   C1039   1.520   1_554 S
C263   H264    1.111   .     S
C263   H1093   1.110   1_554 S
H265   C1091   1.110   .     S
H266   C79     1.110   1_655 S
H267   C78     1.110   1_655 S
C270   H275    1.106   .     S
C270   C271    1.527   .     S
C270   H276    1.108   .     S
C271   H272    1.106   .     S
C271   H273    1.111   .     S
C271   H274    1.109   .     S
C277   O309    1.286   .     A
C277   O308    1.286   .     A
C277   C293    1.406   .     S
C278   C279    1.401   .     A
C278   C1108   1.414   .     S
C278   C1132   1.433   .     S
C279   C283    1.413   .     A
C279   C286    1.408   .     A
C280   C284    1.389   .     A
C280   C1106   1.414   1_554 S
C280   C1109   1.424   1_554 S
C281   C282    1.411   .     A
C281   C1108   1.424   .     S
C281   C1128   1.413   .     S
C282   C337    1.517   .     S
C282   C283    1.400   .     A
C283   H361    1.082   .     S
C284   C301    1.387   .     A
C284   H345    1.078   .     S
C285   C301    1.394   .     A
C285   H318    1.083   .     S
C285   C300    1.393   .     A
C286   C302    1.399   .     A
C286   C288    1.461   .     S
C287   C362    1.530   .     S
C287   C293    1.413   .     A
C287   C565    1.407   .     S
C288   O311    1.299   .     A
C288   O310    1.299   .     A
C289   C319    1.523   .     S
C289   C290    1.413   .     A
C290   C298    1.409   .     S
C290   C291    1.386   .     A
C291   H326    1.085   .     S
C292   C293    1.390   .     A
C292   H305    1.085   .     S
C292   C567    1.365   .     S
C294   C327    1.515   .     S
C294   N307    1.401   .     A
C294   C387    1.419   .     S
C295   H334    1.074   .     S
C295   N306    1.347   .     A
C295   C478    1.419   1_455 S
C296   N306    1.368   .     A
C296   H335    1.081   .     S
C296   C481    1.420   1_455 S
C297   N307    1.369   .     A
C297   H336    1.080   .     S
C297   C388    1.420   .     S
C298   O313    1.287   .     A
C298   O312    1.286   .     A
C299   C301    1.454   .     S
C299   O314    1.299   .     A
C299   O315    1.300   .     A
C300   C1109   1.413   1_554 S
C300   H1172   1.080   1_554 S
C302   C303    1.399   .     A
C302   H346    1.084   .     S
C303   C1132   1.418   .     S
C303   C1182   1.520   .     S
C304   C347    1.533   .     S
C304   C1106   1.433   1_554 S
C304   C1131   1.418   1_554 S
N306   Zn316   2.027   .     S
N307   Zn317   2.027   .     S
O308   Zn316   1.997   .     S
O309   Zn317   1.958   .     S
O310   Zn316   1.948   .     S
O311   Zn317   1.903   .     S
O312   Zn316   1.958   .     S
O313   Zn317   1.997   .     S
O314   Zn316   1.903   .     S
O315   Zn317   1.948   .     S
C319   H324    1.104   .     S
C319   H325    1.109   .     S
C319   C320    1.528   .     S
C320   H321    1.106   .     S
C320   H322    1.111   .     S
C320   H323    1.108   .     S
C327   H332    1.105   .     S
C327   H333    1.106   .     S
C327   C328    1.535   .     S
C328   H331    1.111   .     S
C328   H421    1.108   .     S
C328   H422    1.111   .     S
H329   C512    1.108   1_455 S
H330   C512    1.111   1_455 S
C337   H342    1.107   .     S
C337   H343    1.110   .     S
C337   C338    1.528   .     S
C338   H340    1.111   .     S
C338   H339    1.109   .     S
C338   H341    1.110   .     S
H344   C1128   1.080   .     S
C347   H352    1.107   .     S
C347   H353    1.109   .     S
C347   C348    1.530   .     S
C348   H351    1.107   .     S
C348   H350    1.106   .     S
C348   H349    1.111   .     S
C354   C355    1.529   .     S
C354   H360    1.107   .     S
C354   C1131   1.520   1_554 S
C354   H543    1.110   1_455 S
C355   H356    1.111   .     S
C355   H1185   1.110   1_554 S
C355   H542    1.110   1_455 S
H357   C1183   1.110   .     S
H358   C447    1.110   .     S
H359   C446    1.110   .     S
C362   H367    1.106   .     S
C362   C363    1.527   .     S
C362   H368    1.108   .     S
C363   H364    1.106   .     S
C363   H365    1.111   .     S
C363   H366    1.109   .     S
C369   O401    1.286   .     A
C369   O400    1.286   .     A
C369   C385    1.406   .     S
C370   C371    1.401   .     A
C370   C1200   1.414   .     S
C370   C1224   1.433   .     S
C371   C375    1.413   .     A
C371   C378    1.408   .     A
C372   C376    1.389   .     A
C372   C1198   1.414   1_554 S
C372   C1201   1.424   1_554 S
C373   C374    1.411   .     A
C373   C1200   1.424   .     S
C373   C1220   1.413   .     S
C374   C429    1.517   .     S
C374   C375    1.400   .     A
C375   H453    1.082   .     S
C376   C393    1.387   .     A
C376   H437    1.078   .     S
C377   C393    1.394   .     A
C377   H410    1.083   .     S
C377   C392    1.393   .     A
C378   C394    1.399   .     A
C378   C380    1.461   .     S
C379   C454    1.530   .     S
C379   C385    1.413   .     A
C379   C657    1.407   .     S
C380   O403    1.299   .     A
C380   O402    1.299   .     A
C381   C411    1.523   .     S
C381   C382    1.413   .     A
C382   C390    1.409   .     S
C382   C383    1.386   .     A
C383   H418    1.085   .     S
C384   C385    1.390   .     A
C384   H397    1.085   .     S
C384   C659    1.365   .     S
C386   C419    1.515   .     S
C386   N399    1.401   .     A
C386   C479    1.419   .     S
C387   H426    1.074   .     S
C387   N398    1.347   .     A
C388   N398    1.368   .     A
C388   H427    1.081   .     S
C389   N399    1.369   .     A
C389   H428    1.080   .     S
C389   C480    1.420   .     S
C390   O405    1.287   .     A
C390   O404    1.286   .     A
C391   C393    1.454   .     S
C391   O406    1.299   .     A
C391   O407    1.300   .     A
C392   C1201   1.413   1_554 S
C392   H1264   1.080   1_554 S
C394   C395    1.399   .     A
C394   H438    1.084   .     S
C395   C1224   1.418   .     S
C395   C1274   1.520   .     S
C396   C439    1.533   .     S
C396   C1198   1.433   1_554 S
C396   C1223   1.418   1_554 S
N398   Zn408   2.027   .     S
N399   Zn409   2.027   .     S
O400   Zn408   1.997   .     S
O401   Zn409   1.958   .     S
O402   Zn408   1.948   .     S
O403   Zn409   1.903   .     S
O404   Zn408   1.958   .     S
O405   Zn409   1.997   .     S
O406   Zn408   1.903   .     S
O407   Zn409   1.948   .     S
C411   H416    1.104   .     S
C411   H417    1.109   .     S
C411   C412    1.528   .     S
C412   H413    1.106   .     S
C412   H414    1.111   .     S
C412   H415    1.108   .     S
C419   H424    1.105   .     S
C419   H425    1.106   .     S
C419   C420    1.535   .     S
C420   H423    1.111   .     S
C420   H513    1.108   .     S
C420   H514    1.111   .     S
C429   H434    1.107   .     S
C429   H435    1.110   .     S
C429   C430    1.528   .     S
C430   H432    1.111   .     S
C430   H431    1.109   .     S
C430   H433    1.110   .     S
H436   C1220   1.080   .     S
C439   H444    1.107   .     S
C439   H445    1.109   .     S
C439   C440    1.530   .     S
C440   H443    1.107   .     S
C440   H442    1.106   .     S
C440   H441    1.111   .     S
C446   C447    1.529   .     S
C446   H452    1.107   .     S
C446   C1223   1.520   1_554 S
C447   H448    1.111   .     S
C447   H1277   1.110   1_554 S
H449   C1275   1.110   .     S
H450   C539    1.110   .     S
H451   C538    1.110   .     S
C454   H459    1.106   .     S
C454   C455    1.527   .     S
C454   H460    1.108   .     S
C455   H456    1.106   .     S
C455   H457    1.111   .     S
C455   H458    1.109   .     S
C461   O493    1.286   .     A
C461   O492    1.286   .     A
C461   C477    1.406   .     S
C462   C463    1.401   .     A
C462   C1292   1.414   .     S
C462   C1316   1.433   .     S
C463   C467    1.413   .     A
C463   C470    1.408   .     A
C464   C468    1.389   .     A
C464   C1290   1.414   1_554 S
C464   C1293   1.424   1_554 S
C465   C466    1.411   .     A
C465   C1292   1.424   .     S
C465   C1312   1.413   .     S
C466   C521    1.517   .     S
C466   C467    1.400   .     A
C467   H545    1.082   .     S
C468   C485    1.387   .     A
C468   H529    1.078   .     S
C469   C485    1.394   .     A
C469   H502    1.083   .     S
C469   C484    1.393   .     A
C470   C486    1.399   .     A
C470   C472    1.461   .     S
C471   C546    1.530   .     S
C471   C477    1.413   .     A
C471   C749    1.407   .     S
C472   O495    1.299   .     A
C472   O494    1.299   .     A
C473   C503    1.523   .     S
C473   C474    1.413   .     A
C474   C482    1.409   .     S
C474   C475    1.386   .     A
C475   H510    1.085   .     S
C476   C477    1.390   .     A
C476   H489    1.085   .     S
C476   C751    1.365   .     S
C478   C511    1.515   .     S
C478   N491    1.401   .     A
C478   C295    1.419   1_655 S
C479   H518    1.074   .     S
C479   N490    1.347   .     A
C480   N490    1.368   .     A
C480   H519    1.081   .     S
C481   N491    1.369   .     A
C481   H520    1.080   .     S
C481   C296    1.420   1_655 S
C482   O497    1.287   .     A
C482   O496    1.286   .     A
C483   C485    1.454   .     S
C483   O498    1.299   .     A
C483   O499    1.300   .     A
C484   C1293   1.413   1_554 S
C484   H1356   1.080   1_554 S
C486   C487    1.399   .     A
C486   H530    1.084   .     S
C487   C1316   1.418   .     S
C487   C1366   1.520   .     S
C488   C531    1.533   .     S
C488   C1290   1.433   1_554 S
C488   C1315   1.418   1_554 S
N490   Zn500   2.027   .     S
N491   Zn501   2.027   .     S
O492   Zn500   1.997   .     S
O493   Zn501   1.958   .     S
O494   Zn500   1.948   .     S
O495   Zn501   1.903   .     S
O496   Zn500   1.958   .     S
O497   Zn501   1.997   .     S
O498   Zn500   1.903   .     S
O499   Zn501   1.948   .     S
C503   H508    1.104   .     S
C503   H509    1.109   .     S
C503   C504    1.528   .     S
C504   H505    1.106   .     S
C504   H506    1.111   .     S
C504   H507    1.108   .     S
C511   H516    1.105   .     S
C511   H517    1.106   .     S
C511   C512    1.535   .     S
C512   H515    1.111   .     S
C512   H329    1.108   1_655 S
C512   H330    1.111   1_655 S
C521   H526    1.107   .     S
C521   H527    1.110   .     S
C521   C522    1.528   .     S
C522   H524    1.111   .     S
C522   H523    1.109   .     S
C522   H525    1.110   .     S
H528   C1312   1.080   .     S
C531   H536    1.107   .     S
C531   H537    1.109   .     S
C531   C532    1.530   .     S
C532   H535    1.107   .     S
C532   H534    1.106   .     S
C532   H533    1.111   .     S
C538   C539    1.529   .     S
C538   H544    1.107   .     S
C538   C1315   1.520   1_554 S
C539   H540    1.111   .     S
C539   H1369   1.110   1_554 S
H541   C1367   1.110   .     S
H542   C355    1.110   1_655 S
H543   C354    1.110   1_655 S
C546   H551    1.106   .     S
C546   C547    1.527   .     S
C546   H552    1.108   .     S
C547   H548    1.106   .     S
C547   H549    1.111   .     S
C547   H550    1.109   .     S
C553   O585    1.286   .     A
C553   O584    1.286   .     A
C553   C569    1.406   .     S
C554   C555    1.401   .     A
C554   C1384   1.414   .     S
C554   C1408   1.433   .     S
C555   C559    1.413   .     A
C555   C562    1.408   .     A
C556   C560    1.389   .     A
C556   C1382   1.414   1_554 S
C556   C1385   1.424   1_554 S
C557   C558    1.411   .     A
C557   C1384   1.424   .     S
C557   C1404   1.413   .     S
C558   C613    1.517   .     S
C558   C559    1.400   .     A
C559   H637    1.082   .     S
C560   C577    1.387   .     A
C560   H621    1.078   .     S
C561   C577    1.394   .     A
C561   H594    1.083   .     S
C561   C576    1.393   .     A
C562   C578    1.399   .     A
C562   C564    1.461   .     S
C563   C638    1.530   .     S
C563   C569    1.413   .     A
C563   C13     1.407   1_565 S
C564   O587    1.299   .     A
C564   O586    1.299   .     A
C565   C595    1.523   .     S
C565   C566    1.413   .     A
C566   C574    1.409   .     S
C566   C567    1.386   .     A
C567   H602    1.085   .     S
C568   C569    1.390   .     A
C568   H581    1.085   .     S
C568   C15     1.365   1_565 S
C570   C603    1.515   .     S
C570   N583    1.401   .     A
C570   C663    1.419   .     S
C571   H610    1.074   .     S
C571   N582    1.347   .     A
C571   C754    1.419   1_455 S
C572   N582    1.368   .     A
C572   H611    1.081   .     S
C572   C757    1.420   1_455 S
C573   N583    1.369   .     A
C573   H612    1.080   .     S
C573   C664    1.420   .     S
C574   O589    1.287   .     A
C574   O588    1.286   .     A
C575   C577    1.454   .     S
C575   O590    1.299   .     A
C575   O591    1.300   .     A
C576   C1385   1.413   1_554 S
C576   H1448   1.080   1_554 S
C578   C579    1.399   .     A
C578   H622    1.084   .     S
C579   C1408   1.418   .     S
C579   C1458   1.520   .     S
C580   C623    1.533   .     S
C580   C1382   1.433   1_554 S
C580   C1407   1.418   1_554 S
N582   Zn592   2.027   .     S
N583   Zn593   2.027   .     S
O584   Zn592   1.997   .     S
O585   Zn593   1.958   .     S
O586   Zn592   1.948   .     S
O587   Zn593   1.903   .     S
O588   Zn592   1.958   .     S
O589   Zn593   1.997   .     S
O590   Zn592   1.903   .     S
O591   Zn593   1.948   .     S
C595   H600    1.104   .     S
C595   H601    1.109   .     S
C595   C596    1.528   .     S
C596   H597    1.106   .     S
C596   H598    1.111   .     S
C596   H599    1.108   .     S
C603   H608    1.105   .     S
C603   H609    1.106   .     S
C603   C604    1.535   .     S
C604   H607    1.111   .     S
C604   H697    1.108   .     S
C604   H698    1.111   .     S
H605   C788    1.108   1_455 S
H606   C788    1.111   1_455 S
C613   H618    1.107   .     S
C613   H619    1.110   .     S
C613   C614    1.528   .     S
C614   H616    1.111   .     S
C614   H615    1.109   .     S
C614   H617    1.110   .     S
H620   C1404   1.080   .     S
C623   H628    1.107   .     S
C623   H629    1.109   .     S
C623   C624    1.530   .     S
C624   H627    1.107   .     S
C624   H626    1.106   .     S
C624   H625    1.111   .     S
C630   C631    1.529   .     S
C630   H636    1.107   .     S
C630   C1407   1.520   1_554 S
C630   H819    1.110   1_455 S
C631   H632    1.111   .     S
C631   H1461   1.110   1_554 S
C631   H818    1.110   1_455 S
H633   C1459   1.110   .     S
H634   C723    1.110   .     S
H635   C722    1.110   .     S
C638   H643    1.106   .     S
C638   C639    1.527   .     S
C638   H644    1.108   .     S
C639   H640    1.106   .     S
C639   H641    1.111   .     S
C639   H642    1.109   .     S
C645   O677    1.286   .     A
C645   O676    1.286   .     A
C645   C661    1.406   .     S
C646   C647    1.401   .     A
C646   C1476   1.414   .     S
C646   C1500   1.433   .     S
C647   C651    1.413   .     A
C647   C654    1.408   .     A
C648   C652    1.389   .     A
C648   C1474   1.414   1_554 S
C648   C1477   1.424   1_554 S
C649   C650    1.411   .     A
C649   C1476   1.424   .     S
C649   C1496   1.413   .     S
C650   C705    1.517   .     S
C650   C651    1.400   .     A
C651   H729    1.082   .     S
C652   C669    1.387   .     A
C652   H713    1.078   .     S
C653   C669    1.394   .     A
C653   H686    1.083   .     S
C653   C668    1.393   .     A
C654   C670    1.399   .     A
C654   C656    1.461   .     S
C655   C730    1.530   .     S
C655   C661    1.413   .     A
C655   C105    1.407   1_565 S
C656   O679    1.299   .     A
C656   O678    1.299   .     A
C657   C687    1.523   .     S
C657   C658    1.413   .     A
C658   C666    1.409   .     S
C658   C659    1.386   .     A
C659   H694    1.085   .     S
C660   C661    1.390   .     A
C660   H673    1.085   .     S
C660   C107    1.365   1_565 S
C662   C695    1.515   .     S
C662   N675    1.401   .     A
C662   C755    1.419   .     S
C663   H702    1.074   .     S
C663   N674    1.347   .     A
C664   N674    1.368   .     A
C664   H703    1.081   .     S
C665   N675    1.369   .     A
C665   H704    1.080   .     S
C665   C756    1.420   .     S
C666   O681    1.287   .     A
C666   O680    1.286   .     A
C667   C669    1.454   .     S
C667   O682    1.299   .     A
C667   O683    1.300   .     A
C668   C1477   1.413   1_554 S
C668   H1540   1.080   1_554 S
C670   C671    1.399   .     A
C670   H714    1.084   .     S
C671   C1500   1.418   .     S
C671   C1550   1.520   .     S
C672   C715    1.533   .     S
C672   C1474   1.433   1_554 S
C672   C1499   1.418   1_554 S
N674   Zn684   2.027   .     S
N675   Zn685   2.027   .     S
O676   Zn684   1.997   .     S
O677   Zn685   1.958   .     S
O678   Zn684   1.948   .     S
O679   Zn685   1.903   .     S
O680   Zn684   1.958   .     S
O681   Zn685   1.997   .     S
O682   Zn684   1.903   .     S
O683   Zn685   1.948   .     S
C687   H692    1.104   .     S
C687   H693    1.109   .     S
C687   C688    1.528   .     S
C688   H689    1.106   .     S
C688   H690    1.111   .     S
C688   H691    1.108   .     S
C695   H700    1.105   .     S
C695   H701    1.106   .     S
C695   C696    1.535   .     S
C696   H699    1.111   .     S
C696   H789    1.108   .     S
C696   H790    1.111   .     S
C705   H710    1.107   .     S
C705   H711    1.110   .     S
C705   C706    1.528   .     S
C706   H708    1.111   .     S
C706   H707    1.109   .     S
C706   H709    1.110   .     S
H712   C1496   1.080   .     S
C715   H720    1.107   .     S
C715   H721    1.109   .     S
C715   C716    1.530   .     S
C716   H719    1.107   .     S
C716   H718    1.106   .     S
C716   H717    1.111   .     S
C722   C723    1.529   .     S
C722   H728    1.107   .     S
C722   C1499   1.520   1_554 S
C723   H724    1.111   .     S
C723   H1553   1.110   1_554 S
H725   C1551   1.110   .     S
H726   C815    1.110   .     S
H727   C814    1.110   .     S
C730   H735    1.106   .     S
C730   C731    1.527   .     S
C730   H736    1.108   .     S
C731   H732    1.106   .     S
C731   H733    1.111   .     S
C731   H734    1.109   .     S
C737   O769    1.286   .     A
C737   O768    1.286   .     A
C737   C753    1.406   .     S
C738   C739    1.401   .     A
C738   C1568   1.414   .     S
C738   C1592   1.433   .     S
C739   C743    1.413   .     A
C739   C746    1.408   .     A
C740   C744    1.389   .     A
C740   C1566   1.414   1_554 S
C740   C1569   1.424   1_554 S
C741   C742    1.411   .     A
C741   C1568   1.424   .     S
C741   C1588   1.413   .     S
C742   C797    1.517   .     S
C742   C743    1.400   .     A
C743   H821    1.082   .     S
C744   C761    1.387   .     A
C744   H805    1.078   .     S
C745   C761    1.394   .     A
C745   H778    1.083   .     S
C745   C760    1.393   .     A
C746   C762    1.399   .     A
C746   C748    1.461   .     S
C747   C822    1.530   .     S
C747   C753    1.413   .     A
C747   C197    1.407   1_565 S
C748   O771    1.299   .     A
C748   O770    1.299   .     A
C749   C779    1.523   .     S
C749   C750    1.413   .     A
C750   C758    1.409   .     S
C750   C751    1.386   .     A
C751   H786    1.085   .     S
C752   C753    1.390   .     A
C752   H765    1.085   .     S
C752   C199    1.365   1_565 S
C754   C787    1.515   .     S
C754   N767    1.401   .     A
C754   C571    1.419   1_655 S
C755   H794    1.074   .     S
C755   N766    1.347   .     A
C756   N766    1.368   .     A
C756   H795    1.081   .     S
C757   N767    1.369   .     A
C757   H796    1.080   .     S
C757   C572    1.420   1_655 S
C758   O773    1.287   .     A
C758   O772    1.286   .     A
C759   C761    1.454   .     S
C759   O774    1.299   .     A
C759   O775    1.300   .     A
C760   C1569   1.413   1_554 S
C760   H1632   1.080   1_554 S
C762   C763    1.399   .     A
C762   H806    1.084   .     S
C763   C1592   1.418   .     S
C763   C1642   1.520   .     S
C764   C807    1.533   .     S
C764   C1566   1.433   1_554 S
C764   C1591   1.418   1_554 S
N766   Zn776   2.027   .     S
N767   Zn777   2.027   .     S
O768   Zn776   1.997   .     S
O769   Zn777   1.958   .     S
O770   Zn776   1.948   .     S
O771   Zn777   1.903   .     S
O772   Zn776   1.958   .     S
O773   Zn777   1.997   .     S
O774   Zn776   1.903   .     S
O775   Zn777   1.948   .     S
C779   H784    1.104   .     S
C779   H785    1.109   .     S
C779   C780    1.528   .     S
C780   H781    1.106   .     S
C780   H782    1.111   .     S
C780   H783    1.108   .     S
C787   H792    1.105   .     S
C787   H793    1.106   .     S
C787   C788    1.535   .     S
C788   H791    1.111   .     S
C788   H605    1.108   1_655 S
C788   H606    1.111   1_655 S
C797   H802    1.107   .     S
C797   H803    1.110   .     S
C797   C798    1.528   .     S
C798   H800    1.111   .     S
C798   H799    1.109   .     S
C798   H801    1.110   .     S
H804   C1588   1.080   .     S
C807   H812    1.107   .     S
C807   H813    1.109   .     S
C807   C808    1.530   .     S
C808   H811    1.107   .     S
C808   H810    1.106   .     S
C808   H809    1.111   .     S
C814   C815    1.529   .     S
C814   H820    1.107   .     S
C814   C1591   1.520   1_554 S
C815   H816    1.111   .     S
C815   H1645   1.110   1_554 S
H817   C1643   1.110   .     S
H818   C631    1.110   1_655 S
H819   C630    1.110   1_655 S
C822   H827    1.106   .     S
C822   C823    1.527   .     S
C822   H828    1.108   .     S
C823   H824    1.106   .     S
C823   H825    1.111   .     S
C823   H826    1.109   .     S
C829   O861    1.286   .     A
C829   O860    1.286   .     A
C829   C845    1.406   .     S
C830   C831    1.401   .     A
C830   C4      1.414   1_556 S
C830   C28     1.433   1_556 S
C831   C835    1.413   .     A
C831   C838    1.408   .     A
C832   C836    1.389   .     A
C833   C834    1.411   .     A
C833   C4      1.424   1_556 S
C833   C24     1.413   1_556 S
C834   C889    1.517   .     S
C834   C835    1.400   .     A
C835   H913    1.082   .     S
C836   C853    1.387   .     A
C836   H897    1.078   .     S
C837   C853    1.394   .     A
C837   H870    1.083   .     S
C837   C852    1.393   .     A
C838   C854    1.399   .     A
C838   C840    1.461   .     S
C839   C914    1.530   .     S
C839   C845    1.413   .     A
C839   C1117   1.407   .     S
C840   O863    1.299   .     A
C840   O862    1.299   .     A
C841   C871    1.523   .     S
C841   C842    1.413   .     A
C841   C1391   1.407   1_545 S
C842   C850    1.409   .     S
C842   C843    1.386   .     A
C843   H878    1.085   .     S
C843   C1396   1.365   1_545 S
C844   C845    1.390   .     A
C844   H857    1.085   .     S
C844   C1119   1.365   .     S
C846   C879    1.515   .     S
C846   N859    1.401   .     A
C846   C939    1.419   .     S
C847   H886    1.074   .     S
C847   N858    1.347   .     A
C847   C1030   1.419   1_455 S
C848   N858    1.368   .     A
C848   H887    1.081   .     S
C848   C1033   1.420   1_455 S
C849   N859    1.369   .     A
C849   H888    1.080   .     S
C849   C940    1.420   .     S
C850   O865    1.287   .     A
C850   O864    1.286   .     A
C851   C853    1.454   .     S
C851   O866    1.299   .     A
C851   O867    1.300   .     A
C854   C855    1.399   .     A
C854   H898    1.084   .     S
C855   C28     1.418   1_556 S
C855   C78     1.520   1_556 S
C856   C899    1.533   .     S
N858   Zn868   2.027   .     S
N859   Zn869   2.027   .     S
O860   Zn868   1.997   .     S
O861   Zn869   1.958   .     S
O862   Zn868   1.948   .     S
O863   Zn869   1.903   .     S
O864   Zn868   1.958   .     S
O865   Zn869   1.997   .     S
O866   Zn868   1.903   .     S
O867   Zn869   1.948   .     S
C871   H876    1.104   .     S
C871   H877    1.109   .     S
C871   C872    1.528   .     S
C872   H873    1.106   .     S
C872   H874    1.111   .     S
C872   H875    1.108   .     S
C879   H884    1.105   .     S
C879   H885    1.106   .     S
C879   C880    1.535   .     S
C880   H883    1.111   .     S
C880   H973    1.108   .     S
C880   H974    1.111   .     S
H881   C1064   1.108   1_455 S
H882   C1064   1.111   1_455 S
C889   H894    1.107   .     S
C889   H895    1.110   .     S
C889   C890    1.528   .     S
C890   H892    1.111   .     S
C890   H891    1.109   .     S
C890   H893    1.110   .     S
H896   C24     1.080   1_556 S
C899   H904    1.107   .     S
C899   H905    1.109   .     S
C899   C900    1.530   .     S
C900   H903    1.107   .     S
C900   H902    1.106   .     S
C900   H901    1.111   .     S
C906   C907    1.529   .     S
C906   H912    1.107   .     S
C906   H1095   1.110   1_455 S
C907   H908    1.111   .     S
C907   H1094   1.110   1_455 S
H909   C79     1.110   1_556 S
H910   C999    1.110   .     S
H911   C998    1.110   .     S
C914   H919    1.106   .     S
C914   C915    1.527   .     S
C914   H920    1.108   .     S
C915   H916    1.106   .     S
C915   H917    1.111   .     S
C915   H918    1.109   .     S
C921   O953    1.286   .     A
C921   O952    1.286   .     A
C921   C937    1.406   .     S
C922   C923    1.401   .     A
C922   C96     1.414   1_556 S
C922   C120    1.433   1_556 S
C923   C927    1.413   .     A
C923   C930    1.408   .     A
C924   C928    1.389   .     A
C925   C926    1.411   .     A
C925   C96     1.424   1_556 S
C925   C116    1.413   1_556 S
C926   C981    1.517   .     S
C926   C927    1.400   .     A
C927   H1005   1.082   .     S
C928   C945    1.387   .     A
C928   H989    1.078   .     S
C929   C945    1.394   .     A
C929   H962    1.083   .     S
C929   C944    1.393   .     A
C930   C946    1.399   .     A
C930   C932    1.461   .     S
C931   C1006   1.530   .     S
C931   C937    1.413   .     A
C931   C1209   1.407   .     S
C932   O955    1.299   .     A
C932   O954    1.299   .     A
C933   C963    1.523   .     S
C933   C934    1.413   .     A
C933   C1483   1.407   1_545 S
C934   C942    1.409   .     S
C934   C935    1.386   .     A
C935   H970    1.085   .     S
C935   C1488   1.365   1_545 S
C936   C937    1.390   .     A
C936   H949    1.085   .     S
C936   C1211   1.365   .     S
C938   C971    1.515   .     S
C938   N951    1.401   .     A
C938   C1031   1.419   .     S
C939   H978    1.074   .     S
C939   N950    1.347   .     A
C940   N950    1.368   .     A
C940   H979    1.081   .     S
C941   N951    1.369   .     A
C941   H980    1.080   .     S
C941   C1032   1.420   .     S
C942   O957    1.287   .     A
C942   O956    1.286   .     A
C943   C945    1.454   .     S
C943   O958    1.299   .     A
C943   O959    1.300   .     A
C946   C947    1.399   .     A
C946   H990    1.084   .     S
C947   C120    1.418   1_556 S
C947   C170    1.520   1_556 S
C948   C991    1.533   .     S
N950   Zn960   2.027   .     S
N951   Zn961   2.027   .     S
O952   Zn960   1.997   .     S
O953   Zn961   1.958   .     S
O954   Zn960   1.948   .     S
O955   Zn961   1.903   .     S
O956   Zn960   1.958   .     S
O957   Zn961   1.997   .     S
O958   Zn960   1.903   .     S
O959   Zn961   1.948   .     S
C963   H968    1.104   .     S
C963   H969    1.109   .     S
C963   C964    1.528   .     S
C964   H965    1.106   .     S
C964   H966    1.111   .     S
C964   H967    1.108   .     S
C971   H976    1.105   .     S
C971   H977    1.106   .     S
C971   C972    1.535   .     S
C972   H975    1.111   .     S
C972   H1065   1.108   .     S
C972   H1066   1.111   .     S
C981   H986    1.107   .     S
C981   H987    1.110   .     S
C981   C982    1.528   .     S
C982   H984    1.111   .     S
C982   H983    1.109   .     S
C982   H985    1.110   .     S
H988   C116    1.080   1_556 S
C991   H996    1.107   .     S
C991   H997    1.109   .     S
C991   C992    1.530   .     S
C992   H995    1.107   .     S
C992   H994    1.106   .     S
C992   H993    1.111   .     S
C998   C999    1.529   .     S
C998   H1004   1.107   .     S
C999   H1000   1.111   .     S
H1001  C171    1.110   1_556 S
H1002  C1091   1.110   .     S
H1003  C1090   1.110   .     S
C1006  H1011   1.106   .     S
C1006  C1007   1.527   .     S
C1006  H1012   1.108   .     S
C1007  H1008   1.106   .     S
C1007  H1009   1.111   .     S
C1007  H1010   1.109   .     S
C1013  O1045   1.286   .     A
C1013  O1044   1.286   .     A
C1013  C1029   1.406   .     S
C1014  C1015   1.401   .     A
C1014  C188    1.414   1_556 S
C1014  C212    1.433   1_556 S
C1015  C1019   1.413   .     A
C1015  C1022   1.408   .     A
C1016  C1020   1.389   .     A
C1017  C1018   1.411   .     A
C1017  C188    1.424   1_556 S
C1017  C208    1.413   1_556 S
C1018  C1073   1.517   .     S
C1018  C1019   1.400   .     A
C1019  H1097   1.082   .     S
C1020  C1037   1.387   .     A
C1020  H1081   1.078   .     S
C1021  C1037   1.394   .     A
C1021  H1054   1.083   .     S
C1021  C1036   1.393   .     A
C1022  C1038   1.399   .     A
C1022  C1024   1.461   .     S
C1023  C1098   1.530   .     S
C1023  C1029   1.413   .     A
C1023  C1301   1.407   .     S
C1024  O1047   1.299   .     A
C1024  O1046   1.299   .     A
C1025  C1055   1.523   .     S
C1025  C1026   1.413   .     A
C1025  C1575   1.407   1_545 S
C1026  C1034   1.409   .     S
C1026  C1027   1.386   .     A
C1027  H1062   1.085   .     S
C1027  C1580   1.365   1_545 S
C1028  C1029   1.390   .     A
C1028  H1041   1.085   .     S
C1028  C1303   1.365   .     S
C1030  C1063   1.515   .     S
C1030  N1043   1.401   .     A
C1030  C847    1.419   1_655 S
C1031  H1070   1.074   .     S
C1031  N1042   1.347   .     A
C1032  N1042   1.368   .     A
C1032  H1071   1.081   .     S
C1033  N1043   1.369   .     A
C1033  H1072   1.080   .     S
C1033  C848    1.420   1_655 S
C1034  O1049   1.287   .     A
C1034  O1048   1.286   .     A
C1035  C1037   1.454   .     S
C1035  O1050   1.299   .     A
C1035  O1051   1.300   .     A
C1038  C1039   1.399   .     A
C1038  H1082   1.084   .     S
C1039  C212    1.418   1_556 S
C1039  C262    1.520   1_556 S
C1040  C1083   1.533   .     S
N1042  Zn1052  2.027   .     S
N1043  Zn1053  2.027   .     S
O1044  Zn1052  1.997   .     S
O1045  Zn1053  1.958   .     S
O1046  Zn1052  1.948   .     S
O1047  Zn1053  1.903   .     S
O1048  Zn1052  1.958   .     S
O1049  Zn1053  1.997   .     S
O1050  Zn1052  1.903   .     S
O1051  Zn1053  1.948   .     S
C1055  H1060   1.104   .     S
C1055  H1061   1.109   .     S
C1055  C1056   1.528   .     S
C1056  H1057   1.106   .     S
C1056  H1058   1.111   .     S
C1056  H1059   1.108   .     S
C1063  H1068   1.105   .     S
C1063  H1069   1.106   .     S
C1063  C1064   1.535   .     S
C1064  H1067   1.111   .     S
C1064  H881    1.108   1_655 S
C1064  H882    1.111   1_655 S
C1073  H1078   1.107   .     S
C1073  H1079   1.110   .     S
C1073  C1074   1.528   .     S
C1074  H1076   1.111   .     S
C1074  H1075   1.109   .     S
C1074  H1077   1.110   .     S
H1080  C208    1.080   1_556 S
C1083  H1088   1.107   .     S
C1083  H1089   1.109   .     S
C1083  C1084   1.530   .     S
C1084  H1087   1.107   .     S
C1084  H1086   1.106   .     S
C1084  H1085   1.111   .     S
C1090  C1091   1.529   .     S
C1090  H1096   1.107   .     S
C1091  H1092   1.111   .     S
H1093  C263    1.110   1_556 S
H1094  C907    1.110   1_655 S
H1095  C906    1.110   1_655 S
C1098  H1103   1.106   .     S
C1098  C1099   1.527   .     S
C1098  H1104   1.108   .     S
C1099  H1100   1.106   .     S
C1099  H1101   1.111   .     S
C1099  H1102   1.109   .     S
C1105  O1137   1.286   .     A
C1105  O1136   1.286   .     A
C1105  C1121   1.406   .     S
C1106  C1107   1.401   .     A
C1106  C280    1.414   1_556 S
C1106  C304    1.433   1_556 S
C1107  C1111   1.413   .     A
C1107  C1114   1.408   .     A
C1108  C1112   1.389   .     A
C1109  C1110   1.411   .     A
C1109  C280    1.424   1_556 S
C1109  C300    1.413   1_556 S
C1110  C1165   1.517   .     S
C1110  C1111   1.400   .     A
C1111  H1189   1.082   .     S
C1112  C1129   1.387   .     A
C1112  H1173   1.078   .     S
C1113  C1129   1.394   .     A
C1113  H1146   1.083   .     S
C1113  C1128   1.393   .     A
C1114  C1130   1.399   .     A
C1114  C1116   1.461   .     S
C1115  C1190   1.530   .     S
C1115  C1121   1.413   .     A
C1115  C1393   1.407   .     S
C1116  O1139   1.299   .     A
C1116  O1138   1.299   .     A
C1117  C1147   1.523   .     S
C1117  C1118   1.413   .     A
C1118  C1126   1.409   .     S
C1118  C1119   1.386   .     A
C1119  H1154   1.085   .     S
C1120  C1121   1.390   .     A
C1120  H1133   1.085   .     S
C1120  C1395   1.365   .     S
C1122  C1155   1.515   .     S
C1122  N1135   1.401   .     A
C1122  C1215   1.419   .     S
C1123  H1162   1.074   .     S
C1123  N1134   1.347   .     A
C1123  C1306   1.419   1_455 S
C1124  N1134   1.368   .     A
C1124  H1163   1.081   .     S
C1124  C1309   1.420   1_455 S
C1125  N1135   1.369   .     A
C1125  H1164   1.080   .     S
C1125  C1216   1.420   .     S
C1126  O1141   1.287   .     A
C1126  O1140   1.286   .     A
C1127  C1129   1.454   .     S
C1127  O1142   1.299   .     A
C1127  O1143   1.300   .     A
C1130  C1131   1.399   .     A
C1130  H1174   1.084   .     S
C1131  C304    1.418   1_556 S
C1131  C354    1.520   1_556 S
C1132  C1175   1.533   .     S
N1134  Zn1144  2.027   .     S
N1135  Zn1145  2.027   .     S
O1136  Zn1144  1.997   .     S
O1137  Zn1145  1.958   .     S
O1138  Zn1144  1.948   .     S
O1139  Zn1145  1.903   .     S
O1140  Zn1144  1.958   .     S
O1141  Zn1145  1.997   .     S
O1142  Zn1144  1.903   .     S
O1143  Zn1145  1.948   .     S
C1147  H1152   1.104   .     S
C1147  H1153   1.109   .     S
C1147  C1148   1.528   .     S
C1148  H1149   1.106   .     S
C1148  H1150   1.111   .     S
C1148  H1151   1.108   .     S
C1155  H1160   1.105   .     S
C1155  H1161   1.106   .     S
C1155  C1156   1.535   .     S
C1156  H1159   1.111   .     S
C1156  H1249   1.108   .     S
C1156  H1250   1.111   .     S
H1157  C1340   1.108   1_455 S
H1158  C1340   1.111   1_455 S
C1165  H1170   1.107   .     S
C1165  H1171   1.110   .     S
C1165  C1166   1.528   .     S
C1166  H1168   1.111   .     S
C1166  H1167   1.109   .     S
C1166  H1169   1.110   .     S
H1172  C300    1.080   1_556 S
C1175  H1180   1.107   .     S
C1175  H1181   1.109   .     S
C1175  C1176   1.530   .     S
C1176  H1179   1.107   .     S
C1176  H1178   1.106   .     S
C1176  H1177   1.111   .     S
C1182  C1183   1.529   .     S
C1182  H1188   1.107   .     S
C1182  H1371   1.110   1_455 S
C1183  H1184   1.111   .     S
C1183  H1370   1.110   1_455 S
H1185  C355    1.110   1_556 S
H1186  C1275   1.110   .     S
H1187  C1274   1.110   .     S
C1190  H1195   1.106   .     S
C1190  C1191   1.527   .     S
C1190  H1196   1.108   .     S
C1191  H1192   1.106   .     S
C1191  H1193   1.111   .     S
C1191  H1194   1.109   .     S
C1197  O1229   1.286   .     A
C1197  O1228   1.286   .     A
C1197  C1213   1.406   .     S
C1198  C1199   1.401   .     A
C1198  C372    1.414   1_556 S
C1198  C396    1.433   1_556 S
C1199  C1203   1.413   .     A
C1199  C1206   1.408   .     A
C1200  C1204   1.389   .     A
C1201  C1202   1.411   .     A
C1201  C372    1.424   1_556 S
C1201  C392    1.413   1_556 S
C1202  C1257   1.517   .     S
C1202  C1203   1.400   .     A
C1203  H1281   1.082   .     S
C1204  C1221   1.387   .     A
C1204  H1265   1.078   .     S
C1205  C1221   1.394   .     A
C1205  H1238   1.083   .     S
C1205  C1220   1.393   .     A
C1206  C1222   1.399   .     A
C1206  C1208   1.461   .     S
C1207  C1282   1.530   .     S
C1207  C1213   1.413   .     A
C1207  C1485   1.407   .     S
C1208  O1231   1.299   .     A
C1208  O1230   1.299   .     A
C1209  C1239   1.523   .     S
C1209  C1210   1.413   .     A
C1210  C1218   1.409   .     S
C1210  C1211   1.386   .     A
C1211  H1246   1.085   .     S
C1212  C1213   1.390   .     A
C1212  H1225   1.085   .     S
C1212  C1487   1.365   .     S
C1214  C1247   1.515   .     S
C1214  N1227   1.401   .     A
C1214  C1307   1.419   .     S
C1215  H1254   1.074   .     S
C1215  N1226   1.347   .     A
C1216  N1226   1.368   .     A
C1216  H1255   1.081   .     S
C1217  N1227   1.369   .     A
C1217  H1256   1.080   .     S
C1217  C1308   1.420   .     S
C1218  O1233   1.287   .     A
C1218  O1232   1.286   .     A
C1219  C1221   1.454   .     S
C1219  O1234   1.299   .     A
C1219  O1235   1.300   .     A
C1222  C1223   1.399   .     A
C1222  H1266   1.084   .     S
C1223  C396    1.418   1_556 S
C1223  C446    1.520   1_556 S
C1224  C1267   1.533   .     S
N1226  Zn1236  2.027   .     S
N1227  Zn1237  2.027   .     S
O1228  Zn1236  1.997   .     S
O1229  Zn1237  1.958   .     S
O1230  Zn1236  1.948   .     S
O1231  Zn1237  1.903   .     S
O1232  Zn1236  1.958   .     S
O1233  Zn1237  1.997   .     S
O1234  Zn1236  1.903   .     S
O1235  Zn1237  1.948   .     S
C1239  H1244   1.104   .     S
C1239  H1245   1.109   .     S
C1239  C1240   1.528   .     S
C1240  H1241   1.106   .     S
C1240  H1242   1.111   .     S
C1240  H1243   1.108   .     S
C1247  H1252   1.105   .     S
C1247  H1253   1.106   .     S
C1247  C1248   1.535   .     S
C1248  H1251   1.111   .     S
C1248  H1341   1.108   .     S
C1248  H1342   1.111   .     S
C1257  H1262   1.107   .     S
C1257  H1263   1.110   .     S
C1257  C1258   1.528   .     S
C1258  H1260   1.111   .     S
C1258  H1259   1.109   .     S
C1258  H1261   1.110   .     S
H1264  C392    1.080   1_556 S
C1267  H1272   1.107   .     S
C1267  H1273   1.109   .     S
C1267  C1268   1.530   .     S
C1268  H1271   1.107   .     S
C1268  H1270   1.106   .     S
C1268  H1269   1.111   .     S
C1274  C1275   1.529   .     S
C1274  H1280   1.107   .     S
C1275  H1276   1.111   .     S
H1277  C447    1.110   1_556 S
H1278  C1367   1.110   .     S
H1279  C1366   1.110   .     S
C1282  H1287   1.106   .     S
C1282  C1283   1.527   .     S
C1282  H1288   1.108   .     S
C1283  H1284   1.106   .     S
C1283  H1285   1.111   .     S
C1283  H1286   1.109   .     S
C1289  O1321   1.286   .     A
C1289  O1320   1.286   .     A
C1289  C1305   1.406   .     S
C1290  C1291   1.401   .     A
C1290  C464    1.414   1_556 S
C1290  C488    1.433   1_556 S
C1291  C1295   1.413   .     A
C1291  C1298   1.408   .     A
C1292  C1296   1.389   .     A
C1293  C1294   1.411   .     A
C1293  C464    1.424   1_556 S
C1293  C484    1.413   1_556 S
C1294  C1349   1.517   .     S
C1294  C1295   1.400   .     A
C1295  H1373   1.082   .     S
C1296  C1313   1.387   .     A
C1296  H1357   1.078   .     S
C1297  C1313   1.394   .     A
C1297  H1330   1.083   .     S
C1297  C1312   1.393   .     A
C1298  C1314   1.399   .     A
C1298  C1300   1.461   .     S
C1299  C1374   1.530   .     S
C1299  C1305   1.413   .     A
C1299  C1577   1.407   .     S
C1300  O1323   1.299   .     A
C1300  O1322   1.299   .     A
C1301  C1331   1.523   .     S
C1301  C1302   1.413   .     A
C1302  C1310   1.409   .     S
C1302  C1303   1.386   .     A
C1303  H1338   1.085   .     S
C1304  C1305   1.390   .     A
C1304  H1317   1.085   .     S
C1304  C1579   1.365   .     S
C1306  C1339   1.515   .     S
C1306  N1319   1.401   .     A
C1306  C1123   1.419   1_655 S
C1307  H1346   1.074   .     S
C1307  N1318   1.347   .     A
C1308  N1318   1.368   .     A
C1308  H1347   1.081   .     S
C1309  N1319   1.369   .     A
C1309  H1348   1.080   .     S
C1309  C1124   1.420   1_655 S
C1310  O1325   1.287   .     A
C1310  O1324   1.286   .     A
C1311  C1313   1.454   .     S
C1311  O1326   1.299   .     A
C1311  O1327   1.300   .     A
C1314  C1315   1.399   .     A
C1314  H1358   1.084   .     S
C1315  C488    1.418   1_556 S
C1315  C538    1.520   1_556 S
C1316  C1359   1.533   .     S
N1318  Zn1328  2.027   .     S
N1319  Zn1329  2.027   .     S
O1320  Zn1328  1.997   .     S
O1321  Zn1329  1.958   .     S
O1322  Zn1328  1.948   .     S
O1323  Zn1329  1.903   .     S
O1324  Zn1328  1.958   .     S
O1325  Zn1329  1.997   .     S
O1326  Zn1328  1.903   .     S
O1327  Zn1329  1.948   .     S
C1331  H1336   1.104   .     S
C1331  H1337   1.109   .     S
C1331  C1332   1.528   .     S
C1332  H1333   1.106   .     S
C1332  H1334   1.111   .     S
C1332  H1335   1.108   .     S
C1339  H1344   1.105   .     S
C1339  H1345   1.106   .     S
C1339  C1340   1.535   .     S
C1340  H1343   1.111   .     S
C1340  H1157   1.108   1_655 S
C1340  H1158   1.111   1_655 S
C1349  H1354   1.107   .     S
C1349  H1355   1.110   .     S
C1349  C1350   1.528   .     S
C1350  H1352   1.111   .     S
C1350  H1351   1.109   .     S
C1350  H1353   1.110   .     S
H1356  C484    1.080   1_556 S
C1359  H1364   1.107   .     S
C1359  H1365   1.109   .     S
C1359  C1360   1.530   .     S
C1360  H1363   1.107   .     S
C1360  H1362   1.106   .     S
C1360  H1361   1.111   .     S
C1366  C1367   1.529   .     S
C1366  H1372   1.107   .     S
C1367  H1368   1.111   .     S
H1369  C539    1.110   1_556 S
H1370  C1183   1.110   1_655 S
H1371  C1182   1.110   1_655 S
C1374  H1379   1.106   .     S
C1374  C1375   1.527   .     S
C1374  H1380   1.108   .     S
C1375  H1376   1.106   .     S
C1375  H1377   1.111   .     S
C1375  H1378   1.109   .     S
C1381  O1413   1.286   .     A
C1381  O1412   1.286   .     A
C1381  C1397   1.406   .     S
C1382  C1383   1.401   .     A
C1382  C556    1.414   1_556 S
C1382  C580    1.433   1_556 S
C1383  C1387   1.413   .     A
C1383  C1390   1.408   .     A
C1384  C1388   1.389   .     A
C1385  C1386   1.411   .     A
C1385  C556    1.424   1_556 S
C1385  C576    1.413   1_556 S
C1386  C1441   1.517   .     S
C1386  C1387   1.400   .     A
C1387  H1465   1.082   .     S
C1388  C1405   1.387   .     A
C1388  H1449   1.078   .     S
C1389  C1405   1.394   .     A
C1389  H1422   1.083   .     S
C1389  C1404   1.393   .     A
C1390  C1406   1.399   .     A
C1390  C1392   1.461   .     S
C1391  C1466   1.530   .     S
C1391  C1397   1.413   .     A
C1391  C841    1.407   1_565 S
C1392  O1415   1.299   .     A
C1392  O1414   1.299   .     A
C1393  C1423   1.523   .     S
C1393  C1394   1.413   .     A
C1394  C1402   1.409   .     S
C1394  C1395   1.386   .     A
C1395  H1430   1.085   .     S
C1396  C1397   1.390   .     A
C1396  H1409   1.085   .     S
C1396  C843    1.365   1_565 S
C1398  C1431   1.515   .     S
C1398  N1411   1.401   .     A
C1398  C1491   1.419   .     S
C1399  H1438   1.074   .     S
C1399  N1410   1.347   .     A
C1399  C1582   1.419   1_455 S
C1400  N1410   1.368   .     A
C1400  H1439   1.081   .     S
C1400  C1585   1.420   1_455 S
C1401  N1411   1.369   .     A
C1401  H1440   1.080   .     S
C1401  C1492   1.420   .     S
C1402  O1417   1.287   .     A
C1402  O1416   1.286   .     A
C1403  C1405   1.454   .     S
C1403  O1418   1.299   .     A
C1403  O1419   1.300   .     A
C1406  C1407   1.399   .     A
C1406  H1450   1.084   .     S
C1407  C580    1.418   1_556 S
C1407  C630    1.520   1_556 S
C1408  C1451   1.533   .     S
N1410  Zn1420  2.027   .     S
N1411  Zn1421  2.027   .     S
O1412  Zn1420  1.997   .     S
O1413  Zn1421  1.958   .     S
O1414  Zn1420  1.948   .     S
O1415  Zn1421  1.903   .     S
O1416  Zn1420  1.958   .     S
O1417  Zn1421  1.997   .     S
O1418  Zn1420  1.903   .     S
O1419  Zn1421  1.948   .     S
C1423  H1428   1.104   .     S
C1423  H1429   1.109   .     S
C1423  C1424   1.528   .     S
C1424  H1425   1.106   .     S
C1424  H1426   1.111   .     S
C1424  H1427   1.108   .     S
C1431  H1436   1.105   .     S
C1431  H1437   1.106   .     S
C1431  C1432   1.535   .     S
C1432  H1435   1.111   .     S
C1432  H1525   1.108   .     S
C1432  H1526   1.111   .     S
H1433  C1616   1.108   1_455 S
H1434  C1616   1.111   1_455 S
C1441  H1446   1.107   .     S
C1441  H1447   1.110   .     S
C1441  C1442   1.528   .     S
C1442  H1444   1.111   .     S
C1442  H1443   1.109   .     S
C1442  H1445   1.110   .     S
H1448  C576    1.080   1_556 S
C1451  H1456   1.107   .     S
C1451  H1457   1.109   .     S
C1451  C1452   1.530   .     S
C1452  H1455   1.107   .     S
C1452  H1454   1.106   .     S
C1452  H1453   1.111   .     S
C1458  C1459   1.529   .     S
C1458  H1464   1.107   .     S
C1458  H1647   1.110   1_455 S
C1459  H1460   1.111   .     S
C1459  H1646   1.110   1_455 S
H1461  C631    1.110   1_556 S
H1462  C1551   1.110   .     S
H1463  C1550   1.110   .     S
C1466  H1471   1.106   .     S
C1466  C1467   1.527   .     S
C1466  H1472   1.108   .     S
C1467  H1468   1.106   .     S
C1467  H1469   1.111   .     S
C1467  H1470   1.109   .     S
C1473  O1505   1.286   .     A
C1473  O1504   1.286   .     A
C1473  C1489   1.406   .     S
C1474  C1475   1.401   .     A
C1474  C648    1.414   1_556 S
C1474  C672    1.433   1_556 S
C1475  C1479   1.413   .     A
C1475  C1482   1.408   .     A
C1476  C1480   1.389   .     A
C1477  C1478   1.411   .     A
C1477  C648    1.424   1_556 S
C1477  C668    1.413   1_556 S
C1478  C1533   1.517   .     S
C1478  C1479   1.400   .     A
C1479  H1557   1.082   .     S
C1480  C1497   1.387   .     A
C1480  H1541   1.078   .     S
C1481  C1497   1.394   .     A
C1481  H1514   1.083   .     S
C1481  C1496   1.393   .     A
C1482  C1498   1.399   .     A
C1482  C1484   1.461   .     S
C1483  C1558   1.530   .     S
C1483  C1489   1.413   .     A
C1483  C933    1.407   1_565 S
C1484  O1507   1.299   .     A
C1484  O1506   1.299   .     A
C1485  C1515   1.523   .     S
C1485  C1486   1.413   .     A
C1486  C1494   1.409   .     S
C1486  C1487   1.386   .     A
C1487  H1522   1.085   .     S
C1488  C1489   1.390   .     A
C1488  H1501   1.085   .     S
C1488  C935    1.365   1_565 S
C1490  C1523   1.515   .     S
C1490  N1503   1.401   .     A
C1490  C1583   1.419   .     S
C1491  H1530   1.074   .     S
C1491  N1502   1.347   .     A
C1492  N1502   1.368   .     A
C1492  H1531   1.081   .     S
C1493  N1503   1.369   .     A
C1493  H1532   1.080   .     S
C1493  C1584   1.420   .     S
C1494  O1509   1.287   .     A
C1494  O1508   1.286   .     A
C1495  C1497   1.454   .     S
C1495  O1510   1.299   .     A
C1495  O1511   1.300   .     A
C1498  C1499   1.399   .     A
C1498  H1542   1.084   .     S
C1499  C672    1.418   1_556 S
C1499  C722    1.520   1_556 S
C1500  C1543   1.533   .     S
N1502  Zn1512  2.027   .     S
N1503  Zn1513  2.027   .     S
O1504  Zn1512  1.997   .     S
O1505  Zn1513  1.958   .     S
O1506  Zn1512  1.948   .     S
O1507  Zn1513  1.903   .     S
O1508  Zn1512  1.958   .     S
O1509  Zn1513  1.997   .     S
O1510  Zn1512  1.903   .     S
O1511  Zn1513  1.948   .     S
C1515  H1520   1.104   .     S
C1515  H1521   1.109   .     S
C1515  C1516   1.528   .     S
C1516  H1517   1.106   .     S
C1516  H1518   1.111   .     S
C1516  H1519   1.108   .     S
C1523  H1528   1.105   .     S
C1523  H1529   1.106   .     S
C1523  C1524   1.535   .     S
C1524  H1527   1.111   .     S
C1524  H1617   1.108   .     S
C1524  H1618   1.111   .     S
C1533  H1538   1.107   .     S
C1533  H1539   1.110   .     S
C1533  C1534   1.528   .     S
C1534  H1536   1.111   .     S
C1534  H1535   1.109   .     S
C1534  H1537   1.110   .     S
H1540  C668    1.080   1_556 S
C1543  H1548   1.107   .     S
C1543  H1549   1.109   .     S
C1543  C1544   1.530   .     S
C1544  H1547   1.107   .     S
C1544  H1546   1.106   .     S
C1544  H1545   1.111   .     S
C1550  C1551   1.529   .     S
C1550  H1556   1.107   .     S
C1551  H1552   1.111   .     S
H1553  C723    1.110   1_556 S
H1554  C1643   1.110   .     S
H1555  C1642   1.110   .     S
C1558  H1563   1.106   .     S
C1558  C1559   1.527   .     S
C1558  H1564   1.108   .     S
C1559  H1560   1.106   .     S
C1559  H1561   1.111   .     S
C1559  H1562   1.109   .     S
C1565  O1597   1.286   .     A
C1565  O1596   1.286   .     A
C1565  C1581   1.406   .     S
C1566  C1567   1.401   .     A
C1566  C740    1.414   1_556 S
C1566  C764    1.433   1_556 S
C1567  C1571   1.413   .     A
C1567  C1574   1.408   .     A
C1568  C1572   1.389   .     A
C1569  C1570   1.411   .     A
C1569  C740    1.424   1_556 S
C1569  C760    1.413   1_556 S
C1570  C1625   1.517   .     S
C1570  C1571   1.400   .     A
C1571  H1649   1.082   .     S
C1572  C1589   1.387   .     A
C1572  H1633   1.078   .     S
C1573  C1589   1.394   .     A
C1573  H1606   1.083   .     S
C1573  C1588   1.393   .     A
C1574  C1590   1.399   .     A
C1574  C1576   1.461   .     S
C1575  C1650   1.530   .     S
C1575  C1581   1.413   .     A
C1575  C1025   1.407   1_565 S
C1576  O1599   1.299   .     A
C1576  O1598   1.299   .     A
C1577  C1607   1.523   .     S
C1577  C1578   1.413   .     A
C1578  C1586   1.409   .     S
C1578  C1579   1.386   .     A
C1579  H1614   1.085   .     S
C1580  C1581   1.390   .     A
C1580  H1593   1.085   .     S
C1580  C1027   1.365   1_565 S
C1582  C1615   1.515   .     S
C1582  N1595   1.401   .     A
C1582  C1399   1.419   1_655 S
C1583  H1622   1.074   .     S
C1583  N1594   1.347   .     A
C1584  N1594   1.368   .     A
C1584  H1623   1.081   .     S
C1585  N1595   1.369   .     A
C1585  H1624   1.080   .     S
C1585  C1400   1.420   1_655 S
C1586  O1601   1.287   .     A
C1586  O1600   1.286   .     A
C1587  C1589   1.454   .     S
C1587  O1602   1.299   .     A
C1587  O1603   1.300   .     A
C1590  C1591   1.399   .     A
C1590  H1634   1.084   .     S
C1591  C764    1.418   1_556 S
C1591  C814    1.520   1_556 S
C1592  C1635   1.533   .     S
N1594  Zn1604  2.027   .     S
N1595  Zn1605  2.027   .     S
O1596  Zn1604  1.997   .     S
O1597  Zn1605  1.958   .     S
O1598  Zn1604  1.948   .     S
O1599  Zn1605  1.903   .     S
O1600  Zn1604  1.958   .     S
O1601  Zn1605  1.997   .     S
O1602  Zn1604  1.903   .     S
O1603  Zn1605  1.948   .     S
C1607  H1612   1.104   .     S
C1607  H1613   1.109   .     S
C1607  C1608   1.528   .     S
C1608  H1609   1.106   .     S
C1608  H1610   1.111   .     S
C1608  H1611   1.108   .     S
C1615  H1620   1.105   .     S
C1615  H1621   1.106   .     S
C1615  C1616   1.535   .     S
C1616  H1619   1.111   .     S
C1616  H1433   1.108   1_655 S
C1616  H1434   1.111   1_655 S
C1625  H1630   1.107   .     S
C1625  H1631   1.110   .     S
C1625  C1626   1.528   .     S
C1626  H1628   1.111   .     S
C1626  H1627   1.109   .     S
C1626  H1629   1.110   .     S
H1632  C760    1.080   1_556 S
C1635  H1640   1.107   .     S
C1635  H1641   1.109   .     S
C1635  C1636   1.530   .     S
C1636  H1639   1.107   .     S
C1636  H1638   1.106   .     S
C1636  H1637   1.111   .     S
C1642  C1643   1.529   .     S
C1642  H1648   1.107   .     S
C1643  H1644   1.111   .     S
H1645  C815    1.110   1_556 S
H1646  C1459   1.110   1_655 S
H1647  C1458   1.110   1_655 S
C1650  H1655   1.106   .     S
C1650  C1651   1.527   .     S
C1650  H1656   1.108   .     S
C1651  H1652   1.106   .     S
C1651  H1653   1.111   .     S
C1651  H1654   1.109   .     S
