data_str_m3_o1_o16_pcu_sym.217
_audit_creation_date              2020-01-03
_audit_creation_method            'Materials Studio'
_symmetry_space_group_name_H-M    'P1'
_symmetry_Int_Tables_number       1
_symmetry_cell_setting            triclinic
loop_
_symmetry_equiv_pos_as_xyz
  x,y,z
_cell_length_a                    29.7650
_cell_length_b                    32.1436
_cell_length_c                    26.0139
_cell_angle_alpha                 91.1163
_cell_angle_beta                  70.1173
_cell_angle_gamma                 89.2882
loop_
_atom_site_label
_atom_site_type_symbol
_atom_site_fract_x
_atom_site_fract_y
_atom_site_fract_z
_atom_site_U_iso_or_equiv
_atom_site_adp_type
_atom_site_occupancy
C1     C     0.16781   0.24638   0.24464   0.00000  Uiso   1.00
C2     C     0.14080   0.16950   0.49466   0.00000  Uiso   1.00
C3     C     0.14250   0.15111   0.44433   0.00000  Uiso   1.00
C4     C     0.17496   0.15513   0.01762   0.00000  Uiso   1.00
C5     C     0.20376   0.11882   0.49552   0.00000  Uiso   1.00
C6     C     0.19714   0.09624   0.45185   0.00000  Uiso   1.00
C7     C     0.16451   0.11148   0.42829   0.00000  Uiso   1.00
C8     C     0.18308   0.17698   0.06046   0.00000  Uiso   1.00
C9     C     0.23851   0.12400   0.06741   0.00000  Uiso   1.00
C10    C     0.12180   0.17280   0.41143   0.00000  Uiso   1.00
C11    C     0.21443   0.31037   0.21967   0.00000  Uiso   1.00
C12    C     0.13996   0.16708   0.35224   0.00000  Uiso   1.00
C13    C     0.21464   0.02028   0.22494   0.00000  Uiso   1.00
C14    C     0.17077   0.04227   0.23905   0.00000  Uiso   1.00
C15    C     0.12865   0.02216   0.24307   0.00000  Uiso   1.00
C16    C     0.12789   0.31319   0.23863   0.00000  Uiso   1.00
C17    C     0.17002   0.29015   0.23316   0.00000  Uiso   1.00
C18    C     0.31997   0.14188   0.21420   0.00000  Uiso   1.00
C19    C     0.03416   0.14125   0.21447   0.00000  Uiso   1.00
C20    C     0.01228   0.19004   0.28785   0.00000  Uiso   1.00
C21    C     0.29835   0.19037   0.28759   0.00000  Uiso   1.00
C22    C     0.16803   0.08665   0.24661   0.00000  Uiso   1.00
C23    C     0.19326   0.16683   0.14774   0.00000  Uiso   1.00
C24    C     0.23694   0.10493   0.01967   0.00000  Uiso   1.00
C25    C     0.20943   0.15881   0.08924   0.00000  Uiso   1.00
C26    C     0.09160   0.20716   0.43258   0.00000  Uiso   1.00
C27    C     0.08209   0.22102   0.48606   0.00000  Uiso   1.00
C28    C     0.10509   0.20132   0.01872   0.00000  Uiso   1.00
H29    H     0.25938   0.10963   0.08948   0.00000  Uiso   1.00
H30    H     0.09541   0.03934   0.25060   0.00000  Uiso   1.00
H31    H     0.31037   0.12210   0.18559   0.00000  Uiso   1.00
H32    H     0.25953   0.07770   0.00458   0.00000  Uiso   1.00
H33    H     0.16689   0.20711   0.07451   0.00000  Uiso   1.00
H34    H     0.07631   0.22427   0.40678   0.00000  Uiso   1.00
N35    N     0.04760   0.16668   0.25001   0.00000  Uiso   1.00
N36    N     0.28573   0.16665   0.25000   0.00000  Uiso   1.00
O37    O     0.12846   0.22775   0.25000   0.00000  Uiso   1.00
O38    O     0.20490   0.22774   0.25000   0.00000  Uiso   1.00
O39    O     0.10947   0.16666   0.32681   0.00000  Uiso   1.00
O40    O     0.18591   0.16665   0.32681   0.00000  Uiso   1.00
O41    O     0.12843   0.10559   0.24999   0.00000  Uiso   1.00
O42    O     0.20488   0.10558   0.24999   0.00000  Uiso   1.00
O43    O     0.14742   0.16668   0.17319   0.00000  Uiso   1.00
O44    O     0.22387   0.16667   0.17319   0.00000  Uiso   1.00
Zn45   Zn    0.11562   0.16667   0.25000   0.00000  Uiso   1.00
Zn46   Zn    0.21771   0.16666   0.25000   0.00000  Uiso   1.00
O47    O     0.25674   0.04171   0.21495   0.00000  Uiso   1.00
H48    H     0.28408   0.02207   0.20862   0.00000  Uiso   1.00
I49    I     0.06072   0.29078   0.23831   0.00000  Uiso   1.00
I50    I     0.08105   0.09776   0.15875   0.00000  Uiso   1.00
O51    O     0.02097   0.21383   0.32787   0.00000  Uiso   1.00
H52    H     0.05558   0.21596   0.31872   0.00000  Uiso   1.00
O53    O     0.26594   0.21509   0.32708   0.00000  Uiso   1.00
H54    H     0.23850   0.22094   0.31560   0.00000  Uiso   1.00
I55    I     0.23616   0.03929   0.42027   0.00000  Uiso   1.00
I56    I     0.07066   0.21041   0.10533   0.00000  Uiso   1.00
O57    O     0.05053   0.25430   0.00448   0.00000  Uiso   1.00
H58    H     0.05739   0.26880   0.03480   0.00000  Uiso   1.00
I59    I     0.13526   0.06903   0.38428   0.00000  Uiso   1.00
O60    O     0.25763   0.28889   0.20049   0.00000  Uiso   1.00
H61    H     0.25459   0.26613   0.17567   0.00000  Uiso   1.00
C62    C     0.50114   0.24638   0.24464   0.00000  Uiso   1.00
C63    C     0.47413   0.16950   0.49466   0.00000  Uiso   1.00
C64    C     0.47583   0.15111   0.44433   0.00000  Uiso   1.00
C65    C     0.50829   0.15513   0.01762   0.00000  Uiso   1.00
C66    C     0.53709   0.11882   0.49552   0.00000  Uiso   1.00
C67    C     0.53047   0.09624   0.45185   0.00000  Uiso   1.00
C68    C     0.49784   0.11148   0.42829   0.00000  Uiso   1.00
C69    C     0.51641   0.17698   0.06046   0.00000  Uiso   1.00
C70    C     0.57184   0.12400   0.06741   0.00000  Uiso   1.00
C71    C     0.45513   0.17280   0.41143   0.00000  Uiso   1.00
C72    C     0.54777   0.31037   0.21967   0.00000  Uiso   1.00
C73    C     0.47329   0.16708   0.35224   0.00000  Uiso   1.00
C74    C     0.54797   0.02028   0.22494   0.00000  Uiso   1.00
C75    C     0.50411   0.04227   0.23905   0.00000  Uiso   1.00
C76    C     0.46199   0.02216   0.24307   0.00000  Uiso   1.00
C77    C     0.46122   0.31319   0.23863   0.00000  Uiso   1.00
C78    C     0.50335   0.29015   0.23316   0.00000  Uiso   1.00
C79    C     0.65331   0.14188   0.21420   0.00000  Uiso   1.00
C80    C     0.36749   0.14125   0.21447   0.00000  Uiso   1.00
C81    C     0.34561   0.19004   0.28785   0.00000  Uiso   1.00
C82    C     0.63169   0.19037   0.28759   0.00000  Uiso   1.00
C83    C     0.50136   0.08665   0.24661   0.00000  Uiso   1.00
C84    C     0.52660   0.16683   0.14774   0.00000  Uiso   1.00
C85    C     0.57027   0.10493   0.01967   0.00000  Uiso   1.00
C86    C     0.54276   0.15881   0.08924   0.00000  Uiso   1.00
C87    C     0.42493   0.20716   0.43258   0.00000  Uiso   1.00
C88    C     0.41542   0.22102   0.48606   0.00000  Uiso   1.00
C89    C     0.43842   0.20132   0.01872   0.00000  Uiso   1.00
H90    H     0.59271   0.10963   0.08948   0.00000  Uiso   1.00
H91    H     0.42875   0.03934   0.25060   0.00000  Uiso   1.00
H92    H     0.64370   0.12210   0.18559   0.00000  Uiso   1.00
H93    H     0.59286   0.07770   0.00458   0.00000  Uiso   1.00
H94    H     0.50023   0.20711   0.07451   0.00000  Uiso   1.00
H95    H     0.40964   0.22427   0.40678   0.00000  Uiso   1.00
N96    N     0.38093   0.16668   0.25001   0.00000  Uiso   1.00
N97    N     0.61906   0.16665   0.25000   0.00000  Uiso   1.00
O98    O     0.46179   0.22775   0.25000   0.00000  Uiso   1.00
O99    O     0.53823   0.22774   0.25000   0.00000  Uiso   1.00
O100   O     0.44280   0.16666   0.32681   0.00000  Uiso   1.00
O101   O     0.51924   0.16665   0.32681   0.00000  Uiso   1.00
O102   O     0.46177   0.10559   0.24999   0.00000  Uiso   1.00
O103   O     0.53821   0.10558   0.24999   0.00000  Uiso   1.00
O104   O     0.48076   0.16668   0.17319   0.00000  Uiso   1.00
O105   O     0.55720   0.16667   0.17319   0.00000  Uiso   1.00
Zn106  Zn    0.44896   0.16667   0.25000   0.00000  Uiso   1.00
Zn107  Zn    0.55104   0.16666   0.25000   0.00000  Uiso   1.00
O108   O     0.59008   0.04171   0.21495   0.00000  Uiso   1.00
H109   H     0.61741   0.02207   0.20862   0.00000  Uiso   1.00
I110   I     0.39405   0.29078   0.23831   0.00000  Uiso   1.00
I111   I     0.41438   0.09776   0.15875   0.00000  Uiso   1.00
O112   O     0.35430   0.21383   0.32787   0.00000  Uiso   1.00
H113   H     0.38892   0.21596   0.31872   0.00000  Uiso   1.00
O114   O     0.59927   0.21509   0.32708   0.00000  Uiso   1.00
H115   H     0.57183   0.22094   0.31560   0.00000  Uiso   1.00
I116   I     0.56950   0.03929   0.42027   0.00000  Uiso   1.00
I117   I     0.40399   0.21041   0.10533   0.00000  Uiso   1.00
O118   O     0.38386   0.25430   0.00448   0.00000  Uiso   1.00
H119   H     0.39072   0.26880   0.03480   0.00000  Uiso   1.00
I120   I     0.46859   0.06903   0.38428   0.00000  Uiso   1.00
O121   O     0.59096   0.28889   0.20049   0.00000  Uiso   1.00
H122   H     0.58792   0.26613   0.17567   0.00000  Uiso   1.00
C123   C     0.83447   0.24638   0.24464   0.00000  Uiso   1.00
C124   C     0.80747   0.16950   0.49466   0.00000  Uiso   1.00
C125   C     0.80916   0.15111   0.44433   0.00000  Uiso   1.00
C126   C     0.84162   0.15513   0.01762   0.00000  Uiso   1.00
C127   C     0.87042   0.11882   0.49552   0.00000  Uiso   1.00
C128   C     0.86380   0.09624   0.45185   0.00000  Uiso   1.00
C129   C     0.83117   0.11148   0.42829   0.00000  Uiso   1.00
C130   C     0.84974   0.17698   0.06046   0.00000  Uiso   1.00
C131   C     0.90518   0.12400   0.06741   0.00000  Uiso   1.00
C132   C     0.78847   0.17280   0.41143   0.00000  Uiso   1.00
C133   C     0.88110   0.31037   0.21967   0.00000  Uiso   1.00
C134   C     0.80662   0.16708   0.35224   0.00000  Uiso   1.00
C135   C     0.88130   0.02028   0.22494   0.00000  Uiso   1.00
C136   C     0.83744   0.04227   0.23905   0.00000  Uiso   1.00
C137   C     0.79532   0.02216   0.24307   0.00000  Uiso   1.00
C138   C     0.79455   0.31319   0.23863   0.00000  Uiso   1.00
C139   C     0.83668   0.29015   0.23316   0.00000  Uiso   1.00
C140   C     0.98664   0.14188   0.21420   0.00000  Uiso   1.00
C141   C     0.70082   0.14125   0.21447   0.00000  Uiso   1.00
C142   C     0.67895   0.19004   0.28785   0.00000  Uiso   1.00
C143   C     0.96502   0.19037   0.28759   0.00000  Uiso   1.00
C144   C     0.83470   0.08665   0.24661   0.00000  Uiso   1.00
C145   C     0.85993   0.16683   0.14774   0.00000  Uiso   1.00
C146   C     0.90361   0.10493   0.01967   0.00000  Uiso   1.00
C147   C     0.87610   0.15881   0.08924   0.00000  Uiso   1.00
C148   C     0.75827   0.20716   0.43258   0.00000  Uiso   1.00
C149   C     0.74875   0.22102   0.48606   0.00000  Uiso   1.00
C150   C     0.77176   0.20132   0.01872   0.00000  Uiso   1.00
H151   H     0.92605   0.10963   0.08948   0.00000  Uiso   1.00
H152   H     0.76208   0.03934   0.25060   0.00000  Uiso   1.00
H153   H     0.97704   0.12210   0.18559   0.00000  Uiso   1.00
H154   H     0.92620   0.07770   0.00458   0.00000  Uiso   1.00
H155   H     0.83356   0.20711   0.07451   0.00000  Uiso   1.00
H156   H     0.74298   0.22427   0.40678   0.00000  Uiso   1.00
N157   N     0.71426   0.16668   0.25001   0.00000  Uiso   1.00
N158   N     0.95239   0.16665   0.25000   0.00000  Uiso   1.00
O159   O     0.79512   0.22775   0.25000   0.00000  Uiso   1.00
O160   O     0.87157   0.22774   0.25000   0.00000  Uiso   1.00
O161   O     0.77613   0.16666   0.32681   0.00000  Uiso   1.00
O162   O     0.85258   0.16665   0.32681   0.00000  Uiso   1.00
O163   O     0.79510   0.10559   0.24999   0.00000  Uiso   1.00
O164   O     0.87154   0.10558   0.24999   0.00000  Uiso   1.00
O165   O     0.81409   0.16668   0.17319   0.00000  Uiso   1.00
O166   O     0.89053   0.16667   0.17319   0.00000  Uiso   1.00
Zn167  Zn    0.78229   0.16667   0.25000   0.00000  Uiso   1.00
Zn168  Zn    0.88438   0.16666   0.25000   0.00000  Uiso   1.00
O169   O     0.92341   0.04171   0.21495   0.00000  Uiso   1.00
H170   H     0.95074   0.02207   0.20862   0.00000  Uiso   1.00
I171   I     0.72738   0.29078   0.23831   0.00000  Uiso   1.00
I172   I     0.74771   0.09776   0.15875   0.00000  Uiso   1.00
O173   O     0.68763   0.21383   0.32787   0.00000  Uiso   1.00
H174   H     0.72225   0.21596   0.31872   0.00000  Uiso   1.00
O175   O     0.93260   0.21509   0.32708   0.00000  Uiso   1.00
H176   H     0.90516   0.22094   0.31560   0.00000  Uiso   1.00
I177   I     0.90283   0.03929   0.42027   0.00000  Uiso   1.00
I178   I     0.73732   0.21041   0.10533   0.00000  Uiso   1.00
O179   O     0.71720   0.25430   0.00448   0.00000  Uiso   1.00
H180   H     0.72405   0.26880   0.03480   0.00000  Uiso   1.00
I181   I     0.80192   0.06903   0.38428   0.00000  Uiso   1.00
O182   O     0.92429   0.28889   0.20049   0.00000  Uiso   1.00
H183   H     0.92126   0.26613   0.17567   0.00000  Uiso   1.00
C184   C     0.16781   0.57972   0.24464   0.00000  Uiso   1.00
C185   C     0.14080   0.50283   0.49466   0.00000  Uiso   1.00
C186   C     0.14250   0.48444   0.44433   0.00000  Uiso   1.00
C187   C     0.17496   0.48847   0.01762   0.00000  Uiso   1.00
C188   C     0.20376   0.45216   0.49552   0.00000  Uiso   1.00
C189   C     0.19714   0.42958   0.45185   0.00000  Uiso   1.00
C190   C     0.16451   0.44481   0.42829   0.00000  Uiso   1.00
C191   C     0.18308   0.51032   0.06046   0.00000  Uiso   1.00
C192   C     0.23851   0.45734   0.06741   0.00000  Uiso   1.00
C193   C     0.12180   0.50614   0.41143   0.00000  Uiso   1.00
C194   C     0.21443   0.64370   0.21967   0.00000  Uiso   1.00
C195   C     0.13996   0.50041   0.35224   0.00000  Uiso   1.00
C196   C     0.21464   0.35361   0.22494   0.00000  Uiso   1.00
C197   C     0.17077   0.37560   0.23905   0.00000  Uiso   1.00
C198   C     0.12865   0.35550   0.24307   0.00000  Uiso   1.00
C199   C     0.12789   0.64653   0.23863   0.00000  Uiso   1.00
C200   C     0.17002   0.62349   0.23316   0.00000  Uiso   1.00
C201   C     0.31997   0.47521   0.21420   0.00000  Uiso   1.00
C202   C     0.03416   0.47458   0.21447   0.00000  Uiso   1.00
C203   C     0.01228   0.52338   0.28785   0.00000  Uiso   1.00
C204   C     0.29835   0.52370   0.28759   0.00000  Uiso   1.00
C205   C     0.16803   0.41999   0.24661   0.00000  Uiso   1.00
C206   C     0.19326   0.50016   0.14774   0.00000  Uiso   1.00
C207   C     0.23694   0.43826   0.01967   0.00000  Uiso   1.00
C208   C     0.20943   0.49214   0.08924   0.00000  Uiso   1.00
C209   C     0.09160   0.54049   0.43258   0.00000  Uiso   1.00
C210   C     0.08209   0.55435   0.48606   0.00000  Uiso   1.00
C211   C     0.10509   0.53465   0.01872   0.00000  Uiso   1.00
H212   H     0.25938   0.44297   0.08948   0.00000  Uiso   1.00
H213   H     0.09541   0.37267   0.25060   0.00000  Uiso   1.00
H214   H     0.31037   0.45543   0.18559   0.00000  Uiso   1.00
H215   H     0.25953   0.41103   0.00458   0.00000  Uiso   1.00
H216   H     0.16689   0.54044   0.07451   0.00000  Uiso   1.00
H217   H     0.07631   0.55760   0.40678   0.00000  Uiso   1.00
N218   N     0.04760   0.50001   0.25001   0.00000  Uiso   1.00
N219   N     0.28573   0.49998   0.25000   0.00000  Uiso   1.00
O220   O     0.12846   0.56108   0.25000   0.00000  Uiso   1.00
O221   O     0.20490   0.56107   0.25000   0.00000  Uiso   1.00
O222   O     0.10947   0.50000   0.32681   0.00000  Uiso   1.00
O223   O     0.18591   0.49999   0.32681   0.00000  Uiso   1.00
O224   O     0.12843   0.43893   0.24999   0.00000  Uiso   1.00
O225   O     0.20488   0.43892   0.24999   0.00000  Uiso   1.00
O226   O     0.14742   0.50001   0.17319   0.00000  Uiso   1.00
O227   O     0.22387   0.50000   0.17319   0.00000  Uiso   1.00
Zn228  Zn    0.11562   0.50001   0.25000   0.00000  Uiso   1.00
Zn229  Zn    0.21771   0.49999   0.25000   0.00000  Uiso   1.00
O230   O     0.25674   0.37504   0.21495   0.00000  Uiso   1.00
H231   H     0.28408   0.35540   0.20862   0.00000  Uiso   1.00
I232   I     0.06072   0.62411   0.23831   0.00000  Uiso   1.00
I233   I     0.08105   0.43109   0.15875   0.00000  Uiso   1.00
O234   O     0.02097   0.54717   0.32787   0.00000  Uiso   1.00
H235   H     0.05558   0.54929   0.31872   0.00000  Uiso   1.00
O236   O     0.26594   0.54843   0.32708   0.00000  Uiso   1.00
H237   H     0.23850   0.55427   0.31560   0.00000  Uiso   1.00
I238   I     0.23616   0.37263   0.42027   0.00000  Uiso   1.00
I239   I     0.07066   0.54374   0.10533   0.00000  Uiso   1.00
O240   O     0.05053   0.58763   0.00448   0.00000  Uiso   1.00
H241   H     0.05739   0.60213   0.03480   0.00000  Uiso   1.00
I242   I     0.13526   0.40237   0.38428   0.00000  Uiso   1.00
O243   O     0.25763   0.62223   0.20049   0.00000  Uiso   1.00
H244   H     0.25459   0.59947   0.17567   0.00000  Uiso   1.00
C245   C     0.50114   0.57972   0.24464   0.00000  Uiso   1.00
C246   C     0.47413   0.50283   0.49466   0.00000  Uiso   1.00
C247   C     0.47583   0.48444   0.44433   0.00000  Uiso   1.00
C248   C     0.50829   0.48847   0.01762   0.00000  Uiso   1.00
C249   C     0.53709   0.45216   0.49552   0.00000  Uiso   1.00
C250   C     0.53047   0.42958   0.45185   0.00000  Uiso   1.00
C251   C     0.49784   0.44481   0.42829   0.00000  Uiso   1.00
C252   C     0.51641   0.51032   0.06046   0.00000  Uiso   1.00
C253   C     0.57184   0.45734   0.06741   0.00000  Uiso   1.00
C254   C     0.45513   0.50614   0.41143   0.00000  Uiso   1.00
C255   C     0.54777   0.64370   0.21967   0.00000  Uiso   1.00
C256   C     0.47329   0.50041   0.35224   0.00000  Uiso   1.00
C257   C     0.54797   0.35361   0.22494   0.00000  Uiso   1.00
C258   C     0.50411   0.37560   0.23905   0.00000  Uiso   1.00
C259   C     0.46199   0.35550   0.24307   0.00000  Uiso   1.00
C260   C     0.46122   0.64653   0.23863   0.00000  Uiso   1.00
C261   C     0.50335   0.62349   0.23316   0.00000  Uiso   1.00
C262   C     0.65331   0.47521   0.21420   0.00000  Uiso   1.00
C263   C     0.36749   0.47458   0.21447   0.00000  Uiso   1.00
C264   C     0.34561   0.52338   0.28785   0.00000  Uiso   1.00
C265   C     0.63169   0.52370   0.28759   0.00000  Uiso   1.00
C266   C     0.50136   0.41999   0.24661   0.00000  Uiso   1.00
C267   C     0.52660   0.50016   0.14774   0.00000  Uiso   1.00
C268   C     0.57027   0.43826   0.01967   0.00000  Uiso   1.00
C269   C     0.54276   0.49214   0.08924   0.00000  Uiso   1.00
C270   C     0.42493   0.54049   0.43258   0.00000  Uiso   1.00
C271   C     0.41542   0.55435   0.48606   0.00000  Uiso   1.00
C272   C     0.43842   0.53465   0.01872   0.00000  Uiso   1.00
H273   H     0.59271   0.44297   0.08948   0.00000  Uiso   1.00
H274   H     0.42875   0.37267   0.25060   0.00000  Uiso   1.00
H275   H     0.64370   0.45543   0.18559   0.00000  Uiso   1.00
H276   H     0.59286   0.41103   0.00458   0.00000  Uiso   1.00
H277   H     0.50023   0.54044   0.07451   0.00000  Uiso   1.00
H278   H     0.40964   0.55760   0.40678   0.00000  Uiso   1.00
N279   N     0.38093   0.50001   0.25001   0.00000  Uiso   1.00
N280   N     0.61906   0.49998   0.25000   0.00000  Uiso   1.00
O281   O     0.46179   0.56108   0.25000   0.00000  Uiso   1.00
O282   O     0.53823   0.56107   0.25000   0.00000  Uiso   1.00
O283   O     0.44280   0.50000   0.32681   0.00000  Uiso   1.00
O284   O     0.51924   0.49999   0.32681   0.00000  Uiso   1.00
O285   O     0.46177   0.43893   0.24999   0.00000  Uiso   1.00
O286   O     0.53821   0.43892   0.24999   0.00000  Uiso   1.00
O287   O     0.48076   0.50001   0.17319   0.00000  Uiso   1.00
O288   O     0.55720   0.50000   0.17319   0.00000  Uiso   1.00
Zn289  Zn    0.44896   0.50001   0.25000   0.00000  Uiso   1.00
Zn290  Zn    0.55104   0.49999   0.25000   0.00000  Uiso   1.00
O291   O     0.59008   0.37504   0.21495   0.00000  Uiso   1.00
H292   H     0.61741   0.35540   0.20862   0.00000  Uiso   1.00
I293   I     0.39405   0.62411   0.23831   0.00000  Uiso   1.00
I294   I     0.41438   0.43109   0.15875   0.00000  Uiso   1.00
O295   O     0.35430   0.54717   0.32787   0.00000  Uiso   1.00
H296   H     0.38892   0.54929   0.31872   0.00000  Uiso   1.00
O297   O     0.59927   0.54843   0.32708   0.00000  Uiso   1.00
H298   H     0.57183   0.55427   0.31560   0.00000  Uiso   1.00
I299   I     0.56950   0.37263   0.42027   0.00000  Uiso   1.00
I300   I     0.40399   0.54374   0.10533   0.00000  Uiso   1.00
O301   O     0.38386   0.58763   0.00448   0.00000  Uiso   1.00
H302   H     0.39072   0.60213   0.03480   0.00000  Uiso   1.00
I303   I     0.46859   0.40237   0.38428   0.00000  Uiso   1.00
O304   O     0.59096   0.62223   0.20049   0.00000  Uiso   1.00
H305   H     0.58792   0.59947   0.17567   0.00000  Uiso   1.00
C306   C     0.83447   0.57972   0.24464   0.00000  Uiso   1.00
C307   C     0.80747   0.50283   0.49466   0.00000  Uiso   1.00
C308   C     0.80916   0.48444   0.44433   0.00000  Uiso   1.00
C309   C     0.84162   0.48847   0.01762   0.00000  Uiso   1.00
C310   C     0.87042   0.45216   0.49552   0.00000  Uiso   1.00
C311   C     0.86380   0.42958   0.45185   0.00000  Uiso   1.00
C312   C     0.83117   0.44481   0.42829   0.00000  Uiso   1.00
C313   C     0.84974   0.51032   0.06046   0.00000  Uiso   1.00
C314   C     0.90518   0.45734   0.06741   0.00000  Uiso   1.00
C315   C     0.78847   0.50614   0.41143   0.00000  Uiso   1.00
C316   C     0.88110   0.64370   0.21967   0.00000  Uiso   1.00
C317   C     0.80662   0.50041   0.35224   0.00000  Uiso   1.00
C318   C     0.88130   0.35361   0.22494   0.00000  Uiso   1.00
C319   C     0.83744   0.37560   0.23905   0.00000  Uiso   1.00
C320   C     0.79532   0.35550   0.24307   0.00000  Uiso   1.00
C321   C     0.79455   0.64653   0.23863   0.00000  Uiso   1.00
C322   C     0.83668   0.62349   0.23316   0.00000  Uiso   1.00
C323   C     0.98664   0.47521   0.21420   0.00000  Uiso   1.00
C324   C     0.70082   0.47458   0.21447   0.00000  Uiso   1.00
C325   C     0.67895   0.52338   0.28785   0.00000  Uiso   1.00
C326   C     0.96502   0.52370   0.28759   0.00000  Uiso   1.00
C327   C     0.83470   0.41999   0.24661   0.00000  Uiso   1.00
C328   C     0.85993   0.50016   0.14774   0.00000  Uiso   1.00
C329   C     0.90361   0.43826   0.01967   0.00000  Uiso   1.00
C330   C     0.87610   0.49214   0.08924   0.00000  Uiso   1.00
C331   C     0.75827   0.54049   0.43258   0.00000  Uiso   1.00
C332   C     0.74875   0.55435   0.48606   0.00000  Uiso   1.00
C333   C     0.77176   0.53465   0.01872   0.00000  Uiso   1.00
H334   H     0.92605   0.44297   0.08948   0.00000  Uiso   1.00
H335   H     0.76208   0.37267   0.25060   0.00000  Uiso   1.00
H336   H     0.97704   0.45543   0.18559   0.00000  Uiso   1.00
H337   H     0.92620   0.41103   0.00458   0.00000  Uiso   1.00
H338   H     0.83356   0.54044   0.07451   0.00000  Uiso   1.00
H339   H     0.74298   0.55760   0.40678   0.00000  Uiso   1.00
N340   N     0.71426   0.50001   0.25001   0.00000  Uiso   1.00
N341   N     0.95239   0.49998   0.25000   0.00000  Uiso   1.00
O342   O     0.79512   0.56108   0.25000   0.00000  Uiso   1.00
O343   O     0.87157   0.56107   0.25000   0.00000  Uiso   1.00
O344   O     0.77613   0.50000   0.32681   0.00000  Uiso   1.00
O345   O     0.85258   0.49999   0.32681   0.00000  Uiso   1.00
O346   O     0.79510   0.43893   0.24999   0.00000  Uiso   1.00
O347   O     0.87154   0.43892   0.24999   0.00000  Uiso   1.00
O348   O     0.81409   0.50001   0.17319   0.00000  Uiso   1.00
O349   O     0.89053   0.50000   0.17319   0.00000  Uiso   1.00
Zn350  Zn    0.78229   0.50001   0.25000   0.00000  Uiso   1.00
Zn351  Zn    0.88438   0.49999   0.25000   0.00000  Uiso   1.00
O352   O     0.92341   0.37504   0.21495   0.00000  Uiso   1.00
H353   H     0.95074   0.35540   0.20862   0.00000  Uiso   1.00
I354   I     0.72738   0.62411   0.23831   0.00000  Uiso   1.00
I355   I     0.74771   0.43109   0.15875   0.00000  Uiso   1.00
O356   O     0.68763   0.54717   0.32787   0.00000  Uiso   1.00
H357   H     0.72225   0.54929   0.31872   0.00000  Uiso   1.00
O358   O     0.93260   0.54843   0.32708   0.00000  Uiso   1.00
H359   H     0.90516   0.55427   0.31560   0.00000  Uiso   1.00
I360   I     0.90283   0.37263   0.42027   0.00000  Uiso   1.00
I361   I     0.73732   0.54374   0.10533   0.00000  Uiso   1.00
O362   O     0.71720   0.58763   0.00448   0.00000  Uiso   1.00
H363   H     0.72405   0.60213   0.03480   0.00000  Uiso   1.00
I364   I     0.80192   0.40237   0.38428   0.00000  Uiso   1.00
O365   O     0.92429   0.62223   0.20049   0.00000  Uiso   1.00
H366   H     0.92126   0.59947   0.17567   0.00000  Uiso   1.00
C367   C     0.16781   0.91305   0.24464   0.00000  Uiso   1.00
C368   C     0.14080   0.83617   0.49466   0.00000  Uiso   1.00
C369   C     0.14250   0.81777   0.44433   0.00000  Uiso   1.00
C370   C     0.17496   0.82180   0.01762   0.00000  Uiso   1.00
C371   C     0.20376   0.78549   0.49552   0.00000  Uiso   1.00
C372   C     0.19714   0.76291   0.45185   0.00000  Uiso   1.00
C373   C     0.16451   0.77814   0.42829   0.00000  Uiso   1.00
C374   C     0.18308   0.84365   0.06046   0.00000  Uiso   1.00
C375   C     0.23851   0.79067   0.06741   0.00000  Uiso   1.00
C376   C     0.12180   0.83947   0.41143   0.00000  Uiso   1.00
C377   C     0.21443   0.97704   0.21967   0.00000  Uiso   1.00
C378   C     0.13996   0.83375   0.35224   0.00000  Uiso   1.00
C379   C     0.21464   0.68695   0.22494   0.00000  Uiso   1.00
C380   C     0.17077   0.70894   0.23905   0.00000  Uiso   1.00
C381   C     0.12865   0.68883   0.24307   0.00000  Uiso   1.00
C382   C     0.12789   0.97986   0.23863   0.00000  Uiso   1.00
C383   C     0.17002   0.95682   0.23316   0.00000  Uiso   1.00
C384   C     0.31997   0.80854   0.21420   0.00000  Uiso   1.00
C385   C     0.03416   0.80791   0.21447   0.00000  Uiso   1.00
C386   C     0.01228   0.85671   0.28785   0.00000  Uiso   1.00
C387   C     0.29835   0.85703   0.28759   0.00000  Uiso   1.00
C388   C     0.16803   0.75332   0.24661   0.00000  Uiso   1.00
C389   C     0.19326   0.83349   0.14774   0.00000  Uiso   1.00
C390   C     0.23694   0.77159   0.01967   0.00000  Uiso   1.00
C391   C     0.20943   0.82547   0.08924   0.00000  Uiso   1.00
C392   C     0.09160   0.87382   0.43258   0.00000  Uiso   1.00
C393   C     0.08209   0.88769   0.48606   0.00000  Uiso   1.00
C394   C     0.10509   0.86798   0.01872   0.00000  Uiso   1.00
H395   H     0.25938   0.77630   0.08948   0.00000  Uiso   1.00
H396   H     0.09541   0.70601   0.25060   0.00000  Uiso   1.00
H397   H     0.31037   0.78876   0.18559   0.00000  Uiso   1.00
H398   H     0.25953   0.74437   0.00458   0.00000  Uiso   1.00
H399   H     0.16689   0.87378   0.07451   0.00000  Uiso   1.00
H400   H     0.07631   0.89093   0.40678   0.00000  Uiso   1.00
N401   N     0.04760   0.83334   0.25001   0.00000  Uiso   1.00
N402   N     0.28573   0.83331   0.25000   0.00000  Uiso   1.00
O403   O     0.12846   0.89442   0.25000   0.00000  Uiso   1.00
O404   O     0.20490   0.89441   0.25000   0.00000  Uiso   1.00
O405   O     0.10947   0.83333   0.32681   0.00000  Uiso   1.00
O406   O     0.18591   0.83332   0.32681   0.00000  Uiso   1.00
O407   O     0.12843   0.77226   0.24999   0.00000  Uiso   1.00
O408   O     0.20488   0.77225   0.24999   0.00000  Uiso   1.00
O409   O     0.14742   0.83335   0.17319   0.00000  Uiso   1.00
O410   O     0.22387   0.83334   0.17319   0.00000  Uiso   1.00
Zn411  Zn    0.11562   0.83334   0.25000   0.00000  Uiso   1.00
Zn412  Zn    0.21771   0.83333   0.25000   0.00000  Uiso   1.00
O413   O     0.25674   0.70837   0.21495   0.00000  Uiso   1.00
H414   H     0.28408   0.68874   0.20862   0.00000  Uiso   1.00
I415   I     0.06072   0.95745   0.23831   0.00000  Uiso   1.00
I416   I     0.08105   0.76442   0.15875   0.00000  Uiso   1.00
O417   O     0.02097   0.88050   0.32787   0.00000  Uiso   1.00
H418   H     0.05558   0.88263   0.31872   0.00000  Uiso   1.00
O419   O     0.26594   0.88176   0.32708   0.00000  Uiso   1.00
H420   H     0.23850   0.88760   0.31560   0.00000  Uiso   1.00
I421   I     0.23616   0.70596   0.42027   0.00000  Uiso   1.00
I422   I     0.07066   0.87708   0.10533   0.00000  Uiso   1.00
O423   O     0.05053   0.92097   0.00448   0.00000  Uiso   1.00
H424   H     0.05739   0.93546   0.03480   0.00000  Uiso   1.00
I425   I     0.13526   0.73570   0.38428   0.00000  Uiso   1.00
O426   O     0.25763   0.95556   0.20049   0.00000  Uiso   1.00
H427   H     0.25459   0.93280   0.17567   0.00000  Uiso   1.00
C428   C     0.50114   0.91305   0.24464   0.00000  Uiso   1.00
C429   C     0.47413   0.83617   0.49466   0.00000  Uiso   1.00
C430   C     0.47583   0.81777   0.44433   0.00000  Uiso   1.00
C431   C     0.50829   0.82180   0.01762   0.00000  Uiso   1.00
C432   C     0.53709   0.78549   0.49552   0.00000  Uiso   1.00
C433   C     0.53047   0.76291   0.45185   0.00000  Uiso   1.00
C434   C     0.49784   0.77814   0.42829   0.00000  Uiso   1.00
C435   C     0.51641   0.84365   0.06046   0.00000  Uiso   1.00
C436   C     0.57184   0.79067   0.06741   0.00000  Uiso   1.00
C437   C     0.45513   0.83947   0.41143   0.00000  Uiso   1.00
C438   C     0.54777   0.97704   0.21967   0.00000  Uiso   1.00
C439   C     0.47329   0.83375   0.35224   0.00000  Uiso   1.00
C440   C     0.54797   0.68695   0.22494   0.00000  Uiso   1.00
C441   C     0.50411   0.70894   0.23905   0.00000  Uiso   1.00
C442   C     0.46199   0.68883   0.24307   0.00000  Uiso   1.00
C443   C     0.46122   0.97986   0.23863   0.00000  Uiso   1.00
C444   C     0.50335   0.95682   0.23316   0.00000  Uiso   1.00
C445   C     0.65331   0.80854   0.21420   0.00000  Uiso   1.00
C446   C     0.36749   0.80791   0.21447   0.00000  Uiso   1.00
C447   C     0.34561   0.85671   0.28785   0.00000  Uiso   1.00
C448   C     0.63169   0.85703   0.28759   0.00000  Uiso   1.00
C449   C     0.50136   0.75332   0.24661   0.00000  Uiso   1.00
C450   C     0.52660   0.83349   0.14774   0.00000  Uiso   1.00
C451   C     0.57027   0.77159   0.01967   0.00000  Uiso   1.00
C452   C     0.54276   0.82547   0.08924   0.00000  Uiso   1.00
C453   C     0.42493   0.87382   0.43258   0.00000  Uiso   1.00
C454   C     0.41542   0.88769   0.48606   0.00000  Uiso   1.00
C455   C     0.43842   0.86798   0.01872   0.00000  Uiso   1.00
H456   H     0.59271   0.77630   0.08948   0.00000  Uiso   1.00
H457   H     0.42875   0.70601   0.25060   0.00000  Uiso   1.00
H458   H     0.64370   0.78876   0.18559   0.00000  Uiso   1.00
H459   H     0.59286   0.74437   0.00458   0.00000  Uiso   1.00
H460   H     0.50023   0.87378   0.07451   0.00000  Uiso   1.00
H461   H     0.40964   0.89093   0.40678   0.00000  Uiso   1.00
N462   N     0.38093   0.83334   0.25001   0.00000  Uiso   1.00
N463   N     0.61906   0.83331   0.25000   0.00000  Uiso   1.00
O464   O     0.46179   0.89442   0.25000   0.00000  Uiso   1.00
O465   O     0.53823   0.89441   0.25000   0.00000  Uiso   1.00
O466   O     0.44280   0.83333   0.32681   0.00000  Uiso   1.00
O467   O     0.51924   0.83332   0.32681   0.00000  Uiso   1.00
O468   O     0.46177   0.77226   0.24999   0.00000  Uiso   1.00
O469   O     0.53821   0.77225   0.24999   0.00000  Uiso   1.00
O470   O     0.48076   0.83335   0.17319   0.00000  Uiso   1.00
O471   O     0.55720   0.83334   0.17319   0.00000  Uiso   1.00
Zn472  Zn    0.44896   0.83334   0.25000   0.00000  Uiso   1.00
Zn473  Zn    0.55104   0.83333   0.25000   0.00000  Uiso   1.00
O474   O     0.59008   0.70837   0.21495   0.00000  Uiso   1.00
H475   H     0.61741   0.68874   0.20862   0.00000  Uiso   1.00
I476   I     0.39405   0.95745   0.23831   0.00000  Uiso   1.00
I477   I     0.41438   0.76442   0.15875   0.00000  Uiso   1.00
O478   O     0.35430   0.88050   0.32787   0.00000  Uiso   1.00
H479   H     0.38892   0.88263   0.31872   0.00000  Uiso   1.00
O480   O     0.59927   0.88176   0.32708   0.00000  Uiso   1.00
H481   H     0.57183   0.88760   0.31560   0.00000  Uiso   1.00
I482   I     0.56950   0.70596   0.42027   0.00000  Uiso   1.00
I483   I     0.40399   0.87708   0.10533   0.00000  Uiso   1.00
O484   O     0.38386   0.92097   0.00448   0.00000  Uiso   1.00
H485   H     0.39072   0.93546   0.03480   0.00000  Uiso   1.00
I486   I     0.46859   0.73570   0.38428   0.00000  Uiso   1.00
O487   O     0.59096   0.95556   0.20049   0.00000  Uiso   1.00
H488   H     0.58792   0.93280   0.17567   0.00000  Uiso   1.00
C489   C     0.83447   0.91305   0.24464   0.00000  Uiso   1.00
C490   C     0.80747   0.83617   0.49466   0.00000  Uiso   1.00
C491   C     0.80916   0.81777   0.44433   0.00000  Uiso   1.00
C492   C     0.84162   0.82180   0.01762   0.00000  Uiso   1.00
C493   C     0.87042   0.78549   0.49552   0.00000  Uiso   1.00
C494   C     0.86380   0.76291   0.45185   0.00000  Uiso   1.00
C495   C     0.83117   0.77814   0.42829   0.00000  Uiso   1.00
C496   C     0.84974   0.84365   0.06046   0.00000  Uiso   1.00
C497   C     0.90518   0.79067   0.06741   0.00000  Uiso   1.00
C498   C     0.78847   0.83947   0.41143   0.00000  Uiso   1.00
C499   C     0.88110   0.97704   0.21967   0.00000  Uiso   1.00
C500   C     0.80662   0.83375   0.35224   0.00000  Uiso   1.00
C501   C     0.88130   0.68695   0.22494   0.00000  Uiso   1.00
C502   C     0.83744   0.70894   0.23905   0.00000  Uiso   1.00
C503   C     0.79532   0.68883   0.24307   0.00000  Uiso   1.00
C504   C     0.79455   0.97986   0.23863   0.00000  Uiso   1.00
C505   C     0.83668   0.95682   0.23316   0.00000  Uiso   1.00
C506   C     0.98664   0.80854   0.21420   0.00000  Uiso   1.00
C507   C     0.70082   0.80791   0.21447   0.00000  Uiso   1.00
C508   C     0.67895   0.85671   0.28785   0.00000  Uiso   1.00
C509   C     0.96502   0.85703   0.28759   0.00000  Uiso   1.00
C510   C     0.83470   0.75332   0.24661   0.00000  Uiso   1.00
C511   C     0.85993   0.83349   0.14774   0.00000  Uiso   1.00
C512   C     0.90361   0.77159   0.01967   0.00000  Uiso   1.00
C513   C     0.87610   0.82547   0.08924   0.00000  Uiso   1.00
C514   C     0.75827   0.87382   0.43258   0.00000  Uiso   1.00
C515   C     0.74875   0.88769   0.48606   0.00000  Uiso   1.00
C516   C     0.77176   0.86798   0.01872   0.00000  Uiso   1.00
H517   H     0.92605   0.77630   0.08948   0.00000  Uiso   1.00
H518   H     0.76208   0.70601   0.25060   0.00000  Uiso   1.00
H519   H     0.97704   0.78876   0.18559   0.00000  Uiso   1.00
H520   H     0.92620   0.74437   0.00458   0.00000  Uiso   1.00
H521   H     0.83356   0.87378   0.07451   0.00000  Uiso   1.00
H522   H     0.74298   0.89093   0.40678   0.00000  Uiso   1.00
N523   N     0.71426   0.83334   0.25001   0.00000  Uiso   1.00
N524   N     0.95239   0.83331   0.25000   0.00000  Uiso   1.00
O525   O     0.79512   0.89442   0.25000   0.00000  Uiso   1.00
O526   O     0.87157   0.89441   0.25000   0.00000  Uiso   1.00
O527   O     0.77613   0.83333   0.32681   0.00000  Uiso   1.00
O528   O     0.85258   0.83332   0.32681   0.00000  Uiso   1.00
O529   O     0.79510   0.77226   0.24999   0.00000  Uiso   1.00
O530   O     0.87154   0.77225   0.24999   0.00000  Uiso   1.00
O531   O     0.81409   0.83335   0.17319   0.00000  Uiso   1.00
O532   O     0.89053   0.83334   0.17319   0.00000  Uiso   1.00
Zn533  Zn    0.78229   0.83334   0.25000   0.00000  Uiso   1.00
Zn534  Zn    0.88438   0.83333   0.25000   0.00000  Uiso   1.00
O535   O     0.92341   0.70837   0.21495   0.00000  Uiso   1.00
H536   H     0.95074   0.68874   0.20862   0.00000  Uiso   1.00
I537   I     0.72738   0.95745   0.23831   0.00000  Uiso   1.00
I538   I     0.74771   0.76442   0.15875   0.00000  Uiso   1.00
O539   O     0.68763   0.88050   0.32787   0.00000  Uiso   1.00
H540   H     0.72225   0.88263   0.31872   0.00000  Uiso   1.00
O541   O     0.93260   0.88176   0.32708   0.00000  Uiso   1.00
H542   H     0.90516   0.88760   0.31560   0.00000  Uiso   1.00
I543   I     0.90283   0.70596   0.42027   0.00000  Uiso   1.00
I544   I     0.73732   0.87708   0.10533   0.00000  Uiso   1.00
O545   O     0.71720   0.92097   0.00448   0.00000  Uiso   1.00
H546   H     0.72405   0.93546   0.03480   0.00000  Uiso   1.00
I547   I     0.80192   0.73570   0.38428   0.00000  Uiso   1.00
O548   O     0.92429   0.95556   0.20049   0.00000  Uiso   1.00
H549   H     0.92126   0.93280   0.17567   0.00000  Uiso   1.00
C550   C     0.16781   0.24638   0.74464   0.00000  Uiso   1.00
C551   C     0.14080   0.16950   0.99466   0.00000  Uiso   1.00
C552   C     0.14250   0.15111   0.94433   0.00000  Uiso   1.00
C553   C     0.17496   0.15513   0.51762   0.00000  Uiso   1.00
C554   C     0.20376   0.11882   0.99552   0.00000  Uiso   1.00
C555   C     0.19714   0.09624   0.95185   0.00000  Uiso   1.00
C556   C     0.16451   0.11148   0.92829   0.00000  Uiso   1.00
C557   C     0.18308   0.17698   0.56046   0.00000  Uiso   1.00
C558   C     0.23851   0.12400   0.56741   0.00000  Uiso   1.00
C559   C     0.12180   0.17280   0.91143   0.00000  Uiso   1.00
C560   C     0.21443   0.31037   0.71967   0.00000  Uiso   1.00
C561   C     0.13996   0.16708   0.85224   0.00000  Uiso   1.00
C562   C     0.21464   0.02028   0.72494   0.00000  Uiso   1.00
C563   C     0.17077   0.04227   0.73905   0.00000  Uiso   1.00
C564   C     0.12865   0.02216   0.74307   0.00000  Uiso   1.00
C565   C     0.12789   0.31319   0.73863   0.00000  Uiso   1.00
C566   C     0.17002   0.29015   0.73316   0.00000  Uiso   1.00
C567   C     0.31997   0.14188   0.71420   0.00000  Uiso   1.00
C568   C     0.03416   0.14125   0.71447   0.00000  Uiso   1.00
C569   C     0.01228   0.19004   0.78785   0.00000  Uiso   1.00
C570   C     0.29835   0.19037   0.78759   0.00000  Uiso   1.00
C571   C     0.16803   0.08665   0.74661   0.00000  Uiso   1.00
C572   C     0.19326   0.16683   0.64774   0.00000  Uiso   1.00
C573   C     0.23694   0.10493   0.51967   0.00000  Uiso   1.00
C574   C     0.20943   0.15881   0.58924   0.00000  Uiso   1.00
C575   C     0.09160   0.20716   0.93258   0.00000  Uiso   1.00
C576   C     0.08209   0.22102   0.98606   0.00000  Uiso   1.00
C577   C     0.10509   0.20132   0.51872   0.00000  Uiso   1.00
H578   H     0.25938   0.10963   0.58948   0.00000  Uiso   1.00
H579   H     0.09541   0.03934   0.75060   0.00000  Uiso   1.00
H580   H     0.31037   0.12210   0.68559   0.00000  Uiso   1.00
H581   H     0.25953   0.07770   0.50458   0.00000  Uiso   1.00
H582   H     0.16689   0.20711   0.57451   0.00000  Uiso   1.00
H583   H     0.07631   0.22427   0.90678   0.00000  Uiso   1.00
N584   N     0.04760   0.16668   0.75001   0.00000  Uiso   1.00
N585   N     0.28573   0.16665   0.75000   0.00000  Uiso   1.00
O586   O     0.12846   0.22775   0.75000   0.00000  Uiso   1.00
O587   O     0.20490   0.22774   0.75000   0.00000  Uiso   1.00
O588   O     0.10947   0.16666   0.82681   0.00000  Uiso   1.00
O589   O     0.18591   0.16665   0.82681   0.00000  Uiso   1.00
O590   O     0.12843   0.10559   0.74999   0.00000  Uiso   1.00
O591   O     0.20488   0.10558   0.74999   0.00000  Uiso   1.00
O592   O     0.14742   0.16668   0.67319   0.00000  Uiso   1.00
O593   O     0.22387   0.16667   0.67319   0.00000  Uiso   1.00
Zn594  Zn    0.11562   0.16667   0.75000   0.00000  Uiso   1.00
Zn595  Zn    0.21771   0.16666   0.75000   0.00000  Uiso   1.00
O596   O     0.25674   0.04171   0.71495   0.00000  Uiso   1.00
H597   H     0.28408   0.02207   0.70862   0.00000  Uiso   1.00
I598   I     0.06072   0.29078   0.73831   0.00000  Uiso   1.00
I599   I     0.08105   0.09776   0.65875   0.00000  Uiso   1.00
O600   O     0.02097   0.21383   0.82787   0.00000  Uiso   1.00
H601   H     0.05558   0.21596   0.81872   0.00000  Uiso   1.00
O602   O     0.26594   0.21509   0.82708   0.00000  Uiso   1.00
H603   H     0.23850   0.22094   0.81560   0.00000  Uiso   1.00
I604   I     0.23616   0.03929   0.92027   0.00000  Uiso   1.00
I605   I     0.07066   0.21041   0.60533   0.00000  Uiso   1.00
O606   O     0.05053   0.25430   0.50448   0.00000  Uiso   1.00
H607   H     0.05739   0.26880   0.53480   0.00000  Uiso   1.00
I608   I     0.13526   0.06903   0.88428   0.00000  Uiso   1.00
O609   O     0.25763   0.28889   0.70049   0.00000  Uiso   1.00
H610   H     0.25459   0.26613   0.67567   0.00000  Uiso   1.00
C611   C     0.50114   0.24638   0.74464   0.00000  Uiso   1.00
C612   C     0.47413   0.16950   0.99466   0.00000  Uiso   1.00
C613   C     0.47583   0.15111   0.94433   0.00000  Uiso   1.00
C614   C     0.50829   0.15513   0.51762   0.00000  Uiso   1.00
C615   C     0.53709   0.11882   0.99552   0.00000  Uiso   1.00
C616   C     0.53047   0.09624   0.95185   0.00000  Uiso   1.00
C617   C     0.49784   0.11148   0.92829   0.00000  Uiso   1.00
C618   C     0.51641   0.17698   0.56046   0.00000  Uiso   1.00
C619   C     0.57184   0.12400   0.56741   0.00000  Uiso   1.00
C620   C     0.45513   0.17280   0.91143   0.00000  Uiso   1.00
C621   C     0.54777   0.31037   0.71967   0.00000  Uiso   1.00
C622   C     0.47329   0.16708   0.85224   0.00000  Uiso   1.00
C623   C     0.54797   0.02028   0.72494   0.00000  Uiso   1.00
C624   C     0.50411   0.04227   0.73905   0.00000  Uiso   1.00
C625   C     0.46199   0.02216   0.74307   0.00000  Uiso   1.00
C626   C     0.46122   0.31319   0.73863   0.00000  Uiso   1.00
C627   C     0.50335   0.29015   0.73316   0.00000  Uiso   1.00
C628   C     0.65331   0.14188   0.71420   0.00000  Uiso   1.00
C629   C     0.36749   0.14125   0.71447   0.00000  Uiso   1.00
C630   C     0.34561   0.19004   0.78785   0.00000  Uiso   1.00
C631   C     0.63169   0.19037   0.78759   0.00000  Uiso   1.00
C632   C     0.50136   0.08665   0.74661   0.00000  Uiso   1.00
C633   C     0.52660   0.16683   0.64774   0.00000  Uiso   1.00
C634   C     0.57027   0.10493   0.51967   0.00000  Uiso   1.00
C635   C     0.54276   0.15881   0.58924   0.00000  Uiso   1.00
C636   C     0.42493   0.20716   0.93258   0.00000  Uiso   1.00
C637   C     0.41542   0.22102   0.98606   0.00000  Uiso   1.00
C638   C     0.43842   0.20132   0.51872   0.00000  Uiso   1.00
H639   H     0.59271   0.10963   0.58948   0.00000  Uiso   1.00
H640   H     0.42875   0.03934   0.75060   0.00000  Uiso   1.00
H641   H     0.64370   0.12210   0.68559   0.00000  Uiso   1.00
H642   H     0.59286   0.07770   0.50458   0.00000  Uiso   1.00
H643   H     0.50023   0.20711   0.57451   0.00000  Uiso   1.00
H644   H     0.40964   0.22427   0.90678   0.00000  Uiso   1.00
N645   N     0.38093   0.16668   0.75001   0.00000  Uiso   1.00
N646   N     0.61906   0.16665   0.75000   0.00000  Uiso   1.00
O647   O     0.46179   0.22775   0.75000   0.00000  Uiso   1.00
O648   O     0.53823   0.22774   0.75000   0.00000  Uiso   1.00
O649   O     0.44280   0.16666   0.82681   0.00000  Uiso   1.00
O650   O     0.51924   0.16665   0.82681   0.00000  Uiso   1.00
O651   O     0.46177   0.10559   0.74999   0.00000  Uiso   1.00
O652   O     0.53821   0.10558   0.74999   0.00000  Uiso   1.00
O653   O     0.48076   0.16668   0.67319   0.00000  Uiso   1.00
O654   O     0.55720   0.16667   0.67319   0.00000  Uiso   1.00
Zn655  Zn    0.44896   0.16667   0.75000   0.00000  Uiso   1.00
Zn656  Zn    0.55104   0.16666   0.75000   0.00000  Uiso   1.00
O657   O     0.59008   0.04171   0.71495   0.00000  Uiso   1.00
H658   H     0.61741   0.02207   0.70862   0.00000  Uiso   1.00
I659   I     0.39405   0.29078   0.73831   0.00000  Uiso   1.00
I660   I     0.41438   0.09776   0.65875   0.00000  Uiso   1.00
O661   O     0.35430   0.21383   0.82787   0.00000  Uiso   1.00
H662   H     0.38892   0.21596   0.81872   0.00000  Uiso   1.00
O663   O     0.59927   0.21509   0.82708   0.00000  Uiso   1.00
H664   H     0.57183   0.22094   0.81560   0.00000  Uiso   1.00
I665   I     0.56950   0.03929   0.92027   0.00000  Uiso   1.00
I666   I     0.40399   0.21041   0.60533   0.00000  Uiso   1.00
O667   O     0.38386   0.25430   0.50448   0.00000  Uiso   1.00
H668   H     0.39072   0.26880   0.53480   0.00000  Uiso   1.00
I669   I     0.46859   0.06903   0.88428   0.00000  Uiso   1.00
O670   O     0.59096   0.28889   0.70049   0.00000  Uiso   1.00
H671   H     0.58792   0.26613   0.67567   0.00000  Uiso   1.00
C672   C     0.83447   0.24638   0.74464   0.00000  Uiso   1.00
C673   C     0.80747   0.16950   0.99466   0.00000  Uiso   1.00
C674   C     0.80916   0.15111   0.94433   0.00000  Uiso   1.00
C675   C     0.84162   0.15513   0.51762   0.00000  Uiso   1.00
C676   C     0.87042   0.11882   0.99552   0.00000  Uiso   1.00
C677   C     0.86380   0.09624   0.95185   0.00000  Uiso   1.00
C678   C     0.83117   0.11148   0.92829   0.00000  Uiso   1.00
C679   C     0.84974   0.17698   0.56046   0.00000  Uiso   1.00
C680   C     0.90518   0.12400   0.56741   0.00000  Uiso   1.00
C681   C     0.78847   0.17280   0.91143   0.00000  Uiso   1.00
C682   C     0.88110   0.31037   0.71967   0.00000  Uiso   1.00
C683   C     0.80662   0.16708   0.85224   0.00000  Uiso   1.00
C684   C     0.88130   0.02028   0.72494   0.00000  Uiso   1.00
C685   C     0.83744   0.04227   0.73905   0.00000  Uiso   1.00
C686   C     0.79532   0.02216   0.74307   0.00000  Uiso   1.00
C687   C     0.79455   0.31319   0.73863   0.00000  Uiso   1.00
C688   C     0.83668   0.29015   0.73316   0.00000  Uiso   1.00
C689   C     0.98664   0.14188   0.71420   0.00000  Uiso   1.00
C690   C     0.70082   0.14125   0.71447   0.00000  Uiso   1.00
C691   C     0.67895   0.19004   0.78785   0.00000  Uiso   1.00
C692   C     0.96502   0.19037   0.78759   0.00000  Uiso   1.00
C693   C     0.83470   0.08665   0.74661   0.00000  Uiso   1.00
C694   C     0.85993   0.16683   0.64774   0.00000  Uiso   1.00
C695   C     0.90361   0.10493   0.51967   0.00000  Uiso   1.00
C696   C     0.87610   0.15881   0.58924   0.00000  Uiso   1.00
C697   C     0.75827   0.20716   0.93258   0.00000  Uiso   1.00
C698   C     0.74875   0.22102   0.98606   0.00000  Uiso   1.00
C699   C     0.77176   0.20132   0.51872   0.00000  Uiso   1.00
H700   H     0.92605   0.10963   0.58948   0.00000  Uiso   1.00
H701   H     0.76208   0.03934   0.75060   0.00000  Uiso   1.00
H702   H     0.97704   0.12210   0.68559   0.00000  Uiso   1.00
H703   H     0.92620   0.07770   0.50458   0.00000  Uiso   1.00
H704   H     0.83356   0.20711   0.57451   0.00000  Uiso   1.00
H705   H     0.74298   0.22427   0.90678   0.00000  Uiso   1.00
N706   N     0.71426   0.16668   0.75001   0.00000  Uiso   1.00
N707   N     0.95239   0.16665   0.75000   0.00000  Uiso   1.00
O708   O     0.79512   0.22775   0.75000   0.00000  Uiso   1.00
O709   O     0.87157   0.22774   0.75000   0.00000  Uiso   1.00
O710   O     0.77613   0.16666   0.82681   0.00000  Uiso   1.00
O711   O     0.85258   0.16665   0.82681   0.00000  Uiso   1.00
O712   O     0.79510   0.10559   0.74999   0.00000  Uiso   1.00
O713   O     0.87154   0.10558   0.74999   0.00000  Uiso   1.00
O714   O     0.81409   0.16668   0.67319   0.00000  Uiso   1.00
O715   O     0.89053   0.16667   0.67319   0.00000  Uiso   1.00
Zn716  Zn    0.78229   0.16667   0.75000   0.00000  Uiso   1.00
Zn717  Zn    0.88438   0.16666   0.75000   0.00000  Uiso   1.00
O718   O     0.92341   0.04171   0.71495   0.00000  Uiso   1.00
H719   H     0.95074   0.02207   0.70862   0.00000  Uiso   1.00
I720   I     0.72738   0.29078   0.73831   0.00000  Uiso   1.00
I721   I     0.74771   0.09776   0.65875   0.00000  Uiso   1.00
O722   O     0.68763   0.21383   0.82787   0.00000  Uiso   1.00
H723   H     0.72225   0.21596   0.81872   0.00000  Uiso   1.00
O724   O     0.93260   0.21509   0.82708   0.00000  Uiso   1.00
H725   H     0.90516   0.22094   0.81560   0.00000  Uiso   1.00
I726   I     0.90283   0.03929   0.92027   0.00000  Uiso   1.00
I727   I     0.73732   0.21041   0.60533   0.00000  Uiso   1.00
O728   O     0.71720   0.25430   0.50448   0.00000  Uiso   1.00
H729   H     0.72405   0.26880   0.53480   0.00000  Uiso   1.00
I730   I     0.80192   0.06903   0.88428   0.00000  Uiso   1.00
O731   O     0.92429   0.28889   0.70049   0.00000  Uiso   1.00
H732   H     0.92126   0.26613   0.67567   0.00000  Uiso   1.00
C733   C     0.16781   0.57972   0.74464   0.00000  Uiso   1.00
C734   C     0.14080   0.50283   0.99466   0.00000  Uiso   1.00
C735   C     0.14250   0.48444   0.94433   0.00000  Uiso   1.00
C736   C     0.17496   0.48847   0.51762   0.00000  Uiso   1.00
C737   C     0.20376   0.45216   0.99552   0.00000  Uiso   1.00
C738   C     0.19714   0.42958   0.95185   0.00000  Uiso   1.00
C739   C     0.16451   0.44481   0.92829   0.00000  Uiso   1.00
C740   C     0.18308   0.51032   0.56046   0.00000  Uiso   1.00
C741   C     0.23851   0.45734   0.56741   0.00000  Uiso   1.00
C742   C     0.12180   0.50614   0.91143   0.00000  Uiso   1.00
C743   C     0.21443   0.64370   0.71967   0.00000  Uiso   1.00
C744   C     0.13996   0.50041   0.85224   0.00000  Uiso   1.00
C745   C     0.21464   0.35361   0.72494   0.00000  Uiso   1.00
C746   C     0.17077   0.37560   0.73905   0.00000  Uiso   1.00
C747   C     0.12865   0.35550   0.74307   0.00000  Uiso   1.00
C748   C     0.12789   0.64653   0.73863   0.00000  Uiso   1.00
C749   C     0.17002   0.62349   0.73316   0.00000  Uiso   1.00
C750   C     0.31997   0.47521   0.71420   0.00000  Uiso   1.00
C751   C     0.03416   0.47458   0.71447   0.00000  Uiso   1.00
C752   C     0.01228   0.52338   0.78785   0.00000  Uiso   1.00
C753   C     0.29835   0.52370   0.78759   0.00000  Uiso   1.00
C754   C     0.16803   0.41999   0.74661   0.00000  Uiso   1.00
C755   C     0.19326   0.50016   0.64774   0.00000  Uiso   1.00
C756   C     0.23694   0.43826   0.51967   0.00000  Uiso   1.00
C757   C     0.20943   0.49214   0.58924   0.00000  Uiso   1.00
C758   C     0.09160   0.54049   0.93258   0.00000  Uiso   1.00
C759   C     0.08209   0.55435   0.98606   0.00000  Uiso   1.00
C760   C     0.10509   0.53465   0.51872   0.00000  Uiso   1.00
H761   H     0.25938   0.44297   0.58948   0.00000  Uiso   1.00
H762   H     0.09541   0.37267   0.75060   0.00000  Uiso   1.00
H763   H     0.31037   0.45543   0.68559   0.00000  Uiso   1.00
H764   H     0.25953   0.41103   0.50458   0.00000  Uiso   1.00
H765   H     0.16689   0.54044   0.57451   0.00000  Uiso   1.00
H766   H     0.07631   0.55760   0.90678   0.00000  Uiso   1.00
N767   N     0.04760   0.50001   0.75001   0.00000  Uiso   1.00
N768   N     0.28573   0.49998   0.75000   0.00000  Uiso   1.00
O769   O     0.12846   0.56108   0.75000   0.00000  Uiso   1.00
O770   O     0.20490   0.56107   0.75000   0.00000  Uiso   1.00
O771   O     0.10947   0.50000   0.82681   0.00000  Uiso   1.00
O772   O     0.18591   0.49999   0.82681   0.00000  Uiso   1.00
O773   O     0.12843   0.43893   0.74999   0.00000  Uiso   1.00
O774   O     0.20488   0.43892   0.74999   0.00000  Uiso   1.00
O775   O     0.14742   0.50001   0.67319   0.00000  Uiso   1.00
O776   O     0.22387   0.50000   0.67319   0.00000  Uiso   1.00
Zn777  Zn    0.11562   0.50001   0.75000   0.00000  Uiso   1.00
Zn778  Zn    0.21771   0.49999   0.75000   0.00000  Uiso   1.00
O779   O     0.25674   0.37504   0.71495   0.00000  Uiso   1.00
H780   H     0.28408   0.35540   0.70862   0.00000  Uiso   1.00
I781   I     0.06072   0.62411   0.73831   0.00000  Uiso   1.00
I782   I     0.08105   0.43109   0.65875   0.00000  Uiso   1.00
O783   O     0.02097   0.54717   0.82787   0.00000  Uiso   1.00
H784   H     0.05558   0.54929   0.81872   0.00000  Uiso   1.00
O785   O     0.26594   0.54843   0.82708   0.00000  Uiso   1.00
H786   H     0.23850   0.55427   0.81560   0.00000  Uiso   1.00
I787   I     0.23616   0.37263   0.92027   0.00000  Uiso   1.00
I788   I     0.07066   0.54374   0.60533   0.00000  Uiso   1.00
O789   O     0.05053   0.58763   0.50448   0.00000  Uiso   1.00
H790   H     0.05739   0.60213   0.53480   0.00000  Uiso   1.00
I791   I     0.13526   0.40237   0.88428   0.00000  Uiso   1.00
O792   O     0.25763   0.62223   0.70049   0.00000  Uiso   1.00
H793   H     0.25459   0.59947   0.67567   0.00000  Uiso   1.00
C794   C     0.50114   0.57972   0.74464   0.00000  Uiso   1.00
C795   C     0.47413   0.50283   0.99466   0.00000  Uiso   1.00
C796   C     0.47583   0.48444   0.94433   0.00000  Uiso   1.00
C797   C     0.50829   0.48847   0.51762   0.00000  Uiso   1.00
C798   C     0.53709   0.45216   0.99552   0.00000  Uiso   1.00
C799   C     0.53047   0.42958   0.95185   0.00000  Uiso   1.00
C800   C     0.49784   0.44481   0.92829   0.00000  Uiso   1.00
C801   C     0.51641   0.51032   0.56046   0.00000  Uiso   1.00
C802   C     0.57184   0.45734   0.56741   0.00000  Uiso   1.00
C803   C     0.45513   0.50614   0.91143   0.00000  Uiso   1.00
C804   C     0.54777   0.64370   0.71967   0.00000  Uiso   1.00
C805   C     0.47329   0.50041   0.85224   0.00000  Uiso   1.00
C806   C     0.54797   0.35361   0.72494   0.00000  Uiso   1.00
C807   C     0.50411   0.37560   0.73905   0.00000  Uiso   1.00
C808   C     0.46199   0.35550   0.74307   0.00000  Uiso   1.00
C809   C     0.46122   0.64653   0.73863   0.00000  Uiso   1.00
C810   C     0.50335   0.62349   0.73316   0.00000  Uiso   1.00
C811   C     0.65331   0.47521   0.71420   0.00000  Uiso   1.00
C812   C     0.36749   0.47458   0.71447   0.00000  Uiso   1.00
C813   C     0.34561   0.52338   0.78785   0.00000  Uiso   1.00
C814   C     0.63169   0.52370   0.78759   0.00000  Uiso   1.00
C815   C     0.50136   0.41999   0.74661   0.00000  Uiso   1.00
C816   C     0.52660   0.50016   0.64774   0.00000  Uiso   1.00
C817   C     0.57027   0.43826   0.51967   0.00000  Uiso   1.00
C818   C     0.54276   0.49214   0.58924   0.00000  Uiso   1.00
C819   C     0.42493   0.54049   0.93258   0.00000  Uiso   1.00
C820   C     0.41542   0.55435   0.98606   0.00000  Uiso   1.00
C821   C     0.43842   0.53465   0.51872   0.00000  Uiso   1.00
H822   H     0.59271   0.44297   0.58948   0.00000  Uiso   1.00
H823   H     0.42875   0.37267   0.75060   0.00000  Uiso   1.00
H824   H     0.64370   0.45543   0.68559   0.00000  Uiso   1.00
H825   H     0.59286   0.41103   0.50458   0.00000  Uiso   1.00
H826   H     0.50023   0.54044   0.57451   0.00000  Uiso   1.00
H827   H     0.40964   0.55760   0.90678   0.00000  Uiso   1.00
N828   N     0.38093   0.50001   0.75001   0.00000  Uiso   1.00
N829   N     0.61906   0.49998   0.75000   0.00000  Uiso   1.00
O830   O     0.46179   0.56108   0.75000   0.00000  Uiso   1.00
O831   O     0.53823   0.56107   0.75000   0.00000  Uiso   1.00
O832   O     0.44280   0.50000   0.82681   0.00000  Uiso   1.00
O833   O     0.51924   0.49999   0.82681   0.00000  Uiso   1.00
O834   O     0.46177   0.43893   0.74999   0.00000  Uiso   1.00
O835   O     0.53821   0.43892   0.74999   0.00000  Uiso   1.00
O836   O     0.48076   0.50001   0.67319   0.00000  Uiso   1.00
O837   O     0.55720   0.50000   0.67319   0.00000  Uiso   1.00
Zn838  Zn    0.44896   0.50001   0.75000   0.00000  Uiso   1.00
Zn839  Zn    0.55104   0.49999   0.75000   0.00000  Uiso   1.00
O840   O     0.59008   0.37504   0.71495   0.00000  Uiso   1.00
H841   H     0.61741   0.35540   0.70862   0.00000  Uiso   1.00
I842   I     0.39405   0.62411   0.73831   0.00000  Uiso   1.00
I843   I     0.41438   0.43109   0.65875   0.00000  Uiso   1.00
O844   O     0.35430   0.54717   0.82787   0.00000  Uiso   1.00
H845   H     0.38892   0.54929   0.81872   0.00000  Uiso   1.00
O846   O     0.59927   0.54843   0.82708   0.00000  Uiso   1.00
H847   H     0.57183   0.55427   0.81560   0.00000  Uiso   1.00
I848   I     0.56950   0.37263   0.92027   0.00000  Uiso   1.00
I849   I     0.40399   0.54374   0.60533   0.00000  Uiso   1.00
O850   O     0.38386   0.58763   0.50448   0.00000  Uiso   1.00
H851   H     0.39072   0.60213   0.53480   0.00000  Uiso   1.00
I852   I     0.46859   0.40237   0.88428   0.00000  Uiso   1.00
O853   O     0.59096   0.62223   0.70049   0.00000  Uiso   1.00
H854   H     0.58792   0.59947   0.67567   0.00000  Uiso   1.00
C855   C     0.83447   0.57972   0.74464   0.00000  Uiso   1.00
C856   C     0.80747   0.50283   0.99466   0.00000  Uiso   1.00
C857   C     0.80916   0.48444   0.94433   0.00000  Uiso   1.00
C858   C     0.84162   0.48847   0.51762   0.00000  Uiso   1.00
C859   C     0.87042   0.45216   0.99552   0.00000  Uiso   1.00
C860   C     0.86380   0.42958   0.95185   0.00000  Uiso   1.00
C861   C     0.83117   0.44481   0.92829   0.00000  Uiso   1.00
C862   C     0.84974   0.51032   0.56046   0.00000  Uiso   1.00
C863   C     0.90518   0.45734   0.56741   0.00000  Uiso   1.00
C864   C     0.78847   0.50614   0.91143   0.00000  Uiso   1.00
C865   C     0.88110   0.64370   0.71967   0.00000  Uiso   1.00
C866   C     0.80662   0.50041   0.85224   0.00000  Uiso   1.00
C867   C     0.88130   0.35361   0.72494   0.00000  Uiso   1.00
C868   C     0.83744   0.37560   0.73905   0.00000  Uiso   1.00
C869   C     0.79532   0.35550   0.74307   0.00000  Uiso   1.00
C870   C     0.79455   0.64653   0.73863   0.00000  Uiso   1.00
C871   C     0.83668   0.62349   0.73316   0.00000  Uiso   1.00
C872   C     0.98664   0.47521   0.71420   0.00000  Uiso   1.00
C873   C     0.70082   0.47458   0.71447   0.00000  Uiso   1.00
C874   C     0.67895   0.52338   0.78785   0.00000  Uiso   1.00
C875   C     0.96502   0.52370   0.78759   0.00000  Uiso   1.00
C876   C     0.83470   0.41999   0.74661   0.00000  Uiso   1.00
C877   C     0.85993   0.50016   0.64774   0.00000  Uiso   1.00
C878   C     0.90361   0.43826   0.51967   0.00000  Uiso   1.00
C879   C     0.87610   0.49214   0.58924   0.00000  Uiso   1.00
C880   C     0.75827   0.54049   0.93258   0.00000  Uiso   1.00
C881   C     0.74875   0.55435   0.98606   0.00000  Uiso   1.00
C882   C     0.77176   0.53465   0.51872   0.00000  Uiso   1.00
H883   H     0.92605   0.44297   0.58948   0.00000  Uiso   1.00
H884   H     0.76208   0.37267   0.75060   0.00000  Uiso   1.00
H885   H     0.97704   0.45543   0.68559   0.00000  Uiso   1.00
H886   H     0.92620   0.41103   0.50458   0.00000  Uiso   1.00
H887   H     0.83356   0.54044   0.57451   0.00000  Uiso   1.00
H888   H     0.74298   0.55760   0.90678   0.00000  Uiso   1.00
N889   N     0.71426   0.50001   0.75001   0.00000  Uiso   1.00
N890   N     0.95239   0.49998   0.75000   0.00000  Uiso   1.00
O891   O     0.79512   0.56108   0.75000   0.00000  Uiso   1.00
O892   O     0.87157   0.56107   0.75000   0.00000  Uiso   1.00
O893   O     0.77613   0.50000   0.82681   0.00000  Uiso   1.00
O894   O     0.85258   0.49999   0.82681   0.00000  Uiso   1.00
O895   O     0.79510   0.43893   0.74999   0.00000  Uiso   1.00
O896   O     0.87154   0.43892   0.74999   0.00000  Uiso   1.00
O897   O     0.81409   0.50001   0.67319   0.00000  Uiso   1.00
O898   O     0.89053   0.50000   0.67319   0.00000  Uiso   1.00
Zn899  Zn    0.78229   0.50001   0.75000   0.00000  Uiso   1.00
Zn900  Zn    0.88438   0.49999   0.75000   0.00000  Uiso   1.00
O901   O     0.92341   0.37504   0.71495   0.00000  Uiso   1.00
H902   H     0.95074   0.35540   0.70862   0.00000  Uiso   1.00
I903   I     0.72738   0.62411   0.73831   0.00000  Uiso   1.00
I904   I     0.74771   0.43109   0.65875   0.00000  Uiso   1.00
O905   O     0.68763   0.54717   0.82787   0.00000  Uiso   1.00
H906   H     0.72225   0.54929   0.81872   0.00000  Uiso   1.00
O907   O     0.93260   0.54843   0.82708   0.00000  Uiso   1.00
H908   H     0.90516   0.55427   0.81560   0.00000  Uiso   1.00
I909   I     0.90283   0.37263   0.92027   0.00000  Uiso   1.00
I910   I     0.73732   0.54374   0.60533   0.00000  Uiso   1.00
O911   O     0.71720   0.58763   0.50448   0.00000  Uiso   1.00
H912   H     0.72405   0.60213   0.53480   0.00000  Uiso   1.00
I913   I     0.80192   0.40237   0.88428   0.00000  Uiso   1.00
O914   O     0.92429   0.62223   0.70049   0.00000  Uiso   1.00
H915   H     0.92126   0.59947   0.67567   0.00000  Uiso   1.00
C916   C     0.16781   0.91305   0.74464   0.00000  Uiso   1.00
C917   C     0.14080   0.83617   0.99466   0.00000  Uiso   1.00
C918   C     0.14250   0.81777   0.94433   0.00000  Uiso   1.00
C919   C     0.17496   0.82180   0.51762   0.00000  Uiso   1.00
C920   C     0.20376   0.78549   0.99552   0.00000  Uiso   1.00
C921   C     0.19714   0.76291   0.95185   0.00000  Uiso   1.00
C922   C     0.16451   0.77814   0.92829   0.00000  Uiso   1.00
C923   C     0.18308   0.84365   0.56046   0.00000  Uiso   1.00
C924   C     0.23851   0.79067   0.56741   0.00000  Uiso   1.00
C925   C     0.12180   0.83947   0.91143   0.00000  Uiso   1.00
C926   C     0.21443   0.97704   0.71967   0.00000  Uiso   1.00
C927   C     0.13996   0.83375   0.85224   0.00000  Uiso   1.00
C928   C     0.21464   0.68695   0.72494   0.00000  Uiso   1.00
C929   C     0.17077   0.70894   0.73905   0.00000  Uiso   1.00
C930   C     0.12865   0.68883   0.74307   0.00000  Uiso   1.00
C931   C     0.12789   0.97986   0.73863   0.00000  Uiso   1.00
C932   C     0.17002   0.95682   0.73316   0.00000  Uiso   1.00
C933   C     0.31997   0.80854   0.71420   0.00000  Uiso   1.00
C934   C     0.03416   0.80791   0.71447   0.00000  Uiso   1.00
C935   C     0.01228   0.85671   0.78785   0.00000  Uiso   1.00
C936   C     0.29835   0.85703   0.78759   0.00000  Uiso   1.00
C937   C     0.16803   0.75332   0.74661   0.00000  Uiso   1.00
C938   C     0.19326   0.83349   0.64774   0.00000  Uiso   1.00
C939   C     0.23694   0.77159   0.51967   0.00000  Uiso   1.00
C940   C     0.20943   0.82547   0.58924   0.00000  Uiso   1.00
C941   C     0.09160   0.87382   0.93258   0.00000  Uiso   1.00
C942   C     0.08209   0.88769   0.98606   0.00000  Uiso   1.00
C943   C     0.10509   0.86798   0.51872   0.00000  Uiso   1.00
H944   H     0.25938   0.77630   0.58948   0.00000  Uiso   1.00
H945   H     0.09541   0.70601   0.75060   0.00000  Uiso   1.00
H946   H     0.31037   0.78876   0.68559   0.00000  Uiso   1.00
H947   H     0.25953   0.74437   0.50458   0.00000  Uiso   1.00
H948   H     0.16689   0.87378   0.57451   0.00000  Uiso   1.00
H949   H     0.07631   0.89093   0.90678   0.00000  Uiso   1.00
N950   N     0.04760   0.83334   0.75001   0.00000  Uiso   1.00
N951   N     0.28573   0.83331   0.75000   0.00000  Uiso   1.00
O952   O     0.12846   0.89442   0.75000   0.00000  Uiso   1.00
O953   O     0.20490   0.89441   0.75000   0.00000  Uiso   1.00
O954   O     0.10947   0.83333   0.82681   0.00000  Uiso   1.00
O955   O     0.18591   0.83332   0.82681   0.00000  Uiso   1.00
O956   O     0.12843   0.77226   0.74999   0.00000  Uiso   1.00
O957   O     0.20488   0.77225   0.74999   0.00000  Uiso   1.00
O958   O     0.14742   0.83335   0.67319   0.00000  Uiso   1.00
O959   O     0.22387   0.83334   0.67319   0.00000  Uiso   1.00
Zn960  Zn    0.11562   0.83334   0.75000   0.00000  Uiso   1.00
Zn961  Zn    0.21771   0.83333   0.75000   0.00000  Uiso   1.00
O962   O     0.25674   0.70837   0.71495   0.00000  Uiso   1.00
H963   H     0.28408   0.68874   0.70862   0.00000  Uiso   1.00
I964   I     0.06072   0.95745   0.73831   0.00000  Uiso   1.00
I965   I     0.08105   0.76442   0.65875   0.00000  Uiso   1.00
O966   O     0.02097   0.88050   0.82787   0.00000  Uiso   1.00
H967   H     0.05558   0.88263   0.81872   0.00000  Uiso   1.00
O968   O     0.26594   0.88176   0.82708   0.00000  Uiso   1.00
H969   H     0.23850   0.88760   0.81560   0.00000  Uiso   1.00
I970   I     0.23616   0.70596   0.92027   0.00000  Uiso   1.00
I971   I     0.07066   0.87708   0.60533   0.00000  Uiso   1.00
O972   O     0.05053   0.92097   0.50448   0.00000  Uiso   1.00
H973   H     0.05739   0.93546   0.53480   0.00000  Uiso   1.00
I974   I     0.13526   0.73570   0.88428   0.00000  Uiso   1.00
O975   O     0.25763   0.95556   0.70049   0.00000  Uiso   1.00
H976   H     0.25459   0.93280   0.67567   0.00000  Uiso   1.00
C977   C     0.50114   0.91305   0.74464   0.00000  Uiso   1.00
C978   C     0.47413   0.83617   0.99466   0.00000  Uiso   1.00
C979   C     0.47583   0.81777   0.94433   0.00000  Uiso   1.00
C980   C     0.50829   0.82180   0.51762   0.00000  Uiso   1.00
C981   C     0.53709   0.78549   0.99552   0.00000  Uiso   1.00
C982   C     0.53047   0.76291   0.95185   0.00000  Uiso   1.00
C983   C     0.49784   0.77814   0.92829   0.00000  Uiso   1.00
C984   C     0.51641   0.84365   0.56046   0.00000  Uiso   1.00
C985   C     0.57184   0.79067   0.56741   0.00000  Uiso   1.00
C986   C     0.45513   0.83947   0.91143   0.00000  Uiso   1.00
C987   C     0.54777   0.97704   0.71967   0.00000  Uiso   1.00
C988   C     0.47329   0.83375   0.85224   0.00000  Uiso   1.00
C989   C     0.54797   0.68695   0.72494   0.00000  Uiso   1.00
C990   C     0.50411   0.70894   0.73905   0.00000  Uiso   1.00
C991   C     0.46199   0.68883   0.74307   0.00000  Uiso   1.00
C992   C     0.46122   0.97986   0.73863   0.00000  Uiso   1.00
C993   C     0.50335   0.95682   0.73316   0.00000  Uiso   1.00
C994   C     0.65331   0.80854   0.71420   0.00000  Uiso   1.00
C995   C     0.36749   0.80791   0.71447   0.00000  Uiso   1.00
C996   C     0.34561   0.85671   0.78785   0.00000  Uiso   1.00
C997   C     0.63169   0.85703   0.78759   0.00000  Uiso   1.00
C998   C     0.50136   0.75332   0.74661   0.00000  Uiso   1.00
C999   C     0.52660   0.83349   0.64774   0.00000  Uiso   1.00
C1000  C     0.57027   0.77159   0.51967   0.00000  Uiso   1.00
C1001  C     0.54276   0.82547   0.58924   0.00000  Uiso   1.00
C1002  C     0.42493   0.87382   0.93258   0.00000  Uiso   1.00
C1003  C     0.41542   0.88769   0.98606   0.00000  Uiso   1.00
C1004  C     0.43842   0.86798   0.51872   0.00000  Uiso   1.00
H1005  H     0.59271   0.77630   0.58948   0.00000  Uiso   1.00
H1006  H     0.42875   0.70601   0.75060   0.00000  Uiso   1.00
H1007  H     0.64370   0.78876   0.68559   0.00000  Uiso   1.00
H1008  H     0.59286   0.74437   0.50458   0.00000  Uiso   1.00
H1009  H     0.50023   0.87378   0.57451   0.00000  Uiso   1.00
H1010  H     0.40964   0.89093   0.90678   0.00000  Uiso   1.00
N1011  N     0.38093   0.83334   0.75001   0.00000  Uiso   1.00
N1012  N     0.61906   0.83331   0.75000   0.00000  Uiso   1.00
O1013  O     0.46179   0.89442   0.75000   0.00000  Uiso   1.00
O1014  O     0.53823   0.89441   0.75000   0.00000  Uiso   1.00
O1015  O     0.44280   0.83333   0.82681   0.00000  Uiso   1.00
O1016  O     0.51924   0.83332   0.82681   0.00000  Uiso   1.00
O1017  O     0.46177   0.77226   0.74999   0.00000  Uiso   1.00
O1018  O     0.53821   0.77225   0.74999   0.00000  Uiso   1.00
O1019  O     0.48076   0.83335   0.67319   0.00000  Uiso   1.00
O1020  O     0.55720   0.83334   0.67319   0.00000  Uiso   1.00
Zn1021 Zn    0.44896   0.83334   0.75000   0.00000  Uiso   1.00
Zn1022 Zn    0.55104   0.83333   0.75000   0.00000  Uiso   1.00
O1023  O     0.59008   0.70837   0.71495   0.00000  Uiso   1.00
H1024  H     0.61741   0.68874   0.70862   0.00000  Uiso   1.00
I1025  I     0.39405   0.95745   0.73831   0.00000  Uiso   1.00
I1026  I     0.41438   0.76442   0.65875   0.00000  Uiso   1.00
O1027  O     0.35430   0.88050   0.82787   0.00000  Uiso   1.00
H1028  H     0.38892   0.88263   0.81872   0.00000  Uiso   1.00
O1029  O     0.59927   0.88176   0.82708   0.00000  Uiso   1.00
H1030  H     0.57183   0.88760   0.81560   0.00000  Uiso   1.00
I1031  I     0.56950   0.70596   0.92027   0.00000  Uiso   1.00
I1032  I     0.40399   0.87708   0.60533   0.00000  Uiso   1.00
O1033  O     0.38386   0.92097   0.50448   0.00000  Uiso   1.00
H1034  H     0.39072   0.93546   0.53480   0.00000  Uiso   1.00
I1035  I     0.46859   0.73570   0.88428   0.00000  Uiso   1.00
O1036  O     0.59096   0.95556   0.70049   0.00000  Uiso   1.00
H1037  H     0.58792   0.93280   0.67567   0.00000  Uiso   1.00
C1038  C     0.83447   0.91305   0.74464   0.00000  Uiso   1.00
C1039  C     0.80747   0.83617   0.99466   0.00000  Uiso   1.00
C1040  C     0.80916   0.81777   0.94433   0.00000  Uiso   1.00
C1041  C     0.84162   0.82180   0.51762   0.00000  Uiso   1.00
C1042  C     0.87042   0.78549   0.99552   0.00000  Uiso   1.00
C1043  C     0.86380   0.76291   0.95185   0.00000  Uiso   1.00
C1044  C     0.83117   0.77814   0.92829   0.00000  Uiso   1.00
C1045  C     0.84974   0.84365   0.56046   0.00000  Uiso   1.00
C1046  C     0.90518   0.79067   0.56741   0.00000  Uiso   1.00
C1047  C     0.78847   0.83947   0.91143   0.00000  Uiso   1.00
C1048  C     0.88110   0.97704   0.71967   0.00000  Uiso   1.00
C1049  C     0.80662   0.83375   0.85224   0.00000  Uiso   1.00
C1050  C     0.88130   0.68695   0.72494   0.00000  Uiso   1.00
C1051  C     0.83744   0.70894   0.73905   0.00000  Uiso   1.00
C1052  C     0.79532   0.68883   0.74307   0.00000  Uiso   1.00
C1053  C     0.79455   0.97986   0.73863   0.00000  Uiso   1.00
C1054  C     0.83668   0.95682   0.73316   0.00000  Uiso   1.00
C1055  C     0.98664   0.80854   0.71420   0.00000  Uiso   1.00
C1056  C     0.70082   0.80791   0.71447   0.00000  Uiso   1.00
C1057  C     0.67895   0.85671   0.78785   0.00000  Uiso   1.00
C1058  C     0.96502   0.85703   0.78759   0.00000  Uiso   1.00
C1059  C     0.83470   0.75332   0.74661   0.00000  Uiso   1.00
C1060  C     0.85993   0.83349   0.64774   0.00000  Uiso   1.00
C1061  C     0.90361   0.77159   0.51967   0.00000  Uiso   1.00
C1062  C     0.87610   0.82547   0.58924   0.00000  Uiso   1.00
C1063  C     0.75827   0.87382   0.93258   0.00000  Uiso   1.00
C1064  C     0.74875   0.88769   0.98606   0.00000  Uiso   1.00
C1065  C     0.77176   0.86798   0.51872   0.00000  Uiso   1.00
H1066  H     0.92605   0.77630   0.58948   0.00000  Uiso   1.00
H1067  H     0.76208   0.70601   0.75060   0.00000  Uiso   1.00
H1068  H     0.97704   0.78876   0.68559   0.00000  Uiso   1.00
H1069  H     0.92620   0.74437   0.50458   0.00000  Uiso   1.00
H1070  H     0.83356   0.87378   0.57451   0.00000  Uiso   1.00
H1071  H     0.74298   0.89093   0.90678   0.00000  Uiso   1.00
N1072  N     0.71426   0.83334   0.75001   0.00000  Uiso   1.00
N1073  N     0.95239   0.83331   0.75000   0.00000  Uiso   1.00
O1074  O     0.79512   0.89442   0.75000   0.00000  Uiso   1.00
O1075  O     0.87157   0.89441   0.75000   0.00000  Uiso   1.00
O1076  O     0.77613   0.83333   0.82681   0.00000  Uiso   1.00
O1077  O     0.85258   0.83332   0.82681   0.00000  Uiso   1.00
O1078  O     0.79510   0.77226   0.74999   0.00000  Uiso   1.00
O1079  O     0.87154   0.77225   0.74999   0.00000  Uiso   1.00
O1080  O     0.81409   0.83335   0.67319   0.00000  Uiso   1.00
O1081  O     0.89053   0.83334   0.67319   0.00000  Uiso   1.00
Zn1082 Zn    0.78229   0.83334   0.75000   0.00000  Uiso   1.00
Zn1083 Zn    0.88438   0.83333   0.75000   0.00000  Uiso   1.00
O1084  O     0.92341   0.70837   0.71495   0.00000  Uiso   1.00
H1085  H     0.95074   0.68874   0.70862   0.00000  Uiso   1.00
I1086  I     0.72738   0.95745   0.73831   0.00000  Uiso   1.00
I1087  I     0.74771   0.76442   0.65875   0.00000  Uiso   1.00
O1088  O     0.68763   0.88050   0.82787   0.00000  Uiso   1.00
H1089  H     0.72225   0.88263   0.81872   0.00000  Uiso   1.00
O1090  O     0.93260   0.88176   0.82708   0.00000  Uiso   1.00
H1091  H     0.90516   0.88760   0.81560   0.00000  Uiso   1.00
I1092  I     0.90283   0.70596   0.92027   0.00000  Uiso   1.00
I1093  I     0.73732   0.87708   0.60533   0.00000  Uiso   1.00
O1094  O     0.71720   0.92097   0.50448   0.00000  Uiso   1.00
H1095  H     0.72405   0.93546   0.53480   0.00000  Uiso   1.00
I1096  I     0.80192   0.73570   0.88428   0.00000  Uiso   1.00
O1097  O     0.92429   0.95556   0.70049   0.00000  Uiso   1.00
H1098  H     0.92126   0.93280   0.67567   0.00000  Uiso   1.00
loop_
_geom_bond_atom_site_label_1
_geom_bond_atom_site_label_2
_geom_bond_distance
_geom_bond_site_symmetry_2
_ccdc_geom_bond_type
C1     C17     1.442   .     S
C1     O37     1.288   .     A
C1     O38     1.300   .     A
C2     C3      1.411   .     A
C2     C553    1.420   .     S
C2     C577    1.436   .     S
C3     C10     1.403   .     A
C3     C7      1.414   .     A
C4     C8      1.396   .     A
C4     C551    1.420   1_554 S
C4     C554    1.429   1_554 S
C5     C6      1.407   .     A
C5     C553    1.429   .     S
C5     C573    1.411   .     S
C6     C7      1.401   .     A
C6     I55     2.148   .     S
C7     I59     2.139   .     S
C8     C25     1.387   .     A
C8     H33     1.076   .     S
C9     C24     1.390   .     A
C9     H29     1.084   .     S
C9     C25     1.393   .     A
C10    C26     1.395   .     A
C10    C12     1.455   .     S
C11    O60     1.381   .     S
C11    C17     1.417   .     A
C11    C196    1.394   .     S
C12    O40     1.301   .     A
C12    O39     1.292   .     A
C13    C14     1.407   .     A
C13    O47     1.385   .     S
C13    C377    1.394   1_545 S
C14    C22     1.434   .     S
C14    C15     1.391   .     A
C15    H30     1.083   .     S
C15    C382    1.364   1_545 S
C16    I49     2.136   .     S
C16    C17     1.412   .     A
C16    C198    1.364   .     S
C18    H31     1.082   .     S
C18    N36     1.359   .     A
C18    C80     1.417   .     S
C19    N35     1.383   .     A
C19    I50     2.121   .     S
C19    C140    1.417   1_455 S
C20    O51     1.376   .     S
C20    N35     1.373   .     A
C20    C143    1.409   1_455 S
C21    O53     1.376   .     S
C21    N36     1.381   .     A
C21    C81     1.409   .     S
C22    O42     1.289   .     A
C22    O41     1.295   .     A
C23    C25     1.448   .     S
C23    O43     1.298   .     A
C23    O44     1.296   .     A
C24    H32     1.079   .     S
C24    C554    1.411   1_554 S
C26    C27     1.385   .     A
C26    H34     1.084   .     S
C27    C577    1.413   .     S
C27    O606    1.380   .     S
C28    I56     2.147   .     S
C28    C576    1.413   1_554 S
C28    C551    1.436   1_554 S
N35    Zn45    2.025   .     S
N36    Zn46    2.025   .     S
O37    Zn45    2.005   .     S
O38    Zn46    1.995   .     S
O39    Zn45    1.943   .     S
O40    Zn46    1.898   .     S
O41    Zn45    1.995   .     S
O42    Zn46    2.005   .     S
O43    Zn45    1.898   .     S
O44    Zn46    1.943   .     S
O47    H48     0.990   .     S
O51    H52     0.979   .     S
O53    H54     0.978   .     S
O57    H58     0.989   .     S
O57    C576    1.380   1_554 S
O60    H61     0.992   .     S
C62    C78     1.442   .     S
C62    O98     1.288   .     A
C62    O99     1.300   .     A
C63    C64     1.411   .     A
C63    C614    1.420   .     S
C63    C638    1.436   .     S
C64    C71     1.403   .     A
C64    C68     1.414   .     A
C65    C69     1.396   .     A
C65    C612    1.420   1_554 S
C65    C615    1.429   1_554 S
C66    C67     1.407   .     A
C66    C614    1.429   .     S
C66    C634    1.411   .     S
C67    C68     1.401   .     A
C67    I116    2.148   .     S
C68    I120    2.139   .     S
C69    C86     1.387   .     A
C69    H94     1.076   .     S
C70    C85     1.390   .     A
C70    H90     1.084   .     S
C70    C86     1.393   .     A
C71    C87     1.395   .     A
C71    C73     1.455   .     S
C72    O121    1.381   .     S
C72    C78     1.417   .     A
C72    C257    1.394   .     S
C73    O101    1.301   .     A
C73    O100    1.292   .     A
C74    C75     1.407   .     A
C74    O108    1.385   .     S
C74    C438    1.394   1_545 S
C75    C83     1.434   .     S
C75    C76     1.391   .     A
C76    H91     1.083   .     S
C76    C443    1.364   1_545 S
C77    I110    2.136   .     S
C77    C78     1.412   .     A
C77    C259    1.364   .     S
C79    H92     1.082   .     S
C79    N97     1.359   .     A
C79    C141    1.417   .     S
C80    N96     1.383   .     A
C80    I111    2.121   .     S
C81    O112    1.376   .     S
C81    N96     1.373   .     A
C82    O114    1.376   .     S
C82    N97     1.381   .     A
C82    C142    1.409   .     S
C83    O103    1.289   .     A
C83    O102    1.295   .     A
C84    C86     1.448   .     S
C84    O104    1.298   .     A
C84    O105    1.296   .     A
C85    H93     1.079   .     S
C85    C615    1.411   1_554 S
C87    C88     1.385   .     A
C87    H95     1.084   .     S
C88    C638    1.413   .     S
C88    O667    1.380   .     S
C89    I117    2.147   .     S
C89    C637    1.413   1_554 S
C89    C612    1.436   1_554 S
N96    Zn106   2.025   .     S
N97    Zn107   2.025   .     S
O98    Zn106   2.005   .     S
O99    Zn107   1.995   .     S
O100   Zn106   1.943   .     S
O101   Zn107   1.898   .     S
O102   Zn106   1.995   .     S
O103   Zn107   2.005   .     S
O104   Zn106   1.898   .     S
O105   Zn107   1.943   .     S
O108   H109    0.990   .     S
O112   H113    0.979   .     S
O114   H115    0.978   .     S
O118   H119    0.989   .     S
O118   C637    1.380   1_554 S
O121   H122    0.992   .     S
C123   C139    1.442   .     S
C123   O159    1.288   .     A
C123   O160    1.300   .     A
C124   C125    1.411   .     A
C124   C675    1.420   .     S
C124   C699    1.436   .     S
C125   C132    1.403   .     A
C125   C129    1.414   .     A
C126   C130    1.396   .     A
C126   C673    1.420   1_554 S
C126   C676    1.429   1_554 S
C127   C128    1.407   .     A
C127   C675    1.429   .     S
C127   C695    1.411   .     S
C128   C129    1.401   .     A
C128   I177    2.148   .     S
C129   I181    2.139   .     S
C130   C147    1.387   .     A
C130   H155    1.076   .     S
C131   C146    1.390   .     A
C131   H151    1.084   .     S
C131   C147    1.393   .     A
C132   C148    1.395   .     A
C132   C134    1.455   .     S
C133   O182    1.381   .     S
C133   C139    1.417   .     A
C133   C318    1.394   .     S
C134   O162    1.301   .     A
C134   O161    1.292   .     A
C135   C136    1.407   .     A
C135   O169    1.385   .     S
C135   C499    1.394   1_545 S
C136   C144    1.434   .     S
C136   C137    1.391   .     A
C137   H152    1.083   .     S
C137   C504    1.364   1_545 S
C138   I171    2.136   .     S
C138   C139    1.412   .     A
C138   C320    1.364   .     S
C140   H153    1.082   .     S
C140   N158    1.359   .     A
C140   C19     1.417   1_655 S
C141   N157    1.383   .     A
C141   I172    2.121   .     S
C142   O173    1.376   .     S
C142   N157    1.373   .     A
C143   O175    1.376   .     S
C143   N158    1.381   .     A
C143   C20     1.409   1_655 S
C144   O164    1.289   .     A
C144   O163    1.295   .     A
C145   C147    1.448   .     S
C145   O165    1.298   .     A
C145   O166    1.296   .     A
C146   H154    1.079   .     S
C146   C676    1.411   1_554 S
C148   C149    1.385   .     A
C148   H156    1.084   .     S
C149   C699    1.413   .     S
C149   O728    1.380   .     S
C150   I178    2.147   .     S
C150   C698    1.413   1_554 S
C150   C673    1.436   1_554 S
N157   Zn167   2.025   .     S
N158   Zn168   2.025   .     S
O159   Zn167   2.005   .     S
O160   Zn168   1.995   .     S
O161   Zn167   1.943   .     S
O162   Zn168   1.898   .     S
O163   Zn167   1.995   .     S
O164   Zn168   2.005   .     S
O165   Zn167   1.898   .     S
O166   Zn168   1.943   .     S
O169   H170    0.990   .     S
O173   H174    0.979   .     S
O175   H176    0.978   .     S
O179   H180    0.989   .     S
O179   C698    1.380   1_554 S
O182   H183    0.992   .     S
C184   C200    1.442   .     S
C184   O220    1.288   .     A
C184   O221    1.300   .     A
C185   C186    1.411   .     A
C185   C736    1.420   .     S
C185   C760    1.436   .     S
C186   C193    1.403   .     A
C186   C190    1.414   .     A
C187   C191    1.396   .     A
C187   C734    1.420   1_554 S
C187   C737    1.429   1_554 S
C188   C189    1.407   .     A
C188   C736    1.429   .     S
C188   C756    1.411   .     S
C189   C190    1.401   .     A
C189   I238    2.148   .     S
C190   I242    2.139   .     S
C191   C208    1.387   .     A
C191   H216    1.076   .     S
C192   C207    1.390   .     A
C192   H212    1.084   .     S
C192   C208    1.393   .     A
C193   C209    1.395   .     A
C193   C195    1.455   .     S
C194   O243    1.381   .     S
C194   C200    1.417   .     A
C194   C379    1.394   .     S
C195   O223    1.301   .     A
C195   O222    1.292   .     A
C196   C197    1.407   .     A
C196   O230    1.385   .     S
C197   C205    1.434   .     S
C197   C198    1.391   .     A
C198   H213    1.083   .     S
C199   I232    2.136   .     S
C199   C200    1.412   .     A
C199   C381    1.364   .     S
C201   H214    1.082   .     S
C201   N219    1.359   .     A
C201   C263    1.417   .     S
C202   N218    1.383   .     A
C202   I233    2.121   .     S
C202   C323    1.417   1_455 S
C203   O234    1.376   .     S
C203   N218    1.373   .     A
C203   C326    1.409   1_455 S
C204   O236    1.376   .     S
C204   N219    1.381   .     A
C204   C264    1.409   .     S
C205   O225    1.289   .     A
C205   O224    1.295   .     A
C206   C208    1.448   .     S
C206   O226    1.298   .     A
C206   O227    1.296   .     A
C207   H215    1.079   .     S
C207   C737    1.411   1_554 S
C209   C210    1.385   .     A
C209   H217    1.084   .     S
C210   C760    1.413   .     S
C210   O789    1.380   .     S
C211   I239    2.147   .     S
C211   C759    1.413   1_554 S
C211   C734    1.436   1_554 S
N218   Zn228   2.025   .     S
N219   Zn229   2.025   .     S
O220   Zn228   2.005   .     S
O221   Zn229   1.995   .     S
O222   Zn228   1.943   .     S
O223   Zn229   1.898   .     S
O224   Zn228   1.995   .     S
O225   Zn229   2.005   .     S
O226   Zn228   1.898   .     S
O227   Zn229   1.943   .     S
O230   H231    0.990   .     S
O234   H235    0.979   .     S
O236   H237    0.978   .     S
O240   H241    0.989   .     S
O240   C759    1.380   1_554 S
O243   H244    0.992   .     S
C245   C261    1.442   .     S
C245   O281    1.288   .     A
C245   O282    1.300   .     A
C246   C247    1.411   .     A
C246   C797    1.420   .     S
C246   C821    1.436   .     S
C247   C254    1.403   .     A
C247   C251    1.414   .     A
C248   C252    1.396   .     A
C248   C795    1.420   1_554 S
C248   C798    1.429   1_554 S
C249   C250    1.407   .     A
C249   C797    1.429   .     S
C249   C817    1.411   .     S
C250   C251    1.401   .     A
C250   I299    2.148   .     S
C251   I303    2.139   .     S
C252   C269    1.387   .     A
C252   H277    1.076   .     S
C253   C268    1.390   .     A
C253   H273    1.084   .     S
C253   C269    1.393   .     A
C254   C270    1.395   .     A
C254   C256    1.455   .     S
C255   O304    1.381   .     S
C255   C261    1.417   .     A
C255   C440    1.394   .     S
C256   O284    1.301   .     A
C256   O283    1.292   .     A
C257   C258    1.407   .     A
C257   O291    1.385   .     S
C258   C266    1.434   .     S
C258   C259    1.391   .     A
C259   H274    1.083   .     S
C260   I293    2.136   .     S
C260   C261    1.412   .     A
C260   C442    1.364   .     S
C262   H275    1.082   .     S
C262   N280    1.359   .     A
C262   C324    1.417   .     S
C263   N279    1.383   .     A
C263   I294    2.121   .     S
C264   O295    1.376   .     S
C264   N279    1.373   .     A
C265   O297    1.376   .     S
C265   N280    1.381   .     A
C265   C325    1.409   .     S
C266   O286    1.289   .     A
C266   O285    1.295   .     A
C267   C269    1.448   .     S
C267   O287    1.298   .     A
C267   O288    1.296   .     A
C268   H276    1.079   .     S
C268   C798    1.411   1_554 S
C270   C271    1.385   .     A
C270   H278    1.084   .     S
C271   C821    1.413   .     S
C271   O850    1.380   .     S
C272   I300    2.147   .     S
C272   C820    1.413   1_554 S
C272   C795    1.436   1_554 S
N279   Zn289   2.025   .     S
N280   Zn290   2.025   .     S
O281   Zn289   2.005   .     S
O282   Zn290   1.995   .     S
O283   Zn289   1.943   .     S
O284   Zn290   1.898   .     S
O285   Zn289   1.995   .     S
O286   Zn290   2.005   .     S
O287   Zn289   1.898   .     S
O288   Zn290   1.943   .     S
O291   H292    0.990   .     S
O295   H296    0.979   .     S
O297   H298    0.978   .     S
O301   H302    0.989   .     S
O301   C820    1.380   1_554 S
O304   H305    0.992   .     S
C306   C322    1.442   .     S
C306   O342    1.288   .     A
C306   O343    1.300   .     A
C307   C308    1.411   .     A
C307   C858    1.420   .     S
C307   C882    1.436   .     S
C308   C315    1.403   .     A
C308   C312    1.414   .     A
C309   C313    1.396   .     A
C309   C856    1.420   1_554 S
C309   C859    1.429   1_554 S
C310   C311    1.407   .     A
C310   C858    1.429   .     S
C310   C878    1.411   .     S
C311   C312    1.401   .     A
C311   I360    2.148   .     S
C312   I364    2.139   .     S
C313   C330    1.387   .     A
C313   H338    1.076   .     S
C314   C329    1.390   .     A
C314   H334    1.084   .     S
C314   C330    1.393   .     A
C315   C331    1.395   .     A
C315   C317    1.455   .     S
C316   O365    1.381   .     S
C316   C322    1.417   .     A
C316   C501    1.394   .     S
C317   O345    1.301   .     A
C317   O344    1.292   .     A
C318   C319    1.407   .     A
C318   O352    1.385   .     S
C319   C327    1.434   .     S
C319   C320    1.391   .     A
C320   H335    1.083   .     S
C321   I354    2.136   .     S
C321   C322    1.412   .     A
C321   C503    1.364   .     S
C323   H336    1.082   .     S
C323   N341    1.359   .     A
C323   C202    1.417   1_655 S
C324   N340    1.383   .     A
C324   I355    2.121   .     S
C325   O356    1.376   .     S
C325   N340    1.373   .     A
C326   O358    1.376   .     S
C326   N341    1.381   .     A
C326   C203    1.409   1_655 S
C327   O347    1.289   .     A
C327   O346    1.295   .     A
C328   C330    1.448   .     S
C328   O348    1.298   .     A
C328   O349    1.296   .     A
C329   H337    1.079   .     S
C329   C859    1.411   1_554 S
C331   C332    1.385   .     A
C331   H339    1.084   .     S
C332   C882    1.413   .     S
C332   O911    1.380   .     S
C333   I361    2.147   .     S
C333   C881    1.413   1_554 S
C333   C856    1.436   1_554 S
N340   Zn350   2.025   .     S
N341   Zn351   2.025   .     S
O342   Zn350   2.005   .     S
O343   Zn351   1.995   .     S
O344   Zn350   1.943   .     S
O345   Zn351   1.898   .     S
O346   Zn350   1.995   .     S
O347   Zn351   2.005   .     S
O348   Zn350   1.898   .     S
O349   Zn351   1.943   .     S
O352   H353    0.990   .     S
O356   H357    0.979   .     S
O358   H359    0.978   .     S
O362   H363    0.989   .     S
O362   C881    1.380   1_554 S
O365   H366    0.992   .     S
C367   C383    1.442   .     S
C367   O403    1.288   .     A
C367   O404    1.300   .     A
C368   C369    1.411   .     A
C368   C919    1.420   .     S
C368   C943    1.436   .     S
C369   C376    1.403   .     A
C369   C373    1.414   .     A
C370   C374    1.396   .     A
C370   C917    1.420   1_554 S
C370   C920    1.429   1_554 S
C371   C372    1.407   .     A
C371   C919    1.429   .     S
C371   C939    1.411   .     S
C372   C373    1.401   .     A
C372   I421    2.148   .     S
C373   I425    2.139   .     S
C374   C391    1.387   .     A
C374   H399    1.076   .     S
C375   C390    1.390   .     A
C375   H395    1.084   .     S
C375   C391    1.393   .     A
C376   C392    1.395   .     A
C376   C378    1.455   .     S
C377   O426    1.381   .     S
C377   C383    1.417   .     A
C377   C13     1.394   1_565 S
C378   O406    1.301   .     A
C378   O405    1.292   .     A
C379   C380    1.407   .     A
C379   O413    1.385   .     S
C380   C388    1.434   .     S
C380   C381    1.391   .     A
C381   H396    1.083   .     S
C382   I415    2.136   .     S
C382   C383    1.412   .     A
C382   C15     1.364   1_565 S
C384   H397    1.082   .     S
C384   N402    1.359   .     A
C384   C446    1.417   .     S
C385   N401    1.383   .     A
C385   I416    2.121   .     S
C385   C506    1.417   1_455 S
C386   O417    1.376   .     S
C386   N401    1.373   .     A
C386   C509    1.409   1_455 S
C387   O419    1.376   .     S
C387   N402    1.381   .     A
C387   C447    1.409   .     S
C388   O408    1.289   .     A
C388   O407    1.295   .     A
C389   C391    1.448   .     S
C389   O409    1.298   .     A
C389   O410    1.296   .     A
C390   H398    1.079   .     S
C390   C920    1.411   1_554 S
C392   C393    1.385   .     A
C392   H400    1.084   .     S
C393   C943    1.413   .     S
C393   O972    1.380   .     S
C394   I422    2.147   .     S
C394   C942    1.413   1_554 S
C394   C917    1.436   1_554 S
N401   Zn411   2.025   .     S
N402   Zn412   2.025   .     S
O403   Zn411   2.005   .     S
O404   Zn412   1.995   .     S
O405   Zn411   1.943   .     S
O406   Zn412   1.898   .     S
O407   Zn411   1.995   .     S
O408   Zn412   2.005   .     S
O409   Zn411   1.898   .     S
O410   Zn412   1.943   .     S
O413   H414    0.990   .     S
O417   H418    0.979   .     S
O419   H420    0.978   .     S
O423   H424    0.989   .     S
O423   C942    1.380   1_554 S
O426   H427    0.992   .     S
C428   C444    1.442   .     S
C428   O464    1.288   .     A
C428   O465    1.300   .     A
C429   C430    1.411   .     A
C429   C980    1.420   .     S
C429   C1004   1.436   .     S
C430   C437    1.403   .     A
C430   C434    1.414   .     A
C431   C435    1.396   .     A
C431   C978    1.420   1_554 S
C431   C981    1.429   1_554 S
C432   C433    1.407   .     A
C432   C980    1.429   .     S
C432   C1000   1.411   .     S
C433   C434    1.401   .     A
C433   I482    2.148   .     S
C434   I486    2.139   .     S
C435   C452    1.387   .     A
C435   H460    1.076   .     S
C436   C451    1.390   .     A
C436   H456    1.084   .     S
C436   C452    1.393   .     A
C437   C453    1.395   .     A
C437   C439    1.455   .     S
C438   O487    1.381   .     S
C438   C444    1.417   .     A
C438   C74     1.394   1_565 S
C439   O467    1.301   .     A
C439   O466    1.292   .     A
C440   C441    1.407   .     A
C440   O474    1.385   .     S
C441   C449    1.434   .     S
C441   C442    1.391   .     A
C442   H457    1.083   .     S
C443   I476    2.136   .     S
C443   C444    1.412   .     A
C443   C76     1.364   1_565 S
C445   H458    1.082   .     S
C445   N463    1.359   .     A
C445   C507    1.417   .     S
C446   N462    1.383   .     A
C446   I477    2.121   .     S
C447   O478    1.376   .     S
C447   N462    1.373   .     A
C448   O480    1.376   .     S
C448   N463    1.381   .     A
C448   C508    1.409   .     S
C449   O469    1.289   .     A
C449   O468    1.295   .     A
C450   C452    1.448   .     S
C450   O470    1.298   .     A
C450   O471    1.296   .     A
C451   H459    1.079   .     S
C451   C981    1.411   1_554 S
C453   C454    1.385   .     A
C453   H461    1.084   .     S
C454   C1004   1.413   .     S
C454   O1033   1.380   .     S
C455   I483    2.147   .     S
C455   C1003   1.413   1_554 S
C455   C978    1.436   1_554 S
N462   Zn472   2.025   .     S
N463   Zn473   2.025   .     S
O464   Zn472   2.005   .     S
O465   Zn473   1.995   .     S
O466   Zn472   1.943   .     S
O467   Zn473   1.898   .     S
O468   Zn472   1.995   .     S
O469   Zn473   2.005   .     S
O470   Zn472   1.898   .     S
O471   Zn473   1.943   .     S
O474   H475    0.990   .     S
O478   H479    0.979   .     S
O480   H481    0.978   .     S
O484   H485    0.989   .     S
O484   C1003   1.380   1_554 S
O487   H488    0.992   .     S
C489   C505    1.442   .     S
C489   O525    1.288   .     A
C489   O526    1.300   .     A
C490   C491    1.411   .     A
C490   C1041   1.420   .     S
C490   C1065   1.436   .     S
C491   C498    1.403   .     A
C491   C495    1.414   .     A
C492   C496    1.396   .     A
C492   C1039   1.420   1_554 S
C492   C1042   1.429   1_554 S
C493   C494    1.407   .     A
C493   C1041   1.429   .     S
C493   C1061   1.411   .     S
C494   C495    1.401   .     A
C494   I543    2.148   .     S
C495   I547    2.139   .     S
C496   C513    1.387   .     A
C496   H521    1.076   .     S
C497   C512    1.390   .     A
C497   H517    1.084   .     S
C497   C513    1.393   .     A
C498   C514    1.395   .     A
C498   C500    1.455   .     S
C499   O548    1.381   .     S
C499   C505    1.417   .     A
C499   C135    1.394   1_565 S
C500   O528    1.301   .     A
C500   O527    1.292   .     A
C501   C502    1.407   .     A
C501   O535    1.385   .     S
C502   C510    1.434   .     S
C502   C503    1.391   .     A
C503   H518    1.083   .     S
C504   I537    2.136   .     S
C504   C505    1.412   .     A
C504   C137    1.364   1_565 S
C506   H519    1.082   .     S
C506   N524    1.359   .     A
C506   C385    1.417   1_655 S
C507   N523    1.383   .     A
C507   I538    2.121   .     S
C508   O539    1.376   .     S
C508   N523    1.373   .     A
C509   O541    1.376   .     S
C509   N524    1.381   .     A
C509   C386    1.409   1_655 S
C510   O530    1.289   .     A
C510   O529    1.295   .     A
C511   C513    1.448   .     S
C511   O531    1.298   .     A
C511   O532    1.296   .     A
C512   H520    1.079   .     S
C512   C1042   1.411   1_554 S
C514   C515    1.385   .     A
C514   H522    1.084   .     S
C515   C1065   1.413   .     S
C515   O1094   1.380   .     S
C516   I544    2.147   .     S
C516   C1064   1.413   1_554 S
C516   C1039   1.436   1_554 S
N523   Zn533   2.025   .     S
N524   Zn534   2.025   .     S
O525   Zn533   2.005   .     S
O526   Zn534   1.995   .     S
O527   Zn533   1.943   .     S
O528   Zn534   1.898   .     S
O529   Zn533   1.995   .     S
O530   Zn534   2.005   .     S
O531   Zn533   1.898   .     S
O532   Zn534   1.943   .     S
O535   H536    0.990   .     S
O539   H540    0.979   .     S
O541   H542    0.978   .     S
O545   H546    0.989   .     S
O545   C1064   1.380   1_554 S
O548   H549    0.992   .     S
C550   C566    1.442   .     S
C550   O586    1.288   .     A
C550   O587    1.300   .     A
C551   C552    1.411   .     A
C551   C4      1.420   1_556 S
C551   C28     1.436   1_556 S
C552   C559    1.403   .     A
C552   C556    1.414   .     A
C553   C557    1.396   .     A
C554   C555    1.407   .     A
C554   C4      1.429   1_556 S
C554   C24     1.411   1_556 S
C555   C556    1.401   .     A
C555   I604    2.148   .     S
C556   I608    2.139   .     S
C557   C574    1.387   .     A
C557   H582    1.076   .     S
C558   C573    1.390   .     A
C558   H578    1.084   .     S
C558   C574    1.393   .     A
C559   C575    1.395   .     A
C559   C561    1.455   .     S
C560   O609    1.381   .     S
C560   C566    1.417   .     A
C560   C745    1.394   .     S
C561   O589    1.301   .     A
C561   O588    1.292   .     A
C562   C563    1.407   .     A
C562   O596    1.385   .     S
C562   C926    1.394   1_545 S
C563   C571    1.434   .     S
C563   C564    1.391   .     A
C564   H579    1.083   .     S
C564   C931    1.364   1_545 S
C565   I598    2.136   .     S
C565   C566    1.412   .     A
C565   C747    1.364   .     S
C567   H580    1.082   .     S
C567   N585    1.359   .     A
C567   C629    1.417   .     S
C568   N584    1.383   .     A
C568   I599    2.121   .     S
C568   C689    1.417   1_455 S
C569   O600    1.376   .     S
C569   N584    1.373   .     A
C569   C692    1.409   1_455 S
C570   O602    1.376   .     S
C570   N585    1.381   .     A
C570   C630    1.409   .     S
C571   O591    1.289   .     A
C571   O590    1.295   .     A
C572   C574    1.448   .     S
C572   O592    1.298   .     A
C572   O593    1.296   .     A
C573   H581    1.079   .     S
C575   C576    1.385   .     A
C575   H583    1.084   .     S
C576   C28     1.413   1_556 S
C576   O57     1.380   1_556 S
C577   I605    2.147   .     S
N584   Zn594   2.025   .     S
N585   Zn595   2.025   .     S
O586   Zn594   2.005   .     S
O587   Zn595   1.995   .     S
O588   Zn594   1.943   .     S
O589   Zn595   1.898   .     S
O590   Zn594   1.995   .     S
O591   Zn595   2.005   .     S
O592   Zn594   1.898   .     S
O593   Zn595   1.943   .     S
O596   H597    0.990   .     S
O600   H601    0.979   .     S
O602   H603    0.978   .     S
O606   H607    0.989   .     S
O609   H610    0.992   .     S
C611   C627    1.442   .     S
C611   O647    1.288   .     A
C611   O648    1.300   .     A
C612   C613    1.411   .     A
C612   C65     1.420   1_556 S
C612   C89     1.436   1_556 S
C613   C620    1.403   .     A
C613   C617    1.414   .     A
C614   C618    1.396   .     A
C615   C616    1.407   .     A
C615   C65     1.429   1_556 S
C615   C85     1.411   1_556 S
C616   C617    1.401   .     A
C616   I665    2.148   .     S
C617   I669    2.139   .     S
C618   C635    1.387   .     A
C618   H643    1.076   .     S
C619   C634    1.390   .     A
C619   H639    1.084   .     S
C619   C635    1.393   .     A
C620   C636    1.395   .     A
C620   C622    1.455   .     S
C621   O670    1.381   .     S
C621   C627    1.417   .     A
C621   C806    1.394   .     S
C622   O650    1.301   .     A
C622   O649    1.292   .     A
C623   C624    1.407   .     A
C623   O657    1.385   .     S
C623   C987    1.394   1_545 S
C624   C632    1.434   .     S
C624   C625    1.391   .     A
C625   H640    1.083   .     S
C625   C992    1.364   1_545 S
C626   I659    2.136   .     S
C626   C627    1.412   .     A
C626   C808    1.364   .     S
C628   H641    1.082   .     S
C628   N646    1.359   .     A
C628   C690    1.417   .     S
C629   N645    1.383   .     A
C629   I660    2.121   .     S
C630   O661    1.376   .     S
C630   N645    1.373   .     A
C631   O663    1.376   .     S
C631   N646    1.381   .     A
C631   C691    1.409   .     S
C632   O652    1.289   .     A
C632   O651    1.295   .     A
C633   C635    1.448   .     S
C633   O653    1.298   .     A
C633   O654    1.296   .     A
C634   H642    1.079   .     S
C636   C637    1.385   .     A
C636   H644    1.084   .     S
C637   C89     1.413   1_556 S
C637   O118    1.380   1_556 S
C638   I666    2.147   .     S
N645   Zn655   2.025   .     S
N646   Zn656   2.025   .     S
O647   Zn655   2.005   .     S
O648   Zn656   1.995   .     S
O649   Zn655   1.943   .     S
O650   Zn656   1.898   .     S
O651   Zn655   1.995   .     S
O652   Zn656   2.005   .     S
O653   Zn655   1.898   .     S
O654   Zn656   1.943   .     S
O657   H658    0.990   .     S
O661   H662    0.979   .     S
O663   H664    0.978   .     S
O667   H668    0.989   .     S
O670   H671    0.992   .     S
C672   C688    1.442   .     S
C672   O708    1.288   .     A
C672   O709    1.300   .     A
C673   C674    1.411   .     A
C673   C126    1.420   1_556 S
C673   C150    1.436   1_556 S
C674   C681    1.403   .     A
C674   C678    1.414   .     A
C675   C679    1.396   .     A
C676   C677    1.407   .     A
C676   C126    1.429   1_556 S
C676   C146    1.411   1_556 S
C677   C678    1.401   .     A
C677   I726    2.148   .     S
C678   I730    2.139   .     S
C679   C696    1.387   .     A
C679   H704    1.076   .     S
C680   C695    1.390   .     A
C680   H700    1.084   .     S
C680   C696    1.393   .     A
C681   C697    1.395   .     A
C681   C683    1.455   .     S
C682   O731    1.381   .     S
C682   C688    1.417   .     A
C682   C867    1.394   .     S
C683   O711    1.301   .     A
C683   O710    1.292   .     A
C684   C685    1.407   .     A
C684   O718    1.385   .     S
C684   C1048   1.394   1_545 S
C685   C693    1.434   .     S
C685   C686    1.391   .     A
C686   H701    1.083   .     S
C686   C1053   1.364   1_545 S
C687   I720    2.136   .     S
C687   C688    1.412   .     A
C687   C869    1.364   .     S
C689   H702    1.082   .     S
C689   N707    1.359   .     A
C689   C568    1.417   1_655 S
C690   N706    1.383   .     A
C690   I721    2.121   .     S
C691   O722    1.376   .     S
C691   N706    1.373   .     A
C692   O724    1.376   .     S
C692   N707    1.381   .     A
C692   C569    1.409   1_655 S
C693   O713    1.289   .     A
C693   O712    1.295   .     A
C694   C696    1.448   .     S
C694   O714    1.298   .     A
C694   O715    1.296   .     A
C695   H703    1.079   .     S
C697   C698    1.385   .     A
C697   H705    1.084   .     S
C698   C150    1.413   1_556 S
C698   O179    1.380   1_556 S
C699   I727    2.147   .     S
N706   Zn716   2.025   .     S
N707   Zn717   2.025   .     S
O708   Zn716   2.005   .     S
O709   Zn717   1.995   .     S
O710   Zn716   1.943   .     S
O711   Zn717   1.898   .     S
O712   Zn716   1.995   .     S
O713   Zn717   2.005   .     S
O714   Zn716   1.898   .     S
O715   Zn717   1.943   .     S
O718   H719    0.990   .     S
O722   H723    0.979   .     S
O724   H725    0.978   .     S
O728   H729    0.989   .     S
O731   H732    0.992   .     S
C733   C749    1.442   .     S
C733   O769    1.288   .     A
C733   O770    1.300   .     A
C734   C735    1.411   .     A
C734   C187    1.420   1_556 S
C734   C211    1.436   1_556 S
C735   C742    1.403   .     A
C735   C739    1.414   .     A
C736   C740    1.396   .     A
C737   C738    1.407   .     A
C737   C187    1.429   1_556 S
C737   C207    1.411   1_556 S
C738   C739    1.401   .     A
C738   I787    2.148   .     S
C739   I791    2.139   .     S
C740   C757    1.387   .     A
C740   H765    1.076   .     S
C741   C756    1.390   .     A
C741   H761    1.084   .     S
C741   C757    1.393   .     A
C742   C758    1.395   .     A
C742   C744    1.455   .     S
C743   O792    1.381   .     S
C743   C749    1.417   .     A
C743   C928    1.394   .     S
C744   O772    1.301   .     A
C744   O771    1.292   .     A
C745   C746    1.407   .     A
C745   O779    1.385   .     S
C746   C754    1.434   .     S
C746   C747    1.391   .     A
C747   H762    1.083   .     S
C748   I781    2.136   .     S
C748   C749    1.412   .     A
C748   C930    1.364   .     S
C750   H763    1.082   .     S
C750   N768    1.359   .     A
C750   C812    1.417   .     S
C751   N767    1.383   .     A
C751   I782    2.121   .     S
C751   C872    1.417   1_455 S
C752   O783    1.376   .     S
C752   N767    1.373   .     A
C752   C875    1.409   1_455 S
C753   O785    1.376   .     S
C753   N768    1.381   .     A
C753   C813    1.409   .     S
C754   O774    1.289   .     A
C754   O773    1.295   .     A
C755   C757    1.448   .     S
C755   O775    1.298   .     A
C755   O776    1.296   .     A
C756   H764    1.079   .     S
C758   C759    1.385   .     A
C758   H766    1.084   .     S
C759   C211    1.413   1_556 S
C759   O240    1.380   1_556 S
C760   I788    2.147   .     S
N767   Zn777   2.025   .     S
N768   Zn778   2.025   .     S
O769   Zn777   2.005   .     S
O770   Zn778   1.995   .     S
O771   Zn777   1.943   .     S
O772   Zn778   1.898   .     S
O773   Zn777   1.995   .     S
O774   Zn778   2.005   .     S
O775   Zn777   1.898   .     S
O776   Zn778   1.943   .     S
O779   H780    0.990   .     S
O783   H784    0.979   .     S
O785   H786    0.978   .     S
O789   H790    0.989   .     S
O792   H793    0.992   .     S
C794   C810    1.442   .     S
C794   O830    1.288   .     A
C794   O831    1.300   .     A
C795   C796    1.411   .     A
C795   C248    1.420   1_556 S
C795   C272    1.436   1_556 S
C796   C803    1.403   .     A
C796   C800    1.414   .     A
C797   C801    1.396   .     A
C798   C799    1.407   .     A
C798   C248    1.429   1_556 S
C798   C268    1.411   1_556 S
C799   C800    1.401   .     A
C799   I848    2.148   .     S
C800   I852    2.139   .     S
C801   C818    1.387   .     A
C801   H826    1.076   .     S
C802   C817    1.390   .     A
C802   H822    1.084   .     S
C802   C818    1.393   .     A
C803   C819    1.395   .     A
C803   C805    1.455   .     S
C804   O853    1.381   .     S
C804   C810    1.417   .     A
C804   C989    1.394   .     S
C805   O833    1.301   .     A
C805   O832    1.292   .     A
C806   C807    1.407   .     A
C806   O840    1.385   .     S
C807   C815    1.434   .     S
C807   C808    1.391   .     A
C808   H823    1.083   .     S
C809   I842    2.136   .     S
C809   C810    1.412   .     A
C809   C991    1.364   .     S
C811   H824    1.082   .     S
C811   N829    1.359   .     A
C811   C873    1.417   .     S
C812   N828    1.383   .     A
C812   I843    2.121   .     S
C813   O844    1.376   .     S
C813   N828    1.373   .     A
C814   O846    1.376   .     S
C814   N829    1.381   .     A
C814   C874    1.409   .     S
C815   O835    1.289   .     A
C815   O834    1.295   .     A
C816   C818    1.448   .     S
C816   O836    1.298   .     A
C816   O837    1.296   .     A
C817   H825    1.079   .     S
C819   C820    1.385   .     A
C819   H827    1.084   .     S
C820   C272    1.413   1_556 S
C820   O301    1.380   1_556 S
C821   I849    2.147   .     S
N828   Zn838   2.025   .     S
N829   Zn839   2.025   .     S
O830   Zn838   2.005   .     S
O831   Zn839   1.995   .     S
O832   Zn838   1.943   .     S
O833   Zn839   1.898   .     S
O834   Zn838   1.995   .     S
O835   Zn839   2.005   .     S
O836   Zn838   1.898   .     S
O837   Zn839   1.943   .     S
O840   H841    0.990   .     S
O844   H845    0.979   .     S
O846   H847    0.978   .     S
O850   H851    0.989   .     S
O853   H854    0.992   .     S
C855   C871    1.442   .     S
C855   O891    1.288   .     A
C855   O892    1.300   .     A
C856   C857    1.411   .     A
C856   C309    1.420   1_556 S
C856   C333    1.436   1_556 S
C857   C864    1.403   .     A
C857   C861    1.414   .     A
C858   C862    1.396   .     A
C859   C860    1.407   .     A
C859   C309    1.429   1_556 S
C859   C329    1.411   1_556 S
C860   C861    1.401   .     A
C860   I909    2.148   .     S
C861   I913    2.139   .     S
C862   C879    1.387   .     A
C862   H887    1.076   .     S
C863   C878    1.390   .     A
C863   H883    1.084   .     S
C863   C879    1.393   .     A
C864   C880    1.395   .     A
C864   C866    1.455   .     S
C865   O914    1.381   .     S
C865   C871    1.417   .     A
C865   C1050   1.394   .     S
C866   O894    1.301   .     A
C866   O893    1.292   .     A
C867   C868    1.407   .     A
C867   O901    1.385   .     S
C868   C876    1.434   .     S
C868   C869    1.391   .     A
C869   H884    1.083   .     S
C870   I903    2.136   .     S
C870   C871    1.412   .     A
C870   C1052   1.364   .     S
C872   H885    1.082   .     S
C872   N890    1.359   .     A
C872   C751    1.417   1_655 S
C873   N889    1.383   .     A
C873   I904    2.121   .     S
C874   O905    1.376   .     S
C874   N889    1.373   .     A
C875   O907    1.376   .     S
C875   N890    1.381   .     A
C875   C752    1.409   1_655 S
C876   O896    1.289   .     A
C876   O895    1.295   .     A
C877   C879    1.448   .     S
C877   O897    1.298   .     A
C877   O898    1.296   .     A
C878   H886    1.079   .     S
C880   C881    1.385   .     A
C880   H888    1.084   .     S
C881   C333    1.413   1_556 S
C881   O362    1.380   1_556 S
C882   I910    2.147   .     S
N889   Zn899   2.025   .     S
N890   Zn900   2.025   .     S
O891   Zn899   2.005   .     S
O892   Zn900   1.995   .     S
O893   Zn899   1.943   .     S
O894   Zn900   1.898   .     S
O895   Zn899   1.995   .     S
O896   Zn900   2.005   .     S
O897   Zn899   1.898   .     S
O898   Zn900   1.943   .     S
O901   H902    0.990   .     S
O905   H906    0.979   .     S
O907   H908    0.978   .     S
O911   H912    0.989   .     S
O914   H915    0.992   .     S
C916   C932    1.442   .     S
C916   O952    1.288   .     A
C916   O953    1.300   .     A
C917   C918    1.411   .     A
C917   C370    1.420   1_556 S
C917   C394    1.436   1_556 S
C918   C925    1.403   .     A
C918   C922    1.414   .     A
C919   C923    1.396   .     A
C920   C921    1.407   .     A
C920   C370    1.429   1_556 S
C920   C390    1.411   1_556 S
C921   C922    1.401   .     A
C921   I970    2.148   .     S
C922   I974    2.139   .     S
C923   C940    1.387   .     A
C923   H948    1.076   .     S
C924   C939    1.390   .     A
C924   H944    1.084   .     S
C924   C940    1.393   .     A
C925   C941    1.395   .     A
C925   C927    1.455   .     S
C926   O975    1.381   .     S
C926   C932    1.417   .     A
C926   C562    1.394   1_565 S
C927   O955    1.301   .     A
C927   O954    1.292   .     A
C928   C929    1.407   .     A
C928   O962    1.385   .     S
C929   C937    1.434   .     S
C929   C930    1.391   .     A
C930   H945    1.083   .     S
C931   I964    2.136   .     S
C931   C932    1.412   .     A
C931   C564    1.364   1_565 S
C933   H946    1.082   .     S
C933   N951    1.359   .     A
C933   C995    1.417   .     S
C934   N950    1.383   .     A
C934   I965    2.121   .     S
C934   C1055   1.417   1_455 S
C935   O966    1.376   .     S
C935   N950    1.373   .     A
C935   C1058   1.409   1_455 S
C936   O968    1.376   .     S
C936   N951    1.381   .     A
C936   C996    1.409   .     S
C937   O957    1.289   .     A
C937   O956    1.295   .     A
C938   C940    1.448   .     S
C938   O958    1.298   .     A
C938   O959    1.296   .     A
C939   H947    1.079   .     S
C941   C942    1.385   .     A
C941   H949    1.084   .     S
C942   C394    1.413   1_556 S
C942   O423    1.380   1_556 S
C943   I971    2.147   .     S
N950   Zn960   2.025   .     S
N951   Zn961   2.025   .     S
O952   Zn960   2.005   .     S
O953   Zn961   1.995   .     S
O954   Zn960   1.943   .     S
O955   Zn961   1.898   .     S
O956   Zn960   1.995   .     S
O957   Zn961   2.005   .     S
O958   Zn960   1.898   .     S
O959   Zn961   1.943   .     S
O962   H963    0.990   .     S
O966   H967    0.979   .     S
O968   H969    0.978   .     S
O972   H973    0.989   .     S
O975   H976    0.992   .     S
C977   C993    1.442   .     S
C977   O1013   1.288   .     A
C977   O1014   1.300   .     A
C978   C979    1.411   .     A
C978   C431    1.420   1_556 S
C978   C455    1.436   1_556 S
C979   C986    1.403   .     A
C979   C983    1.414   .     A
C980   C984    1.396   .     A
C981   C982    1.407   .     A
C981   C431    1.429   1_556 S
C981   C451    1.411   1_556 S
C982   C983    1.401   .     A
C982   I1031   2.148   .     S
C983   I1035   2.139   .     S
C984   C1001   1.387   .     A
C984   H1009   1.076   .     S
C985   C1000   1.390   .     A
C985   H1005   1.084   .     S
C985   C1001   1.393   .     A
C986   C1002   1.395   .     A
C986   C988    1.455   .     S
C987   O1036   1.381   .     S
C987   C993    1.417   .     A
C987   C623    1.394   1_565 S
C988   O1016   1.301   .     A
C988   O1015   1.292   .     A
C989   C990    1.407   .     A
C989   O1023   1.385   .     S
C990   C998    1.434   .     S
C990   C991    1.391   .     A
C991   H1006   1.083   .     S
C992   I1025   2.136   .     S
C992   C993    1.412   .     A
C992   C625    1.364   1_565 S
C994   H1007   1.082   .     S
C994   N1012   1.359   .     A
C994   C1056   1.417   .     S
C995   N1011   1.383   .     A
C995   I1026   2.121   .     S
C996   O1027   1.376   .     S
C996   N1011   1.373   .     A
C997   O1029   1.376   .     S
C997   N1012   1.381   .     A
C997   C1057   1.409   .     S
C998   O1018   1.289   .     A
C998   O1017   1.295   .     A
C999   C1001   1.448   .     S
C999   O1019   1.298   .     A
C999   O1020   1.296   .     A
C1000  H1008   1.079   .     S
C1002  C1003   1.385   .     A
C1002  H1010   1.084   .     S
C1003  C455    1.413   1_556 S
C1003  O484    1.380   1_556 S
C1004  I1032   2.147   .     S
N1011  Zn1021  2.025   .     S
N1012  Zn1022  2.025   .     S
O1013  Zn1021  2.005   .     S
O1014  Zn1022  1.995   .     S
O1015  Zn1021  1.943   .     S
O1016  Zn1022  1.898   .     S
O1017  Zn1021  1.995   .     S
O1018  Zn1022  2.005   .     S
O1019  Zn1021  1.898   .     S
O1020  Zn1022  1.943   .     S
O1023  H1024   0.990   .     S
O1027  H1028   0.979   .     S
O1029  H1030   0.978   .     S
O1033  H1034   0.989   .     S
O1036  H1037   0.992   .     S
C1038  C1054   1.442   .     S
C1038  O1074   1.288   .     A
C1038  O1075   1.300   .     A
C1039  C1040   1.411   .     A
C1039  C492    1.420   1_556 S
C1039  C516    1.436   1_556 S
C1040  C1047   1.403   .     A
C1040  C1044   1.414   .     A
C1041  C1045   1.396   .     A
C1042  C1043   1.407   .     A
C1042  C492    1.429   1_556 S
C1042  C512    1.411   1_556 S
C1043  C1044   1.401   .     A
C1043  I1092   2.148   .     S
C1044  I1096   2.139   .     S
C1045  C1062   1.387   .     A
C1045  H1070   1.076   .     S
C1046  C1061   1.390   .     A
C1046  H1066   1.084   .     S
C1046  C1062   1.393   .     A
C1047  C1063   1.395   .     A
C1047  C1049   1.455   .     S
C1048  O1097   1.381   .     S
C1048  C1054   1.417   .     A
C1048  C684    1.394   1_565 S
C1049  O1077   1.301   .     A
C1049  O1076   1.292   .     A
C1050  C1051   1.407   .     A
C1050  O1084   1.385   .     S
C1051  C1059   1.434   .     S
C1051  C1052   1.391   .     A
C1052  H1067   1.083   .     S
C1053  I1086   2.136   .     S
C1053  C1054   1.412   .     A
C1053  C686    1.364   1_565 S
C1055  H1068   1.082   .     S
C1055  N1073   1.359   .     A
C1055  C934    1.417   1_655 S
C1056  N1072   1.383   .     A
C1056  I1087   2.121   .     S
C1057  O1088   1.376   .     S
C1057  N1072   1.373   .     A
C1058  O1090   1.376   .     S
C1058  N1073   1.381   .     A
C1058  C935    1.409   1_655 S
C1059  O1079   1.289   .     A
C1059  O1078   1.295   .     A
C1060  C1062   1.448   .     S
C1060  O1080   1.298   .     A
C1060  O1081   1.296   .     A
C1061  H1069   1.079   .     S
C1063  C1064   1.385   .     A
C1063  H1071   1.084   .     S
C1064  C516    1.413   1_556 S
C1064  O545    1.380   1_556 S
C1065  I1093   2.147   .     S
N1072  Zn1082  2.025   .     S
N1073  Zn1083  2.025   .     S
O1074  Zn1082  2.005   .     S
O1075  Zn1083  1.995   .     S
O1076  Zn1082  1.943   .     S
O1077  Zn1083  1.898   .     S
O1078  Zn1082  1.995   .     S
O1079  Zn1083  2.005   .     S
O1080  Zn1082  1.898   .     S
O1081  Zn1083  1.943   .     S
O1084  H1085   0.990   .     S
O1088  H1089   0.979   .     S
O1090  H1091   0.978   .     S
O1094  H1095   0.989   .     S
O1097  H1098   0.992   .     S
