data_str_m2_o1_o16_pcu_sym.57
_audit_creation_date              2020-01-03
_audit_creation_method            'Materials Studio'
_symmetry_space_group_name_H-M    'P1'
_symmetry_Int_Tables_number       1
_symmetry_cell_setting            triclinic
loop_
_symmetry_equiv_pos_as_xyz
  x,y,z
_cell_length_a                    28.5879
_cell_length_b                    32.5882
_cell_length_c                    26.8663
_cell_angle_alpha                 90.7560
_cell_angle_beta                  72.2406
_cell_angle_gamma                 90.3314
loop_
_atom_site_label
_atom_site_type_symbol
_atom_site_fract_x
_atom_site_fract_y
_atom_site_fract_z
_atom_site_U_iso_or_equiv
_atom_site_adp_type
_atom_site_occupancy
O1     O     0.12708   0.22678   0.25000   0.00000  Uiso   1.00
O2     O     0.20627   0.22679   0.25000   0.00000  Uiso   1.00
C3     C     0.16687   0.24603   0.25036   0.00000  Uiso   1.00
O4     O     0.10775   0.16665   0.32549   0.00000  Uiso   1.00
O5     O     0.18694   0.16666   0.32549   0.00000  Uiso   1.00
C6     C     0.14014   0.16658   0.35033   0.00000  Uiso   1.00
Cu7    Cu    0.11978   0.16666   0.25000   0.00000  Uiso   1.00
Cu8    Cu    0.21355   0.16667   0.25000   0.00000  Uiso   1.00
O9     O     0.12706   0.10654   0.24999   0.00000  Uiso   1.00
O10    O     0.20625   0.10655   0.24999   0.00000  Uiso   1.00
O11    O     0.14640   0.16667   0.17451   0.00000  Uiso   1.00
O12    O     0.22559   0.16668   0.17451   0.00000  Uiso   1.00
C13    C     0.16651   0.08744   0.25005   0.00000  Uiso   1.00
C14    C     0.19299   0.16722   0.14999   0.00000  Uiso   1.00
C15    C     0.25385   0.21238   0.01907   0.00000  Uiso   1.00
H16    H     0.27188   0.20977   0.09063   0.00000  Uiso   1.00
C17    C     0.20792   0.17324   0.09356   0.00000  Uiso   1.00
C18    C     0.08204   0.13790   0.43211   0.00000  Uiso   1.00
C19    C     0.07232   0.12626   0.48437   0.00000  Uiso   1.00
C20    C     0.10486   0.13777   0.01167   0.00000  Uiso   1.00
C21    C     0.14644   0.16270   0.48897   0.00000  Uiso   1.00
C22    C     0.15348   0.17748   0.43789   0.00000  Uiso   1.00
C23    C     0.18089   0.17386   0.01569   0.00000  Uiso   1.00
C24    C     0.22034   0.20117   0.49202   0.00000  Uiso   1.00
C25    C     0.22375   0.21854   0.44336   0.00000  Uiso   1.00
C26    C     0.18982   0.20743   0.41778   0.00000  Uiso   1.00
C27    C     0.17662   0.15946   0.06604   0.00000  Uiso   1.00
C28    C     0.24762   0.19852   0.06940   0.00000  Uiso   1.00
C29    C     0.12371   0.16238   0.40794   0.00000  Uiso   1.00
H30    H     0.14812   0.13856   0.08626   0.00000  Uiso   1.00
H31    H     0.09535   0.12756   0.05139   0.00000  Uiso   1.00
C32    C     0.21055   0.31324   0.24930   0.00000  Uiso   1.00
C33    C     0.20943   0.02231   0.24910   0.00000  Uiso   1.00
C34    C     0.16647   0.04297   0.25021   0.00000  Uiso   1.00
C35    C     0.12392   0.02098   0.25170   0.00000  Uiso   1.00
H36    H     0.09025   0.03651   0.25268   0.00000  Uiso   1.00
C37    C     0.12445   0.31184   0.25208   0.00000  Uiso   1.00
H38    H     0.09101   0.29553   0.25324   0.00000  Uiso   1.00
C39    C     0.16754   0.29081   0.25085   0.00000  Uiso   1.00
C40    C     0.29786   0.18712   0.28802   0.00000  Uiso   1.00
H41    H     0.27078   0.20352   0.31853   0.00000  Uiso   1.00
C42    C     0.01413   0.18735   0.28779   0.00000  Uiso   1.00
N43    N     0.04931   0.16666   0.24998   0.00000  Uiso   1.00
C44    C     0.03581   0.14619   0.21205   0.00000  Uiso   1.00
H45    H     0.06326   0.12973   0.18172   0.00000  Uiso   1.00
C46    C     0.31979   0.14629   0.21163   0.00000  Uiso   1.00
N47    N     0.28402   0.16669   0.24999   0.00000  Uiso   1.00
H48    H     0.24241   0.03898   0.24873   0.00000  Uiso   1.00
H49    H     0.02435   0.20413   0.31785   0.00000  Uiso   1.00
N50    N     0.30838   0.12581   0.16957   0.00000  Uiso   1.00
O51    O     0.29534   0.08744   0.17427   0.00000  Uiso   1.00
O52    O     0.32422   0.14138   0.12308   0.00000  Uiso   1.00
N53    N     0.26071   0.24838   0.41973   0.00000  Uiso   1.00
O54    O     0.30701   0.23904   0.40814   0.00000  Uiso   1.00
O55    O     0.24823   0.28271   0.40315   0.00000  Uiso   1.00
H56    H     0.28363   0.23360   0.00295   0.00000  Uiso   1.00
N57    N     0.05175   0.12188   0.40263   0.00000  Uiso   1.00
O58    O     0.05578   0.08362   0.38755   0.00000  Uiso   1.00
O59    O     0.01616   0.14400   0.39665   0.00000  Uiso   1.00
N60    N     0.03029   0.10128   0.00969   0.00000  Uiso   1.00
O61    O     0.32183   0.10691   0.00087   0.00000  Uiso   1.00
O62    O     0.03266   0.07465   0.04452   0.00000  Uiso   1.00
H63    H     0.19215   0.22288   0.38171   0.00000  Uiso   1.00
N64    N     0.25559   0.29392   0.24852   0.00000  Uiso   1.00
O65    O     0.29449   0.29888   0.20849   0.00000  Uiso   1.00
O66    O     0.26059   0.28035   0.29189   0.00000  Uiso   1.00
O67    O     0.46042   0.22678   0.25000   0.00000  Uiso   1.00
O68    O     0.53961   0.22679   0.25000   0.00000  Uiso   1.00
C69    C     0.50020   0.24603   0.25036   0.00000  Uiso   1.00
O70    O     0.44108   0.16665   0.32549   0.00000  Uiso   1.00
O71    O     0.52027   0.16666   0.32549   0.00000  Uiso   1.00
C72    C     0.47347   0.16658   0.35033   0.00000  Uiso   1.00
Cu73   Cu    0.45311   0.16666   0.25000   0.00000  Uiso   1.00
Cu74   Cu    0.54689   0.16667   0.25000   0.00000  Uiso   1.00
O75    O     0.46039   0.10654   0.24999   0.00000  Uiso   1.00
O76    O     0.53958   0.10655   0.24999   0.00000  Uiso   1.00
O77    O     0.47973   0.16667   0.17451   0.00000  Uiso   1.00
O78    O     0.55892   0.16668   0.17451   0.00000  Uiso   1.00
C79    C     0.49984   0.08744   0.25005   0.00000  Uiso   1.00
C80    C     0.52632   0.16722   0.14999   0.00000  Uiso   1.00
C81    C     0.58718   0.21238   0.01907   0.00000  Uiso   1.00
H82    H     0.60521   0.20977   0.09063   0.00000  Uiso   1.00
C83    C     0.54126   0.17324   0.09356   0.00000  Uiso   1.00
C84    C     0.41538   0.13790   0.43211   0.00000  Uiso   1.00
C85    C     0.40565   0.12626   0.48437   0.00000  Uiso   1.00
C86    C     0.43819   0.13777   0.01167   0.00000  Uiso   1.00
C87    C     0.47978   0.16270   0.48897   0.00000  Uiso   1.00
C88    C     0.48681   0.17748   0.43789   0.00000  Uiso   1.00
C89    C     0.51422   0.17386   0.01569   0.00000  Uiso   1.00
C90    C     0.55368   0.20117   0.49202   0.00000  Uiso   1.00
C91    C     0.55709   0.21854   0.44336   0.00000  Uiso   1.00
C92    C     0.52316   0.20743   0.41778   0.00000  Uiso   1.00
C93    C     0.50995   0.15946   0.06604   0.00000  Uiso   1.00
C94    C     0.58095   0.19852   0.06940   0.00000  Uiso   1.00
C95    C     0.45705   0.16238   0.40794   0.00000  Uiso   1.00
H96    H     0.48145   0.13856   0.08626   0.00000  Uiso   1.00
H97    H     0.42869   0.12756   0.05139   0.00000  Uiso   1.00
C98    C     0.54389   0.31324   0.24930   0.00000  Uiso   1.00
C99    C     0.54276   0.02231   0.24910   0.00000  Uiso   1.00
C100   C     0.49980   0.04297   0.25021   0.00000  Uiso   1.00
C101   C     0.45726   0.02098   0.25170   0.00000  Uiso   1.00
H102   H     0.42358   0.03651   0.25268   0.00000  Uiso   1.00
C103   C     0.45779   0.31184   0.25208   0.00000  Uiso   1.00
H104   H     0.42435   0.29553   0.25324   0.00000  Uiso   1.00
C105   C     0.50087   0.29081   0.25085   0.00000  Uiso   1.00
C106   C     0.63119   0.18712   0.28802   0.00000  Uiso   1.00
H107   H     0.60412   0.20352   0.31853   0.00000  Uiso   1.00
C108   C     0.34746   0.18735   0.28779   0.00000  Uiso   1.00
N109   N     0.38265   0.16666   0.24998   0.00000  Uiso   1.00
C110   C     0.36914   0.14619   0.21205   0.00000  Uiso   1.00
H111   H     0.39660   0.12973   0.18172   0.00000  Uiso   1.00
C112   C     0.65312   0.14629   0.21163   0.00000  Uiso   1.00
N113   N     0.61735   0.16669   0.24999   0.00000  Uiso   1.00
H114   H     0.57574   0.03898   0.24873   0.00000  Uiso   1.00
H115   H     0.35768   0.20413   0.31785   0.00000  Uiso   1.00
N116   N     0.64172   0.12581   0.16957   0.00000  Uiso   1.00
O117   O     0.62868   0.08744   0.17427   0.00000  Uiso   1.00
O118   O     0.65755   0.14138   0.12308   0.00000  Uiso   1.00
N119   N     0.59404   0.24838   0.41973   0.00000  Uiso   1.00
O120   O     0.64034   0.23904   0.40814   0.00000  Uiso   1.00
O121   O     0.58157   0.28271   0.40315   0.00000  Uiso   1.00
H122   H     0.61697   0.23360   0.00295   0.00000  Uiso   1.00
N123   N     0.38509   0.12188   0.40263   0.00000  Uiso   1.00
O124   O     0.38911   0.08362   0.38755   0.00000  Uiso   1.00
O125   O     0.34949   0.14400   0.39665   0.00000  Uiso   1.00
N126   N     0.36362   0.10128   0.00969   0.00000  Uiso   1.00
O127   O     0.65517   0.10691   0.00087   0.00000  Uiso   1.00
O128   O     0.36599   0.07465   0.04452   0.00000  Uiso   1.00
H129   H     0.52548   0.22288   0.38171   0.00000  Uiso   1.00
N130   N     0.58892   0.29392   0.24852   0.00000  Uiso   1.00
O131   O     0.62782   0.29888   0.20849   0.00000  Uiso   1.00
O132   O     0.59393   0.28035   0.29189   0.00000  Uiso   1.00
O133   O     0.79375   0.22678   0.25000   0.00000  Uiso   1.00
O134   O     0.87294   0.22679   0.25000   0.00000  Uiso   1.00
C135   C     0.83354   0.24603   0.25036   0.00000  Uiso   1.00
O136   O     0.77441   0.16665   0.32549   0.00000  Uiso   1.00
O137   O     0.85360   0.16666   0.32549   0.00000  Uiso   1.00
C138   C     0.80680   0.16658   0.35033   0.00000  Uiso   1.00
Cu139  Cu    0.78645   0.16666   0.25000   0.00000  Uiso   1.00
Cu140  Cu    0.88022   0.16667   0.25000   0.00000  Uiso   1.00
O141   O     0.79373   0.10654   0.24999   0.00000  Uiso   1.00
O142   O     0.87292   0.10655   0.24999   0.00000  Uiso   1.00
O143   O     0.81306   0.16667   0.17451   0.00000  Uiso   1.00
O144   O     0.89225   0.16668   0.17451   0.00000  Uiso   1.00
C145   C     0.83318   0.08744   0.25005   0.00000  Uiso   1.00
C146   C     0.85965   0.16722   0.14999   0.00000  Uiso   1.00
C147   C     0.92051   0.21238   0.01907   0.00000  Uiso   1.00
H148   H     0.93855   0.20977   0.09063   0.00000  Uiso   1.00
C149   C     0.87459   0.17324   0.09356   0.00000  Uiso   1.00
C150   C     0.74871   0.13790   0.43211   0.00000  Uiso   1.00
C151   C     0.73898   0.12626   0.48437   0.00000  Uiso   1.00
C152   C     0.77152   0.13777   0.01167   0.00000  Uiso   1.00
C153   C     0.81311   0.16270   0.48897   0.00000  Uiso   1.00
C154   C     0.82014   0.17748   0.43789   0.00000  Uiso   1.00
C155   C     0.84756   0.17386   0.01569   0.00000  Uiso   1.00
C156   C     0.88701   0.20117   0.49202   0.00000  Uiso   1.00
C157   C     0.89042   0.21854   0.44336   0.00000  Uiso   1.00
C158   C     0.85649   0.20743   0.41778   0.00000  Uiso   1.00
C159   C     0.84328   0.15946   0.06604   0.00000  Uiso   1.00
C160   C     0.91429   0.19852   0.06940   0.00000  Uiso   1.00
C161   C     0.79038   0.16238   0.40794   0.00000  Uiso   1.00
H162   H     0.81479   0.13856   0.08626   0.00000  Uiso   1.00
H163   H     0.76202   0.12756   0.05139   0.00000  Uiso   1.00
C164   C     0.87722   0.31324   0.24930   0.00000  Uiso   1.00
C165   C     0.87609   0.02231   0.24910   0.00000  Uiso   1.00
C166   C     0.83313   0.04297   0.25021   0.00000  Uiso   1.00
C167   C     0.79059   0.02098   0.25170   0.00000  Uiso   1.00
H168   H     0.75691   0.03651   0.25268   0.00000  Uiso   1.00
C169   C     0.79112   0.31184   0.25208   0.00000  Uiso   1.00
H170   H     0.75768   0.29553   0.25324   0.00000  Uiso   1.00
C171   C     0.83421   0.29081   0.25085   0.00000  Uiso   1.00
C172   C     0.96453   0.18712   0.28802   0.00000  Uiso   1.00
H173   H     0.93745   0.20352   0.31853   0.00000  Uiso   1.00
C174   C     0.68079   0.18735   0.28779   0.00000  Uiso   1.00
N175   N     0.71598   0.16666   0.24998   0.00000  Uiso   1.00
C176   C     0.70248   0.14619   0.21205   0.00000  Uiso   1.00
H177   H     0.72993   0.12973   0.18172   0.00000  Uiso   1.00
C178   C     0.98646   0.14629   0.21163   0.00000  Uiso   1.00
N179   N     0.95069   0.16669   0.24999   0.00000  Uiso   1.00
H180   H     0.90907   0.03898   0.24873   0.00000  Uiso   1.00
H181   H     0.69102   0.20413   0.31785   0.00000  Uiso   1.00
N182   N     0.97505   0.12581   0.16957   0.00000  Uiso   1.00
O183   O     0.96201   0.08744   0.17427   0.00000  Uiso   1.00
O184   O     0.99088   0.14138   0.12308   0.00000  Uiso   1.00
N185   N     0.92737   0.24838   0.41973   0.00000  Uiso   1.00
O186   O     0.97367   0.23904   0.40814   0.00000  Uiso   1.00
O187   O     0.91490   0.28271   0.40315   0.00000  Uiso   1.00
H188   H     0.95030   0.23360   0.00295   0.00000  Uiso   1.00
N189   N     0.71842   0.12188   0.40263   0.00000  Uiso   1.00
O190   O     0.72244   0.08362   0.38755   0.00000  Uiso   1.00
O191   O     0.68282   0.14400   0.39665   0.00000  Uiso   1.00
N192   N     0.69696   0.10128   0.00969   0.00000  Uiso   1.00
O193   O     0.98850   0.10691   0.00087   0.00000  Uiso   1.00
O194   O     0.69932   0.07465   0.04452   0.00000  Uiso   1.00
H195   H     0.85882   0.22288   0.38171   0.00000  Uiso   1.00
N196   N     0.92226   0.29392   0.24852   0.00000  Uiso   1.00
O197   O     0.96116   0.29888   0.20849   0.00000  Uiso   1.00
O198   O     0.92726   0.28035   0.29189   0.00000  Uiso   1.00
O199   O     0.12708   0.56011   0.25000   0.00000  Uiso   1.00
O200   O     0.20627   0.56012   0.25000   0.00000  Uiso   1.00
C201   C     0.16687   0.57937   0.25036   0.00000  Uiso   1.00
O202   O     0.10775   0.49998   0.32549   0.00000  Uiso   1.00
O203   O     0.18694   0.49999   0.32549   0.00000  Uiso   1.00
C204   C     0.14014   0.49991   0.35033   0.00000  Uiso   1.00
Cu205  Cu    0.11978   0.49999   0.25000   0.00000  Uiso   1.00
Cu206  Cu    0.21355   0.50001   0.25000   0.00000  Uiso   1.00
O207   O     0.12706   0.43988   0.24999   0.00000  Uiso   1.00
O208   O     0.20625   0.43989   0.24999   0.00000  Uiso   1.00
O209   O     0.14640   0.50001   0.17451   0.00000  Uiso   1.00
O210   O     0.22559   0.50002   0.17451   0.00000  Uiso   1.00
C211   C     0.16651   0.42077   0.25005   0.00000  Uiso   1.00
C212   C     0.19299   0.50055   0.14999   0.00000  Uiso   1.00
C213   C     0.25385   0.54572   0.01907   0.00000  Uiso   1.00
H214   H     0.27188   0.54311   0.09063   0.00000  Uiso   1.00
C215   C     0.20792   0.50657   0.09356   0.00000  Uiso   1.00
C216   C     0.08204   0.47123   0.43211   0.00000  Uiso   1.00
C217   C     0.07232   0.45960   0.48437   0.00000  Uiso   1.00
C218   C     0.10486   0.47110   0.01167   0.00000  Uiso   1.00
C219   C     0.14644   0.49604   0.48897   0.00000  Uiso   1.00
C220   C     0.15348   0.51082   0.43789   0.00000  Uiso   1.00
C221   C     0.18089   0.50720   0.01569   0.00000  Uiso   1.00
C222   C     0.22034   0.53450   0.49202   0.00000  Uiso   1.00
C223   C     0.22375   0.55188   0.44336   0.00000  Uiso   1.00
C224   C     0.18982   0.54077   0.41778   0.00000  Uiso   1.00
C225   C     0.17662   0.49279   0.06604   0.00000  Uiso   1.00
C226   C     0.24762   0.53185   0.06940   0.00000  Uiso   1.00
C227   C     0.12371   0.49571   0.40794   0.00000  Uiso   1.00
H228   H     0.14812   0.47189   0.08626   0.00000  Uiso   1.00
H229   H     0.09535   0.46090   0.05139   0.00000  Uiso   1.00
C230   C     0.21055   0.64657   0.24930   0.00000  Uiso   1.00
C231   C     0.20943   0.35565   0.24910   0.00000  Uiso   1.00
C232   C     0.16647   0.37631   0.25021   0.00000  Uiso   1.00
C233   C     0.12392   0.35431   0.25170   0.00000  Uiso   1.00
H234   H     0.09025   0.36984   0.25268   0.00000  Uiso   1.00
C235   C     0.12445   0.64517   0.25208   0.00000  Uiso   1.00
H236   H     0.09101   0.62886   0.25324   0.00000  Uiso   1.00
C237   C     0.16754   0.62415   0.25085   0.00000  Uiso   1.00
C238   C     0.29786   0.52046   0.28802   0.00000  Uiso   1.00
H239   H     0.27078   0.53685   0.31853   0.00000  Uiso   1.00
C240   C     0.01413   0.52069   0.28779   0.00000  Uiso   1.00
N241   N     0.04931   0.49999   0.24998   0.00000  Uiso   1.00
C242   C     0.03581   0.47952   0.21205   0.00000  Uiso   1.00
H243   H     0.06326   0.46307   0.18172   0.00000  Uiso   1.00
C244   C     0.31979   0.47963   0.21163   0.00000  Uiso   1.00
N245   N     0.28402   0.50002   0.24999   0.00000  Uiso   1.00
H246   H     0.24241   0.37231   0.24873   0.00000  Uiso   1.00
H247   H     0.02435   0.53746   0.31785   0.00000  Uiso   1.00
N248   N     0.30838   0.45915   0.16957   0.00000  Uiso   1.00
O249   O     0.29534   0.42078   0.17427   0.00000  Uiso   1.00
O250   O     0.32422   0.47471   0.12308   0.00000  Uiso   1.00
N251   N     0.26071   0.58171   0.41973   0.00000  Uiso   1.00
O252   O     0.30701   0.57237   0.40814   0.00000  Uiso   1.00
O253   O     0.24823   0.61604   0.40315   0.00000  Uiso   1.00
H254   H     0.28363   0.56694   0.00295   0.00000  Uiso   1.00
N255   N     0.05175   0.45522   0.40263   0.00000  Uiso   1.00
O256   O     0.05578   0.41696   0.38755   0.00000  Uiso   1.00
O257   O     0.01616   0.47733   0.39665   0.00000  Uiso   1.00
N258   N     0.03029   0.43462   0.00969   0.00000  Uiso   1.00
O259   O     0.32183   0.44024   0.00087   0.00000  Uiso   1.00
O260   O     0.03266   0.40799   0.04452   0.00000  Uiso   1.00
H261   H     0.19215   0.55621   0.38171   0.00000  Uiso   1.00
N262   N     0.25559   0.62725   0.24852   0.00000  Uiso   1.00
O263   O     0.29449   0.63221   0.20849   0.00000  Uiso   1.00
O264   O     0.26059   0.61369   0.29189   0.00000  Uiso   1.00
O265   O     0.46042   0.56011   0.25000   0.00000  Uiso   1.00
O266   O     0.53961   0.56012   0.25000   0.00000  Uiso   1.00
C267   C     0.50020   0.57937   0.25036   0.00000  Uiso   1.00
O268   O     0.44108   0.49998   0.32549   0.00000  Uiso   1.00
O269   O     0.52027   0.49999   0.32549   0.00000  Uiso   1.00
C270   C     0.47347   0.49991   0.35033   0.00000  Uiso   1.00
Cu271  Cu    0.45311   0.49999   0.25000   0.00000  Uiso   1.00
Cu272  Cu    0.54689   0.50001   0.25000   0.00000  Uiso   1.00
O273   O     0.46039   0.43988   0.24999   0.00000  Uiso   1.00
O274   O     0.53958   0.43989   0.24999   0.00000  Uiso   1.00
O275   O     0.47973   0.50001   0.17451   0.00000  Uiso   1.00
O276   O     0.55892   0.50002   0.17451   0.00000  Uiso   1.00
C277   C     0.49984   0.42077   0.25005   0.00000  Uiso   1.00
C278   C     0.52632   0.50055   0.14999   0.00000  Uiso   1.00
C279   C     0.58718   0.54572   0.01907   0.00000  Uiso   1.00
H280   H     0.60521   0.54311   0.09063   0.00000  Uiso   1.00
C281   C     0.54126   0.50657   0.09356   0.00000  Uiso   1.00
C282   C     0.41538   0.47123   0.43211   0.00000  Uiso   1.00
C283   C     0.40565   0.45960   0.48437   0.00000  Uiso   1.00
C284   C     0.43819   0.47110   0.01167   0.00000  Uiso   1.00
C285   C     0.47978   0.49604   0.48897   0.00000  Uiso   1.00
C286   C     0.48681   0.51082   0.43789   0.00000  Uiso   1.00
C287   C     0.51422   0.50720   0.01569   0.00000  Uiso   1.00
C288   C     0.55368   0.53450   0.49202   0.00000  Uiso   1.00
C289   C     0.55709   0.55188   0.44336   0.00000  Uiso   1.00
C290   C     0.52316   0.54077   0.41778   0.00000  Uiso   1.00
C291   C     0.50995   0.49279   0.06604   0.00000  Uiso   1.00
C292   C     0.58095   0.53185   0.06940   0.00000  Uiso   1.00
C293   C     0.45705   0.49571   0.40794   0.00000  Uiso   1.00
H294   H     0.48145   0.47189   0.08626   0.00000  Uiso   1.00
H295   H     0.42869   0.46090   0.05139   0.00000  Uiso   1.00
C296   C     0.54389   0.64657   0.24930   0.00000  Uiso   1.00
C297   C     0.54276   0.35565   0.24910   0.00000  Uiso   1.00
C298   C     0.49980   0.37631   0.25021   0.00000  Uiso   1.00
C299   C     0.45726   0.35431   0.25170   0.00000  Uiso   1.00
H300   H     0.42358   0.36984   0.25268   0.00000  Uiso   1.00
C301   C     0.45779   0.64517   0.25208   0.00000  Uiso   1.00
H302   H     0.42435   0.62886   0.25324   0.00000  Uiso   1.00
C303   C     0.50087   0.62415   0.25085   0.00000  Uiso   1.00
C304   C     0.63119   0.52046   0.28802   0.00000  Uiso   1.00
H305   H     0.60412   0.53685   0.31853   0.00000  Uiso   1.00
C306   C     0.34746   0.52069   0.28779   0.00000  Uiso   1.00
N307   N     0.38265   0.49999   0.24998   0.00000  Uiso   1.00
C308   C     0.36914   0.47952   0.21205   0.00000  Uiso   1.00
H309   H     0.39660   0.46307   0.18172   0.00000  Uiso   1.00
C310   C     0.65312   0.47963   0.21163   0.00000  Uiso   1.00
N311   N     0.61735   0.50002   0.24999   0.00000  Uiso   1.00
H312   H     0.57574   0.37231   0.24873   0.00000  Uiso   1.00
H313   H     0.35768   0.53746   0.31785   0.00000  Uiso   1.00
N314   N     0.64172   0.45915   0.16957   0.00000  Uiso   1.00
O315   O     0.62868   0.42078   0.17427   0.00000  Uiso   1.00
O316   O     0.65755   0.47471   0.12308   0.00000  Uiso   1.00
N317   N     0.59404   0.58171   0.41973   0.00000  Uiso   1.00
O318   O     0.64034   0.57237   0.40814   0.00000  Uiso   1.00
O319   O     0.58157   0.61604   0.40315   0.00000  Uiso   1.00
H320   H     0.61697   0.56694   0.00295   0.00000  Uiso   1.00
N321   N     0.38509   0.45522   0.40263   0.00000  Uiso   1.00
O322   O     0.38911   0.41696   0.38755   0.00000  Uiso   1.00
O323   O     0.34949   0.47733   0.39665   0.00000  Uiso   1.00
N324   N     0.36362   0.43462   0.00969   0.00000  Uiso   1.00
O325   O     0.65517   0.44024   0.00087   0.00000  Uiso   1.00
O326   O     0.36599   0.40799   0.04452   0.00000  Uiso   1.00
H327   H     0.52548   0.55621   0.38171   0.00000  Uiso   1.00
N328   N     0.58892   0.62725   0.24852   0.00000  Uiso   1.00
O329   O     0.62782   0.63221   0.20849   0.00000  Uiso   1.00
O330   O     0.59393   0.61369   0.29189   0.00000  Uiso   1.00
O331   O     0.79375   0.56011   0.25000   0.00000  Uiso   1.00
O332   O     0.87294   0.56012   0.25000   0.00000  Uiso   1.00
C333   C     0.83354   0.57937   0.25036   0.00000  Uiso   1.00
O334   O     0.77441   0.49998   0.32549   0.00000  Uiso   1.00
O335   O     0.85360   0.49999   0.32549   0.00000  Uiso   1.00
C336   C     0.80680   0.49991   0.35033   0.00000  Uiso   1.00
Cu337  Cu    0.78645   0.49999   0.25000   0.00000  Uiso   1.00
Cu338  Cu    0.88022   0.50001   0.25000   0.00000  Uiso   1.00
O339   O     0.79373   0.43988   0.24999   0.00000  Uiso   1.00
O340   O     0.87292   0.43989   0.24999   0.00000  Uiso   1.00
O341   O     0.81306   0.50001   0.17451   0.00000  Uiso   1.00
O342   O     0.89225   0.50002   0.17451   0.00000  Uiso   1.00
C343   C     0.83318   0.42077   0.25005   0.00000  Uiso   1.00
C344   C     0.85965   0.50055   0.14999   0.00000  Uiso   1.00
C345   C     0.92051   0.54572   0.01907   0.00000  Uiso   1.00
H346   H     0.93855   0.54311   0.09063   0.00000  Uiso   1.00
C347   C     0.87459   0.50657   0.09356   0.00000  Uiso   1.00
C348   C     0.74871   0.47123   0.43211   0.00000  Uiso   1.00
C349   C     0.73898   0.45960   0.48437   0.00000  Uiso   1.00
C350   C     0.77152   0.47110   0.01167   0.00000  Uiso   1.00
C351   C     0.81311   0.49604   0.48897   0.00000  Uiso   1.00
C352   C     0.82014   0.51082   0.43789   0.00000  Uiso   1.00
C353   C     0.84756   0.50720   0.01569   0.00000  Uiso   1.00
C354   C     0.88701   0.53450   0.49202   0.00000  Uiso   1.00
C355   C     0.89042   0.55188   0.44336   0.00000  Uiso   1.00
C356   C     0.85649   0.54077   0.41778   0.00000  Uiso   1.00
C357   C     0.84328   0.49279   0.06604   0.00000  Uiso   1.00
C358   C     0.91429   0.53185   0.06940   0.00000  Uiso   1.00
C359   C     0.79038   0.49571   0.40794   0.00000  Uiso   1.00
H360   H     0.81479   0.47189   0.08626   0.00000  Uiso   1.00
H361   H     0.76202   0.46090   0.05139   0.00000  Uiso   1.00
C362   C     0.87722   0.64657   0.24930   0.00000  Uiso   1.00
C363   C     0.87609   0.35565   0.24910   0.00000  Uiso   1.00
C364   C     0.83313   0.37631   0.25021   0.00000  Uiso   1.00
C365   C     0.79059   0.35431   0.25170   0.00000  Uiso   1.00
H366   H     0.75691   0.36984   0.25268   0.00000  Uiso   1.00
C367   C     0.79112   0.64517   0.25208   0.00000  Uiso   1.00
H368   H     0.75768   0.62886   0.25324   0.00000  Uiso   1.00
C369   C     0.83421   0.62415   0.25085   0.00000  Uiso   1.00
C370   C     0.96453   0.52046   0.28802   0.00000  Uiso   1.00
H371   H     0.93745   0.53685   0.31853   0.00000  Uiso   1.00
C372   C     0.68079   0.52069   0.28779   0.00000  Uiso   1.00
N373   N     0.71598   0.49999   0.24998   0.00000  Uiso   1.00
C374   C     0.70248   0.47952   0.21205   0.00000  Uiso   1.00
H375   H     0.72993   0.46307   0.18172   0.00000  Uiso   1.00
C376   C     0.98646   0.47963   0.21163   0.00000  Uiso   1.00
N377   N     0.95069   0.50002   0.24999   0.00000  Uiso   1.00
H378   H     0.90907   0.37231   0.24873   0.00000  Uiso   1.00
H379   H     0.69102   0.53746   0.31785   0.00000  Uiso   1.00
N380   N     0.97505   0.45915   0.16957   0.00000  Uiso   1.00
O381   O     0.96201   0.42078   0.17427   0.00000  Uiso   1.00
O382   O     0.99088   0.47471   0.12308   0.00000  Uiso   1.00
N383   N     0.92737   0.58171   0.41973   0.00000  Uiso   1.00
O384   O     0.97367   0.57237   0.40814   0.00000  Uiso   1.00
O385   O     0.91490   0.61604   0.40315   0.00000  Uiso   1.00
H386   H     0.95030   0.56694   0.00295   0.00000  Uiso   1.00
N387   N     0.71842   0.45522   0.40263   0.00000  Uiso   1.00
O388   O     0.72244   0.41696   0.38755   0.00000  Uiso   1.00
O389   O     0.68282   0.47733   0.39665   0.00000  Uiso   1.00
N390   N     0.69696   0.43462   0.00969   0.00000  Uiso   1.00
O391   O     0.98850   0.44024   0.00087   0.00000  Uiso   1.00
O392   O     0.69932   0.40799   0.04452   0.00000  Uiso   1.00
H393   H     0.85882   0.55621   0.38171   0.00000  Uiso   1.00
N394   N     0.92226   0.62725   0.24852   0.00000  Uiso   1.00
O395   O     0.96116   0.63221   0.20849   0.00000  Uiso   1.00
O396   O     0.92726   0.61369   0.29189   0.00000  Uiso   1.00
O397   O     0.12708   0.89345   0.25000   0.00000  Uiso   1.00
O398   O     0.20627   0.89346   0.25000   0.00000  Uiso   1.00
C399   C     0.16687   0.91270   0.25036   0.00000  Uiso   1.00
O400   O     0.10775   0.83332   0.32549   0.00000  Uiso   1.00
O401   O     0.18694   0.83333   0.32549   0.00000  Uiso   1.00
C402   C     0.14014   0.83324   0.35033   0.00000  Uiso   1.00
Cu403  Cu    0.11978   0.83333   0.25000   0.00000  Uiso   1.00
Cu404  Cu    0.21355   0.83334   0.25000   0.00000  Uiso   1.00
O405   O     0.12706   0.77321   0.24999   0.00000  Uiso   1.00
O406   O     0.20625   0.77322   0.24999   0.00000  Uiso   1.00
O407   O     0.14640   0.83334   0.17451   0.00000  Uiso   1.00
O408   O     0.22559   0.83335   0.17451   0.00000  Uiso   1.00
C409   C     0.16651   0.75411   0.25005   0.00000  Uiso   1.00
C410   C     0.19299   0.83388   0.14999   0.00000  Uiso   1.00
C411   C     0.25385   0.87905   0.01907   0.00000  Uiso   1.00
H412   H     0.27188   0.87644   0.09063   0.00000  Uiso   1.00
C413   C     0.20792   0.83991   0.09356   0.00000  Uiso   1.00
C414   C     0.08204   0.80456   0.43211   0.00000  Uiso   1.00
C415   C     0.07232   0.79293   0.48437   0.00000  Uiso   1.00
C416   C     0.10486   0.80443   0.01167   0.00000  Uiso   1.00
C417   C     0.14644   0.82937   0.48897   0.00000  Uiso   1.00
C418   C     0.15348   0.84415   0.43789   0.00000  Uiso   1.00
C419   C     0.18089   0.84053   0.01569   0.00000  Uiso   1.00
C420   C     0.22034   0.86784   0.49202   0.00000  Uiso   1.00
C421   C     0.22375   0.88521   0.44336   0.00000  Uiso   1.00
C422   C     0.18982   0.87410   0.41778   0.00000  Uiso   1.00
C423   C     0.17662   0.82612   0.06604   0.00000  Uiso   1.00
C424   C     0.24762   0.86518   0.06940   0.00000  Uiso   1.00
C425   C     0.12371   0.82905   0.40794   0.00000  Uiso   1.00
H426   H     0.14812   0.80522   0.08626   0.00000  Uiso   1.00
H427   H     0.09535   0.79423   0.05139   0.00000  Uiso   1.00
C428   C     0.21055   0.97990   0.24930   0.00000  Uiso   1.00
C429   C     0.20943   0.68898   0.24910   0.00000  Uiso   1.00
C430   C     0.16647   0.70964   0.25021   0.00000  Uiso   1.00
C431   C     0.12392   0.68765   0.25170   0.00000  Uiso   1.00
H432   H     0.09025   0.70318   0.25268   0.00000  Uiso   1.00
C433   C     0.12445   0.97851   0.25208   0.00000  Uiso   1.00
H434   H     0.09101   0.96220   0.25324   0.00000  Uiso   1.00
C435   C     0.16754   0.95748   0.25085   0.00000  Uiso   1.00
C436   C     0.29786   0.85379   0.28802   0.00000  Uiso   1.00
H437   H     0.27078   0.87019   0.31853   0.00000  Uiso   1.00
C438   C     0.01413   0.85402   0.28779   0.00000  Uiso   1.00
N439   N     0.04931   0.83332   0.24998   0.00000  Uiso   1.00
C440   C     0.03581   0.81286   0.21205   0.00000  Uiso   1.00
H441   H     0.06326   0.79640   0.18172   0.00000  Uiso   1.00
C442   C     0.31979   0.81296   0.21163   0.00000  Uiso   1.00
N443   N     0.28402   0.83335   0.24999   0.00000  Uiso   1.00
H444   H     0.24241   0.70565   0.24873   0.00000  Uiso   1.00
H445   H     0.02435   0.87080   0.31785   0.00000  Uiso   1.00
N446   N     0.30838   0.79248   0.16957   0.00000  Uiso   1.00
O447   O     0.29534   0.75411   0.17427   0.00000  Uiso   1.00
O448   O     0.32422   0.80805   0.12308   0.00000  Uiso   1.00
N449   N     0.26071   0.91504   0.41973   0.00000  Uiso   1.00
O450   O     0.30701   0.90571   0.40814   0.00000  Uiso   1.00
O451   O     0.24823   0.94938   0.40315   0.00000  Uiso   1.00
H452   H     0.28363   0.90027   0.00295   0.00000  Uiso   1.00
N453   N     0.05175   0.78855   0.40263   0.00000  Uiso   1.00
O454   O     0.05578   0.75029   0.38755   0.00000  Uiso   1.00
O455   O     0.01616   0.81067   0.39665   0.00000  Uiso   1.00
N456   N     0.03029   0.76795   0.00969   0.00000  Uiso   1.00
O457   O     0.32183   0.77357   0.00087   0.00000  Uiso   1.00
O458   O     0.03266   0.74132   0.04452   0.00000  Uiso   1.00
H459   H     0.19215   0.88954   0.38171   0.00000  Uiso   1.00
N460   N     0.25559   0.96059   0.24852   0.00000  Uiso   1.00
O461   O     0.29449   0.96555   0.20849   0.00000  Uiso   1.00
O462   O     0.26059   0.94702   0.29189   0.00000  Uiso   1.00
O463   O     0.46042   0.89345   0.25000   0.00000  Uiso   1.00
O464   O     0.53961   0.89346   0.25000   0.00000  Uiso   1.00
C465   C     0.50020   0.91270   0.25036   0.00000  Uiso   1.00
O466   O     0.44108   0.83332   0.32549   0.00000  Uiso   1.00
O467   O     0.52027   0.83333   0.32549   0.00000  Uiso   1.00
C468   C     0.47347   0.83324   0.35033   0.00000  Uiso   1.00
Cu469  Cu    0.45311   0.83333   0.25000   0.00000  Uiso   1.00
Cu470  Cu    0.54689   0.83334   0.25000   0.00000  Uiso   1.00
O471   O     0.46039   0.77321   0.24999   0.00000  Uiso   1.00
O472   O     0.53958   0.77322   0.24999   0.00000  Uiso   1.00
O473   O     0.47973   0.83334   0.17451   0.00000  Uiso   1.00
O474   O     0.55892   0.83335   0.17451   0.00000  Uiso   1.00
C475   C     0.49984   0.75411   0.25005   0.00000  Uiso   1.00
C476   C     0.52632   0.83388   0.14999   0.00000  Uiso   1.00
C477   C     0.58718   0.87905   0.01907   0.00000  Uiso   1.00
H478   H     0.60521   0.87644   0.09063   0.00000  Uiso   1.00
C479   C     0.54126   0.83991   0.09356   0.00000  Uiso   1.00
C480   C     0.41538   0.80456   0.43211   0.00000  Uiso   1.00
C481   C     0.40565   0.79293   0.48437   0.00000  Uiso   1.00
C482   C     0.43819   0.80443   0.01167   0.00000  Uiso   1.00
C483   C     0.47978   0.82937   0.48897   0.00000  Uiso   1.00
C484   C     0.48681   0.84415   0.43789   0.00000  Uiso   1.00
C485   C     0.51422   0.84053   0.01569   0.00000  Uiso   1.00
C486   C     0.55368   0.86784   0.49202   0.00000  Uiso   1.00
C487   C     0.55709   0.88521   0.44336   0.00000  Uiso   1.00
C488   C     0.52316   0.87410   0.41778   0.00000  Uiso   1.00
C489   C     0.50995   0.82612   0.06604   0.00000  Uiso   1.00
C490   C     0.58095   0.86518   0.06940   0.00000  Uiso   1.00
C491   C     0.45705   0.82905   0.40794   0.00000  Uiso   1.00
H492   H     0.48145   0.80522   0.08626   0.00000  Uiso   1.00
H493   H     0.42869   0.79423   0.05139   0.00000  Uiso   1.00
C494   C     0.54389   0.97990   0.24930   0.00000  Uiso   1.00
C495   C     0.54276   0.68898   0.24910   0.00000  Uiso   1.00
C496   C     0.49980   0.70964   0.25021   0.00000  Uiso   1.00
C497   C     0.45726   0.68765   0.25170   0.00000  Uiso   1.00
H498   H     0.42358   0.70318   0.25268   0.00000  Uiso   1.00
C499   C     0.45779   0.97851   0.25208   0.00000  Uiso   1.00
H500   H     0.42435   0.96220   0.25324   0.00000  Uiso   1.00
C501   C     0.50087   0.95748   0.25085   0.00000  Uiso   1.00
C502   C     0.63119   0.85379   0.28802   0.00000  Uiso   1.00
H503   H     0.60412   0.87019   0.31853   0.00000  Uiso   1.00
C504   C     0.34746   0.85402   0.28779   0.00000  Uiso   1.00
N505   N     0.38265   0.83332   0.24998   0.00000  Uiso   1.00
C506   C     0.36914   0.81286   0.21205   0.00000  Uiso   1.00
H507   H     0.39660   0.79640   0.18172   0.00000  Uiso   1.00
C508   C     0.65312   0.81296   0.21163   0.00000  Uiso   1.00
N509   N     0.61735   0.83335   0.24999   0.00000  Uiso   1.00
H510   H     0.57574   0.70565   0.24873   0.00000  Uiso   1.00
H511   H     0.35768   0.87080   0.31785   0.00000  Uiso   1.00
N512   N     0.64172   0.79248   0.16957   0.00000  Uiso   1.00
O513   O     0.62868   0.75411   0.17427   0.00000  Uiso   1.00
O514   O     0.65755   0.80805   0.12308   0.00000  Uiso   1.00
N515   N     0.59404   0.91504   0.41973   0.00000  Uiso   1.00
O516   O     0.64034   0.90571   0.40814   0.00000  Uiso   1.00
O517   O     0.58157   0.94938   0.40315   0.00000  Uiso   1.00
H518   H     0.61697   0.90027   0.00295   0.00000  Uiso   1.00
N519   N     0.38509   0.78855   0.40263   0.00000  Uiso   1.00
O520   O     0.38911   0.75029   0.38755   0.00000  Uiso   1.00
O521   O     0.34949   0.81067   0.39665   0.00000  Uiso   1.00
N522   N     0.36362   0.76795   0.00969   0.00000  Uiso   1.00
O523   O     0.65517   0.77357   0.00087   0.00000  Uiso   1.00
O524   O     0.36599   0.74132   0.04452   0.00000  Uiso   1.00
H525   H     0.52548   0.88954   0.38171   0.00000  Uiso   1.00
N526   N     0.58892   0.96059   0.24852   0.00000  Uiso   1.00
O527   O     0.62782   0.96555   0.20849   0.00000  Uiso   1.00
O528   O     0.59393   0.94702   0.29189   0.00000  Uiso   1.00
O529   O     0.79375   0.89345   0.25000   0.00000  Uiso   1.00
O530   O     0.87294   0.89346   0.25000   0.00000  Uiso   1.00
C531   C     0.83354   0.91270   0.25036   0.00000  Uiso   1.00
O532   O     0.77441   0.83332   0.32549   0.00000  Uiso   1.00
O533   O     0.85360   0.83333   0.32549   0.00000  Uiso   1.00
C534   C     0.80680   0.83324   0.35033   0.00000  Uiso   1.00
Cu535  Cu    0.78645   0.83333   0.25000   0.00000  Uiso   1.00
Cu536  Cu    0.88022   0.83334   0.25000   0.00000  Uiso   1.00
O537   O     0.79373   0.77321   0.24999   0.00000  Uiso   1.00
O538   O     0.87292   0.77322   0.24999   0.00000  Uiso   1.00
O539   O     0.81306   0.83334   0.17451   0.00000  Uiso   1.00
O540   O     0.89225   0.83335   0.17451   0.00000  Uiso   1.00
C541   C     0.83318   0.75411   0.25005   0.00000  Uiso   1.00
C542   C     0.85965   0.83388   0.14999   0.00000  Uiso   1.00
C543   C     0.92051   0.87905   0.01907   0.00000  Uiso   1.00
H544   H     0.93855   0.87644   0.09063   0.00000  Uiso   1.00
C545   C     0.87459   0.83991   0.09356   0.00000  Uiso   1.00
C546   C     0.74871   0.80456   0.43211   0.00000  Uiso   1.00
C547   C     0.73898   0.79293   0.48437   0.00000  Uiso   1.00
C548   C     0.77152   0.80443   0.01167   0.00000  Uiso   1.00
C549   C     0.81311   0.82937   0.48897   0.00000  Uiso   1.00
C550   C     0.82014   0.84415   0.43789   0.00000  Uiso   1.00
C551   C     0.84756   0.84053   0.01569   0.00000  Uiso   1.00
C552   C     0.88701   0.86784   0.49202   0.00000  Uiso   1.00
C553   C     0.89042   0.88521   0.44336   0.00000  Uiso   1.00
C554   C     0.85649   0.87410   0.41778   0.00000  Uiso   1.00
C555   C     0.84328   0.82612   0.06604   0.00000  Uiso   1.00
C556   C     0.91429   0.86518   0.06940   0.00000  Uiso   1.00
C557   C     0.79038   0.82905   0.40794   0.00000  Uiso   1.00
H558   H     0.81479   0.80522   0.08626   0.00000  Uiso   1.00
H559   H     0.76202   0.79423   0.05139   0.00000  Uiso   1.00
C560   C     0.87722   0.97990   0.24930   0.00000  Uiso   1.00
C561   C     0.87609   0.68898   0.24910   0.00000  Uiso   1.00
C562   C     0.83313   0.70964   0.25021   0.00000  Uiso   1.00
C563   C     0.79059   0.68765   0.25170   0.00000  Uiso   1.00
H564   H     0.75691   0.70318   0.25268   0.00000  Uiso   1.00
C565   C     0.79112   0.97851   0.25208   0.00000  Uiso   1.00
H566   H     0.75768   0.96220   0.25324   0.00000  Uiso   1.00
C567   C     0.83421   0.95748   0.25085   0.00000  Uiso   1.00
C568   C     0.96453   0.85379   0.28802   0.00000  Uiso   1.00
H569   H     0.93745   0.87019   0.31853   0.00000  Uiso   1.00
C570   C     0.68079   0.85402   0.28779   0.00000  Uiso   1.00
N571   N     0.71598   0.83332   0.24998   0.00000  Uiso   1.00
C572   C     0.70248   0.81286   0.21205   0.00000  Uiso   1.00
H573   H     0.72993   0.79640   0.18172   0.00000  Uiso   1.00
C574   C     0.98646   0.81296   0.21163   0.00000  Uiso   1.00
N575   N     0.95069   0.83335   0.24999   0.00000  Uiso   1.00
H576   H     0.90907   0.70565   0.24873   0.00000  Uiso   1.00
H577   H     0.69102   0.87080   0.31785   0.00000  Uiso   1.00
N578   N     0.97505   0.79248   0.16957   0.00000  Uiso   1.00
O579   O     0.96201   0.75411   0.17427   0.00000  Uiso   1.00
O580   O     0.99088   0.80805   0.12308   0.00000  Uiso   1.00
N581   N     0.92737   0.91504   0.41973   0.00000  Uiso   1.00
O582   O     0.97367   0.90571   0.40814   0.00000  Uiso   1.00
O583   O     0.91490   0.94938   0.40315   0.00000  Uiso   1.00
H584   H     0.95030   0.90027   0.00295   0.00000  Uiso   1.00
N585   N     0.71842   0.78855   0.40263   0.00000  Uiso   1.00
O586   O     0.72244   0.75029   0.38755   0.00000  Uiso   1.00
O587   O     0.68282   0.81067   0.39665   0.00000  Uiso   1.00
N588   N     0.69696   0.76795   0.00969   0.00000  Uiso   1.00
O589   O     0.98850   0.77357   0.00087   0.00000  Uiso   1.00
O590   O     0.69932   0.74132   0.04452   0.00000  Uiso   1.00
H591   H     0.85882   0.88954   0.38171   0.00000  Uiso   1.00
N592   N     0.92226   0.96059   0.24852   0.00000  Uiso   1.00
O593   O     0.96116   0.96555   0.20849   0.00000  Uiso   1.00
O594   O     0.92726   0.94702   0.29189   0.00000  Uiso   1.00
O595   O     0.12708   0.22678   0.75000   0.00000  Uiso   1.00
O596   O     0.20627   0.22679   0.75000   0.00000  Uiso   1.00
C597   C     0.16687   0.24603   0.75036   0.00000  Uiso   1.00
O598   O     0.10775   0.16665   0.82549   0.00000  Uiso   1.00
O599   O     0.18694   0.16666   0.82549   0.00000  Uiso   1.00
C600   C     0.14014   0.16658   0.85033   0.00000  Uiso   1.00
Cu601  Cu    0.11978   0.16666   0.75000   0.00000  Uiso   1.00
Cu602  Cu    0.21355   0.16667   0.75000   0.00000  Uiso   1.00
O603   O     0.12706   0.10654   0.74999   0.00000  Uiso   1.00
O604   O     0.20625   0.10655   0.74999   0.00000  Uiso   1.00
O605   O     0.14640   0.16667   0.67451   0.00000  Uiso   1.00
O606   O     0.22559   0.16668   0.67451   0.00000  Uiso   1.00
C607   C     0.16651   0.08744   0.75005   0.00000  Uiso   1.00
C608   C     0.19299   0.16722   0.64999   0.00000  Uiso   1.00
C609   C     0.25385   0.21238   0.51907   0.00000  Uiso   1.00
H610   H     0.27188   0.20977   0.59063   0.00000  Uiso   1.00
C611   C     0.20792   0.17324   0.59356   0.00000  Uiso   1.00
C612   C     0.08204   0.13790   0.93211   0.00000  Uiso   1.00
C613   C     0.07232   0.12626   0.98437   0.00000  Uiso   1.00
C614   C     0.10486   0.13777   0.51167   0.00000  Uiso   1.00
C615   C     0.14644   0.16270   0.98897   0.00000  Uiso   1.00
C616   C     0.15348   0.17748   0.93789   0.00000  Uiso   1.00
C617   C     0.18089   0.17386   0.51569   0.00000  Uiso   1.00
C618   C     0.22034   0.20117   0.99202   0.00000  Uiso   1.00
C619   C     0.22375   0.21854   0.94336   0.00000  Uiso   1.00
C620   C     0.18982   0.20743   0.91778   0.00000  Uiso   1.00
C621   C     0.17662   0.15946   0.56604   0.00000  Uiso   1.00
C622   C     0.24762   0.19852   0.56940   0.00000  Uiso   1.00
C623   C     0.12371   0.16238   0.90794   0.00000  Uiso   1.00
H624   H     0.14812   0.13856   0.58626   0.00000  Uiso   1.00
H625   H     0.09535   0.12756   0.55139   0.00000  Uiso   1.00
C626   C     0.21055   0.31324   0.74930   0.00000  Uiso   1.00
C627   C     0.20943   0.02231   0.74910   0.00000  Uiso   1.00
C628   C     0.16647   0.04297   0.75021   0.00000  Uiso   1.00
C629   C     0.12392   0.02098   0.75170   0.00000  Uiso   1.00
H630   H     0.09025   0.03651   0.75268   0.00000  Uiso   1.00
C631   C     0.12445   0.31184   0.75208   0.00000  Uiso   1.00
H632   H     0.09101   0.29553   0.75324   0.00000  Uiso   1.00
C633   C     0.16754   0.29081   0.75085   0.00000  Uiso   1.00
C634   C     0.29786   0.18712   0.78802   0.00000  Uiso   1.00
H635   H     0.27078   0.20352   0.81853   0.00000  Uiso   1.00
C636   C     0.01413   0.18735   0.78779   0.00000  Uiso   1.00
N637   N     0.04931   0.16666   0.74998   0.00000  Uiso   1.00
C638   C     0.03581   0.14619   0.71205   0.00000  Uiso   1.00
H639   H     0.06326   0.12973   0.68172   0.00000  Uiso   1.00
C640   C     0.31979   0.14629   0.71163   0.00000  Uiso   1.00
N641   N     0.28402   0.16669   0.74999   0.00000  Uiso   1.00
H642   H     0.24241   0.03898   0.74873   0.00000  Uiso   1.00
H643   H     0.02435   0.20413   0.81785   0.00000  Uiso   1.00
N644   N     0.30838   0.12581   0.66957   0.00000  Uiso   1.00
O645   O     0.29534   0.08744   0.67427   0.00000  Uiso   1.00
O646   O     0.32422   0.14138   0.62308   0.00000  Uiso   1.00
N647   N     0.26071   0.24838   0.91973   0.00000  Uiso   1.00
O648   O     0.30701   0.23904   0.90814   0.00000  Uiso   1.00
O649   O     0.24823   0.28271   0.90315   0.00000  Uiso   1.00
H650   H     0.28363   0.23360   0.50295   0.00000  Uiso   1.00
N651   N     0.05175   0.12188   0.90263   0.00000  Uiso   1.00
O652   O     0.05578   0.08362   0.88755   0.00000  Uiso   1.00
O653   O     0.01616   0.14400   0.89665   0.00000  Uiso   1.00
N654   N     0.03029   0.10128   0.50969   0.00000  Uiso   1.00
O655   O     0.32183   0.10691   0.50087   0.00000  Uiso   1.00
O656   O     0.03266   0.07465   0.54452   0.00000  Uiso   1.00
H657   H     0.19215   0.22288   0.88171   0.00000  Uiso   1.00
N658   N     0.25559   0.29392   0.74852   0.00000  Uiso   1.00
O659   O     0.29449   0.29888   0.70849   0.00000  Uiso   1.00
O660   O     0.26059   0.28035   0.79189   0.00000  Uiso   1.00
O661   O     0.46042   0.22678   0.75000   0.00000  Uiso   1.00
O662   O     0.53961   0.22679   0.75000   0.00000  Uiso   1.00
C663   C     0.50020   0.24603   0.75036   0.00000  Uiso   1.00
O664   O     0.44108   0.16665   0.82549   0.00000  Uiso   1.00
O665   O     0.52027   0.16666   0.82549   0.00000  Uiso   1.00
C666   C     0.47347   0.16658   0.85033   0.00000  Uiso   1.00
Cu667  Cu    0.45311   0.16666   0.75000   0.00000  Uiso   1.00
Cu668  Cu    0.54689   0.16667   0.75000   0.00000  Uiso   1.00
O669   O     0.46039   0.10654   0.74999   0.00000  Uiso   1.00
O670   O     0.53958   0.10655   0.74999   0.00000  Uiso   1.00
O671   O     0.47973   0.16667   0.67451   0.00000  Uiso   1.00
O672   O     0.55892   0.16668   0.67451   0.00000  Uiso   1.00
C673   C     0.49984   0.08744   0.75005   0.00000  Uiso   1.00
C674   C     0.52632   0.16722   0.64999   0.00000  Uiso   1.00
C675   C     0.58718   0.21238   0.51907   0.00000  Uiso   1.00
H676   H     0.60521   0.20977   0.59063   0.00000  Uiso   1.00
C677   C     0.54126   0.17324   0.59356   0.00000  Uiso   1.00
C678   C     0.41538   0.13790   0.93211   0.00000  Uiso   1.00
C679   C     0.40565   0.12626   0.98437   0.00000  Uiso   1.00
C680   C     0.43819   0.13777   0.51167   0.00000  Uiso   1.00
C681   C     0.47978   0.16270   0.98897   0.00000  Uiso   1.00
C682   C     0.48681   0.17748   0.93789   0.00000  Uiso   1.00
C683   C     0.51422   0.17386   0.51569   0.00000  Uiso   1.00
C684   C     0.55368   0.20117   0.99202   0.00000  Uiso   1.00
C685   C     0.55709   0.21854   0.94336   0.00000  Uiso   1.00
C686   C     0.52316   0.20743   0.91778   0.00000  Uiso   1.00
C687   C     0.50995   0.15946   0.56604   0.00000  Uiso   1.00
C688   C     0.58095   0.19852   0.56940   0.00000  Uiso   1.00
C689   C     0.45705   0.16238   0.90794   0.00000  Uiso   1.00
H690   H     0.48145   0.13856   0.58626   0.00000  Uiso   1.00
H691   H     0.42869   0.12756   0.55139   0.00000  Uiso   1.00
C692   C     0.54389   0.31324   0.74930   0.00000  Uiso   1.00
C693   C     0.54276   0.02231   0.74910   0.00000  Uiso   1.00
C694   C     0.49980   0.04297   0.75021   0.00000  Uiso   1.00
C695   C     0.45726   0.02098   0.75170   0.00000  Uiso   1.00
H696   H     0.42358   0.03651   0.75268   0.00000  Uiso   1.00
C697   C     0.45779   0.31184   0.75208   0.00000  Uiso   1.00
H698   H     0.42435   0.29553   0.75324   0.00000  Uiso   1.00
C699   C     0.50087   0.29081   0.75085   0.00000  Uiso   1.00
C700   C     0.63119   0.18712   0.78802   0.00000  Uiso   1.00
H701   H     0.60412   0.20352   0.81853   0.00000  Uiso   1.00
C702   C     0.34746   0.18735   0.78779   0.00000  Uiso   1.00
N703   N     0.38265   0.16666   0.74998   0.00000  Uiso   1.00
C704   C     0.36914   0.14619   0.71205   0.00000  Uiso   1.00
H705   H     0.39660   0.12973   0.68172   0.00000  Uiso   1.00
C706   C     0.65312   0.14629   0.71163   0.00000  Uiso   1.00
N707   N     0.61735   0.16669   0.74999   0.00000  Uiso   1.00
H708   H     0.57574   0.03898   0.74873   0.00000  Uiso   1.00
H709   H     0.35768   0.20413   0.81785   0.00000  Uiso   1.00
N710   N     0.64172   0.12581   0.66957   0.00000  Uiso   1.00
O711   O     0.62868   0.08744   0.67427   0.00000  Uiso   1.00
O712   O     0.65755   0.14138   0.62308   0.00000  Uiso   1.00
N713   N     0.59404   0.24838   0.91973   0.00000  Uiso   1.00
O714   O     0.64034   0.23904   0.90814   0.00000  Uiso   1.00
O715   O     0.58157   0.28271   0.90315   0.00000  Uiso   1.00
H716   H     0.61697   0.23360   0.50295   0.00000  Uiso   1.00
N717   N     0.38509   0.12188   0.90263   0.00000  Uiso   1.00
O718   O     0.38911   0.08362   0.88755   0.00000  Uiso   1.00
O719   O     0.34949   0.14400   0.89665   0.00000  Uiso   1.00
N720   N     0.36362   0.10128   0.50969   0.00000  Uiso   1.00
O721   O     0.65517   0.10691   0.50087   0.00000  Uiso   1.00
O722   O     0.36599   0.07465   0.54452   0.00000  Uiso   1.00
H723   H     0.52548   0.22288   0.88171   0.00000  Uiso   1.00
N724   N     0.58892   0.29392   0.74852   0.00000  Uiso   1.00
O725   O     0.62782   0.29888   0.70849   0.00000  Uiso   1.00
O726   O     0.59393   0.28035   0.79189   0.00000  Uiso   1.00
O727   O     0.79375   0.22678   0.75000   0.00000  Uiso   1.00
O728   O     0.87294   0.22679   0.75000   0.00000  Uiso   1.00
C729   C     0.83354   0.24603   0.75036   0.00000  Uiso   1.00
O730   O     0.77441   0.16665   0.82549   0.00000  Uiso   1.00
O731   O     0.85360   0.16666   0.82549   0.00000  Uiso   1.00
C732   C     0.80680   0.16658   0.85033   0.00000  Uiso   1.00
Cu733  Cu    0.78645   0.16666   0.75000   0.00000  Uiso   1.00
Cu734  Cu    0.88022   0.16667   0.75000   0.00000  Uiso   1.00
O735   O     0.79373   0.10654   0.74999   0.00000  Uiso   1.00
O736   O     0.87292   0.10655   0.74999   0.00000  Uiso   1.00
O737   O     0.81306   0.16667   0.67451   0.00000  Uiso   1.00
O738   O     0.89225   0.16668   0.67451   0.00000  Uiso   1.00
C739   C     0.83318   0.08744   0.75005   0.00000  Uiso   1.00
C740   C     0.85965   0.16722   0.64999   0.00000  Uiso   1.00
C741   C     0.92051   0.21238   0.51907   0.00000  Uiso   1.00
H742   H     0.93855   0.20977   0.59063   0.00000  Uiso   1.00
C743   C     0.87459   0.17324   0.59356   0.00000  Uiso   1.00
C744   C     0.74871   0.13790   0.93211   0.00000  Uiso   1.00
C745   C     0.73898   0.12626   0.98437   0.00000  Uiso   1.00
C746   C     0.77152   0.13777   0.51167   0.00000  Uiso   1.00
C747   C     0.81311   0.16270   0.98897   0.00000  Uiso   1.00
C748   C     0.82014   0.17748   0.93789   0.00000  Uiso   1.00
C749   C     0.84756   0.17386   0.51569   0.00000  Uiso   1.00
C750   C     0.88701   0.20117   0.99202   0.00000  Uiso   1.00
C751   C     0.89042   0.21854   0.94336   0.00000  Uiso   1.00
C752   C     0.85649   0.20743   0.91778   0.00000  Uiso   1.00
C753   C     0.84328   0.15946   0.56604   0.00000  Uiso   1.00
C754   C     0.91429   0.19852   0.56940   0.00000  Uiso   1.00
C755   C     0.79038   0.16238   0.90794   0.00000  Uiso   1.00
H756   H     0.81479   0.13856   0.58626   0.00000  Uiso   1.00
H757   H     0.76202   0.12756   0.55139   0.00000  Uiso   1.00
C758   C     0.87722   0.31324   0.74930   0.00000  Uiso   1.00
C759   C     0.87609   0.02231   0.74910   0.00000  Uiso   1.00
C760   C     0.83313   0.04297   0.75021   0.00000  Uiso   1.00
C761   C     0.79059   0.02098   0.75170   0.00000  Uiso   1.00
H762   H     0.75691   0.03651   0.75268   0.00000  Uiso   1.00
C763   C     0.79112   0.31184   0.75208   0.00000  Uiso   1.00
H764   H     0.75768   0.29553   0.75324   0.00000  Uiso   1.00
C765   C     0.83421   0.29081   0.75085   0.00000  Uiso   1.00
C766   C     0.96453   0.18712   0.78802   0.00000  Uiso   1.00
H767   H     0.93745   0.20352   0.81853   0.00000  Uiso   1.00
C768   C     0.68079   0.18735   0.78779   0.00000  Uiso   1.00
N769   N     0.71598   0.16666   0.74998   0.00000  Uiso   1.00
C770   C     0.70248   0.14619   0.71205   0.00000  Uiso   1.00
H771   H     0.72993   0.12973   0.68172   0.00000  Uiso   1.00
C772   C     0.98646   0.14629   0.71163   0.00000  Uiso   1.00
N773   N     0.95069   0.16669   0.74999   0.00000  Uiso   1.00
H774   H     0.90907   0.03898   0.74873   0.00000  Uiso   1.00
H775   H     0.69102   0.20413   0.81785   0.00000  Uiso   1.00
N776   N     0.97505   0.12581   0.66957   0.00000  Uiso   1.00
O777   O     0.96201   0.08744   0.67427   0.00000  Uiso   1.00
O778   O     0.99088   0.14138   0.62308   0.00000  Uiso   1.00
N779   N     0.92737   0.24838   0.91973   0.00000  Uiso   1.00
O780   O     0.97367   0.23904   0.90814   0.00000  Uiso   1.00
O781   O     0.91490   0.28271   0.90315   0.00000  Uiso   1.00
H782   H     0.95030   0.23360   0.50295   0.00000  Uiso   1.00
N783   N     0.71842   0.12188   0.90263   0.00000  Uiso   1.00
O784   O     0.72244   0.08362   0.88755   0.00000  Uiso   1.00
O785   O     0.68282   0.14400   0.89665   0.00000  Uiso   1.00
N786   N     0.69696   0.10128   0.50969   0.00000  Uiso   1.00
O787   O     0.98850   0.10691   0.50087   0.00000  Uiso   1.00
O788   O     0.69932   0.07465   0.54452   0.00000  Uiso   1.00
H789   H     0.85882   0.22288   0.88171   0.00000  Uiso   1.00
N790   N     0.92226   0.29392   0.74852   0.00000  Uiso   1.00
O791   O     0.96116   0.29888   0.70849   0.00000  Uiso   1.00
O792   O     0.92726   0.28035   0.79189   0.00000  Uiso   1.00
O793   O     0.12708   0.56011   0.75000   0.00000  Uiso   1.00
O794   O     0.20627   0.56012   0.75000   0.00000  Uiso   1.00
C795   C     0.16687   0.57937   0.75036   0.00000  Uiso   1.00
O796   O     0.10775   0.49998   0.82549   0.00000  Uiso   1.00
O797   O     0.18694   0.49999   0.82549   0.00000  Uiso   1.00
C798   C     0.14014   0.49991   0.85033   0.00000  Uiso   1.00
Cu799  Cu    0.11978   0.49999   0.75000   0.00000  Uiso   1.00
Cu800  Cu    0.21355   0.50001   0.75000   0.00000  Uiso   1.00
O801   O     0.12706   0.43988   0.74999   0.00000  Uiso   1.00
O802   O     0.20625   0.43989   0.74999   0.00000  Uiso   1.00
O803   O     0.14640   0.50001   0.67451   0.00000  Uiso   1.00
O804   O     0.22559   0.50002   0.67451   0.00000  Uiso   1.00
C805   C     0.16651   0.42077   0.75005   0.00000  Uiso   1.00
C806   C     0.19299   0.50055   0.64999   0.00000  Uiso   1.00
C807   C     0.25385   0.54572   0.51907   0.00000  Uiso   1.00
H808   H     0.27188   0.54311   0.59063   0.00000  Uiso   1.00
C809   C     0.20792   0.50657   0.59356   0.00000  Uiso   1.00
C810   C     0.08204   0.47123   0.93211   0.00000  Uiso   1.00
C811   C     0.07232   0.45960   0.98437   0.00000  Uiso   1.00
C812   C     0.10486   0.47110   0.51167   0.00000  Uiso   1.00
C813   C     0.14644   0.49604   0.98897   0.00000  Uiso   1.00
C814   C     0.15348   0.51082   0.93789   0.00000  Uiso   1.00
C815   C     0.18089   0.50720   0.51569   0.00000  Uiso   1.00
C816   C     0.22034   0.53450   0.99202   0.00000  Uiso   1.00
C817   C     0.22375   0.55188   0.94336   0.00000  Uiso   1.00
C818   C     0.18982   0.54077   0.91778   0.00000  Uiso   1.00
C819   C     0.17662   0.49279   0.56604   0.00000  Uiso   1.00
C820   C     0.24762   0.53185   0.56940   0.00000  Uiso   1.00
C821   C     0.12371   0.49571   0.90794   0.00000  Uiso   1.00
H822   H     0.14812   0.47189   0.58626   0.00000  Uiso   1.00
H823   H     0.09535   0.46090   0.55139   0.00000  Uiso   1.00
C824   C     0.21055   0.64657   0.74930   0.00000  Uiso   1.00
C825   C     0.20943   0.35565   0.74910   0.00000  Uiso   1.00
C826   C     0.16647   0.37631   0.75021   0.00000  Uiso   1.00
C827   C     0.12392   0.35431   0.75170   0.00000  Uiso   1.00
H828   H     0.09025   0.36984   0.75268   0.00000  Uiso   1.00
C829   C     0.12445   0.64517   0.75208   0.00000  Uiso   1.00
H830   H     0.09101   0.62886   0.75324   0.00000  Uiso   1.00
C831   C     0.16754   0.62415   0.75085   0.00000  Uiso   1.00
C832   C     0.29786   0.52046   0.78802   0.00000  Uiso   1.00
H833   H     0.27078   0.53685   0.81853   0.00000  Uiso   1.00
C834   C     0.01413   0.52069   0.78779   0.00000  Uiso   1.00
N835   N     0.04931   0.49999   0.74998   0.00000  Uiso   1.00
C836   C     0.03581   0.47952   0.71205   0.00000  Uiso   1.00
H837   H     0.06326   0.46307   0.68172   0.00000  Uiso   1.00
C838   C     0.31979   0.47963   0.71163   0.00000  Uiso   1.00
N839   N     0.28402   0.50002   0.74999   0.00000  Uiso   1.00
H840   H     0.24241   0.37231   0.74873   0.00000  Uiso   1.00
H841   H     0.02435   0.53746   0.81785   0.00000  Uiso   1.00
N842   N     0.30838   0.45915   0.66957   0.00000  Uiso   1.00
O843   O     0.29534   0.42078   0.67427   0.00000  Uiso   1.00
O844   O     0.32422   0.47471   0.62308   0.00000  Uiso   1.00
N845   N     0.26071   0.58171   0.91973   0.00000  Uiso   1.00
O846   O     0.30701   0.57237   0.90814   0.00000  Uiso   1.00
O847   O     0.24823   0.61604   0.90315   0.00000  Uiso   1.00
H848   H     0.28363   0.56694   0.50295   0.00000  Uiso   1.00
N849   N     0.05175   0.45522   0.90263   0.00000  Uiso   1.00
O850   O     0.05578   0.41696   0.88755   0.00000  Uiso   1.00
O851   O     0.01616   0.47733   0.89665   0.00000  Uiso   1.00
N852   N     0.03029   0.43462   0.50969   0.00000  Uiso   1.00
O853   O     0.32183   0.44024   0.50087   0.00000  Uiso   1.00
O854   O     0.03266   0.40799   0.54452   0.00000  Uiso   1.00
H855   H     0.19215   0.55621   0.88171   0.00000  Uiso   1.00
N856   N     0.25559   0.62725   0.74852   0.00000  Uiso   1.00
O857   O     0.29449   0.63221   0.70849   0.00000  Uiso   1.00
O858   O     0.26059   0.61369   0.79189   0.00000  Uiso   1.00
O859   O     0.46042   0.56011   0.75000   0.00000  Uiso   1.00
O860   O     0.53961   0.56012   0.75000   0.00000  Uiso   1.00
C861   C     0.50020   0.57937   0.75036   0.00000  Uiso   1.00
O862   O     0.44108   0.49998   0.82549   0.00000  Uiso   1.00
O863   O     0.52027   0.49999   0.82549   0.00000  Uiso   1.00
C864   C     0.47347   0.49991   0.85033   0.00000  Uiso   1.00
Cu865  Cu    0.45311   0.49999   0.75000   0.00000  Uiso   1.00
Cu866  Cu    0.54689   0.50001   0.75000   0.00000  Uiso   1.00
O867   O     0.46039   0.43988   0.74999   0.00000  Uiso   1.00
O868   O     0.53958   0.43989   0.74999   0.00000  Uiso   1.00
O869   O     0.47973   0.50001   0.67451   0.00000  Uiso   1.00
O870   O     0.55892   0.50002   0.67451   0.00000  Uiso   1.00
C871   C     0.49984   0.42077   0.75005   0.00000  Uiso   1.00
C872   C     0.52632   0.50055   0.64999   0.00000  Uiso   1.00
C873   C     0.58718   0.54572   0.51907   0.00000  Uiso   1.00
H874   H     0.60521   0.54311   0.59063   0.00000  Uiso   1.00
C875   C     0.54126   0.50657   0.59356   0.00000  Uiso   1.00
C876   C     0.41538   0.47123   0.93211   0.00000  Uiso   1.00
C877   C     0.40565   0.45960   0.98437   0.00000  Uiso   1.00
C878   C     0.43819   0.47110   0.51167   0.00000  Uiso   1.00
C879   C     0.47978   0.49604   0.98897   0.00000  Uiso   1.00
C880   C     0.48681   0.51082   0.93789   0.00000  Uiso   1.00
C881   C     0.51422   0.50720   0.51569   0.00000  Uiso   1.00
C882   C     0.55368   0.53450   0.99202   0.00000  Uiso   1.00
C883   C     0.55709   0.55188   0.94336   0.00000  Uiso   1.00
C884   C     0.52316   0.54077   0.91778   0.00000  Uiso   1.00
C885   C     0.50995   0.49279   0.56604   0.00000  Uiso   1.00
C886   C     0.58095   0.53185   0.56940   0.00000  Uiso   1.00
C887   C     0.45705   0.49571   0.90794   0.00000  Uiso   1.00
H888   H     0.48145   0.47189   0.58626   0.00000  Uiso   1.00
H889   H     0.42869   0.46090   0.55139   0.00000  Uiso   1.00
C890   C     0.54389   0.64657   0.74930   0.00000  Uiso   1.00
C891   C     0.54276   0.35565   0.74910   0.00000  Uiso   1.00
C892   C     0.49980   0.37631   0.75021   0.00000  Uiso   1.00
C893   C     0.45726   0.35431   0.75170   0.00000  Uiso   1.00
H894   H     0.42358   0.36984   0.75268   0.00000  Uiso   1.00
C895   C     0.45779   0.64517   0.75208   0.00000  Uiso   1.00
H896   H     0.42435   0.62886   0.75324   0.00000  Uiso   1.00
C897   C     0.50087   0.62415   0.75085   0.00000  Uiso   1.00
C898   C     0.63119   0.52046   0.78802   0.00000  Uiso   1.00
H899   H     0.60412   0.53685   0.81853   0.00000  Uiso   1.00
C900   C     0.34746   0.52069   0.78779   0.00000  Uiso   1.00
N901   N     0.38265   0.49999   0.74998   0.00000  Uiso   1.00
C902   C     0.36914   0.47952   0.71205   0.00000  Uiso   1.00
H903   H     0.39660   0.46307   0.68172   0.00000  Uiso   1.00
C904   C     0.65312   0.47963   0.71163   0.00000  Uiso   1.00
N905   N     0.61735   0.50002   0.74999   0.00000  Uiso   1.00
H906   H     0.57574   0.37231   0.74873   0.00000  Uiso   1.00
H907   H     0.35768   0.53746   0.81785   0.00000  Uiso   1.00
N908   N     0.64172   0.45915   0.66957   0.00000  Uiso   1.00
O909   O     0.62868   0.42078   0.67427   0.00000  Uiso   1.00
O910   O     0.65755   0.47471   0.62308   0.00000  Uiso   1.00
N911   N     0.59404   0.58171   0.91973   0.00000  Uiso   1.00
O912   O     0.64034   0.57237   0.90814   0.00000  Uiso   1.00
O913   O     0.58157   0.61604   0.90315   0.00000  Uiso   1.00
H914   H     0.61697   0.56694   0.50295   0.00000  Uiso   1.00
N915   N     0.38509   0.45522   0.90263   0.00000  Uiso   1.00
O916   O     0.38911   0.41696   0.88755   0.00000  Uiso   1.00
O917   O     0.34949   0.47733   0.89665   0.00000  Uiso   1.00
N918   N     0.36362   0.43462   0.50969   0.00000  Uiso   1.00
O919   O     0.65517   0.44024   0.50087   0.00000  Uiso   1.00
O920   O     0.36599   0.40799   0.54452   0.00000  Uiso   1.00
H921   H     0.52548   0.55621   0.88171   0.00000  Uiso   1.00
N922   N     0.58892   0.62725   0.74852   0.00000  Uiso   1.00
O923   O     0.62782   0.63221   0.70849   0.00000  Uiso   1.00
O924   O     0.59393   0.61369   0.79189   0.00000  Uiso   1.00
O925   O     0.79375   0.56011   0.75000   0.00000  Uiso   1.00
O926   O     0.87294   0.56012   0.75000   0.00000  Uiso   1.00
C927   C     0.83354   0.57937   0.75036   0.00000  Uiso   1.00
O928   O     0.77441   0.49998   0.82549   0.00000  Uiso   1.00
O929   O     0.85360   0.49999   0.82549   0.00000  Uiso   1.00
C930   C     0.80680   0.49991   0.85033   0.00000  Uiso   1.00
Cu931  Cu    0.78645   0.49999   0.75000   0.00000  Uiso   1.00
Cu932  Cu    0.88022   0.50001   0.75000   0.00000  Uiso   1.00
O933   O     0.79373   0.43988   0.74999   0.00000  Uiso   1.00
O934   O     0.87292   0.43989   0.74999   0.00000  Uiso   1.00
O935   O     0.81306   0.50001   0.67451   0.00000  Uiso   1.00
O936   O     0.89225   0.50002   0.67451   0.00000  Uiso   1.00
C937   C     0.83318   0.42077   0.75005   0.00000  Uiso   1.00
C938   C     0.85965   0.50055   0.64999   0.00000  Uiso   1.00
C939   C     0.92051   0.54572   0.51907   0.00000  Uiso   1.00
H940   H     0.93855   0.54311   0.59063   0.00000  Uiso   1.00
C941   C     0.87459   0.50657   0.59356   0.00000  Uiso   1.00
C942   C     0.74871   0.47123   0.93211   0.00000  Uiso   1.00
C943   C     0.73898   0.45960   0.98437   0.00000  Uiso   1.00
C944   C     0.77152   0.47110   0.51167   0.00000  Uiso   1.00
C945   C     0.81311   0.49604   0.98897   0.00000  Uiso   1.00
C946   C     0.82014   0.51082   0.93789   0.00000  Uiso   1.00
C947   C     0.84756   0.50720   0.51569   0.00000  Uiso   1.00
C948   C     0.88701   0.53450   0.99202   0.00000  Uiso   1.00
C949   C     0.89042   0.55188   0.94336   0.00000  Uiso   1.00
C950   C     0.85649   0.54077   0.91778   0.00000  Uiso   1.00
C951   C     0.84328   0.49279   0.56604   0.00000  Uiso   1.00
C952   C     0.91429   0.53185   0.56940   0.00000  Uiso   1.00
C953   C     0.79038   0.49571   0.90794   0.00000  Uiso   1.00
H954   H     0.81479   0.47189   0.58626   0.00000  Uiso   1.00
H955   H     0.76202   0.46090   0.55139   0.00000  Uiso   1.00
C956   C     0.87722   0.64657   0.74930   0.00000  Uiso   1.00
C957   C     0.87609   0.35565   0.74910   0.00000  Uiso   1.00
C958   C     0.83313   0.37631   0.75021   0.00000  Uiso   1.00
C959   C     0.79059   0.35431   0.75170   0.00000  Uiso   1.00
H960   H     0.75691   0.36984   0.75268   0.00000  Uiso   1.00
C961   C     0.79112   0.64517   0.75208   0.00000  Uiso   1.00
H962   H     0.75768   0.62886   0.75324   0.00000  Uiso   1.00
C963   C     0.83421   0.62415   0.75085   0.00000  Uiso   1.00
C964   C     0.96453   0.52046   0.78802   0.00000  Uiso   1.00
H965   H     0.93745   0.53685   0.81853   0.00000  Uiso   1.00
C966   C     0.68079   0.52069   0.78779   0.00000  Uiso   1.00
N967   N     0.71598   0.49999   0.74998   0.00000  Uiso   1.00
C968   C     0.70248   0.47952   0.71205   0.00000  Uiso   1.00
H969   H     0.72993   0.46307   0.68172   0.00000  Uiso   1.00
C970   C     0.98646   0.47963   0.71163   0.00000  Uiso   1.00
N971   N     0.95069   0.50002   0.74999   0.00000  Uiso   1.00
H972   H     0.90907   0.37231   0.74873   0.00000  Uiso   1.00
H973   H     0.69102   0.53746   0.81785   0.00000  Uiso   1.00
N974   N     0.97505   0.45915   0.66957   0.00000  Uiso   1.00
O975   O     0.96201   0.42078   0.67427   0.00000  Uiso   1.00
O976   O     0.99088   0.47471   0.62308   0.00000  Uiso   1.00
N977   N     0.92737   0.58171   0.91973   0.00000  Uiso   1.00
O978   O     0.97367   0.57237   0.90814   0.00000  Uiso   1.00
O979   O     0.91490   0.61604   0.90315   0.00000  Uiso   1.00
H980   H     0.95030   0.56694   0.50295   0.00000  Uiso   1.00
N981   N     0.71842   0.45522   0.90263   0.00000  Uiso   1.00
O982   O     0.72244   0.41696   0.88755   0.00000  Uiso   1.00
O983   O     0.68282   0.47733   0.89665   0.00000  Uiso   1.00
N984   N     0.69696   0.43462   0.50969   0.00000  Uiso   1.00
O985   O     0.98850   0.44024   0.50087   0.00000  Uiso   1.00
O986   O     0.69932   0.40799   0.54452   0.00000  Uiso   1.00
H987   H     0.85882   0.55621   0.88171   0.00000  Uiso   1.00
N988   N     0.92226   0.62725   0.74852   0.00000  Uiso   1.00
O989   O     0.96116   0.63221   0.70849   0.00000  Uiso   1.00
O990   O     0.92726   0.61369   0.79189   0.00000  Uiso   1.00
O991   O     0.12708   0.89345   0.75000   0.00000  Uiso   1.00
O992   O     0.20627   0.89346   0.75000   0.00000  Uiso   1.00
C993   C     0.16687   0.91270   0.75036   0.00000  Uiso   1.00
O994   O     0.10775   0.83332   0.82549   0.00000  Uiso   1.00
O995   O     0.18694   0.83333   0.82549   0.00000  Uiso   1.00
C996   C     0.14014   0.83324   0.85033   0.00000  Uiso   1.00
Cu997  Cu    0.11978   0.83333   0.75000   0.00000  Uiso   1.00
Cu998  Cu    0.21355   0.83334   0.75000   0.00000  Uiso   1.00
O999   O     0.12706   0.77321   0.74999   0.00000  Uiso   1.00
O1000  O     0.20625   0.77322   0.74999   0.00000  Uiso   1.00
O1001  O     0.14640   0.83334   0.67451   0.00000  Uiso   1.00
O1002  O     0.22559   0.83335   0.67451   0.00000  Uiso   1.00
C1003  C     0.16651   0.75411   0.75005   0.00000  Uiso   1.00
C1004  C     0.19299   0.83388   0.64999   0.00000  Uiso   1.00
C1005  C     0.25385   0.87905   0.51907   0.00000  Uiso   1.00
H1006  H     0.27188   0.87644   0.59063   0.00000  Uiso   1.00
C1007  C     0.20792   0.83991   0.59356   0.00000  Uiso   1.00
C1008  C     0.08204   0.80456   0.93211   0.00000  Uiso   1.00
C1009  C     0.07232   0.79293   0.98437   0.00000  Uiso   1.00
C1010  C     0.10486   0.80443   0.51167   0.00000  Uiso   1.00
C1011  C     0.14644   0.82937   0.98897   0.00000  Uiso   1.00
C1012  C     0.15348   0.84415   0.93789   0.00000  Uiso   1.00
C1013  C     0.18089   0.84053   0.51569   0.00000  Uiso   1.00
C1014  C     0.22034   0.86784   0.99202   0.00000  Uiso   1.00
C1015  C     0.22375   0.88521   0.94336   0.00000  Uiso   1.00
C1016  C     0.18982   0.87410   0.91778   0.00000  Uiso   1.00
C1017  C     0.17662   0.82612   0.56604   0.00000  Uiso   1.00
C1018  C     0.24762   0.86518   0.56940   0.00000  Uiso   1.00
C1019  C     0.12371   0.82905   0.90794   0.00000  Uiso   1.00
H1020  H     0.14812   0.80522   0.58626   0.00000  Uiso   1.00
H1021  H     0.09535   0.79423   0.55139   0.00000  Uiso   1.00
C1022  C     0.21055   0.97990   0.74930   0.00000  Uiso   1.00
C1023  C     0.20943   0.68898   0.74910   0.00000  Uiso   1.00
C1024  C     0.16647   0.70964   0.75021   0.00000  Uiso   1.00
C1025  C     0.12392   0.68765   0.75170   0.00000  Uiso   1.00
H1026  H     0.09025   0.70318   0.75268   0.00000  Uiso   1.00
C1027  C     0.12445   0.97851   0.75208   0.00000  Uiso   1.00
H1028  H     0.09101   0.96220   0.75324   0.00000  Uiso   1.00
C1029  C     0.16754   0.95748   0.75085   0.00000  Uiso   1.00
C1030  C     0.29786   0.85379   0.78802   0.00000  Uiso   1.00
H1031  H     0.27078   0.87019   0.81853   0.00000  Uiso   1.00
C1032  C     0.01413   0.85402   0.78779   0.00000  Uiso   1.00
N1033  N     0.04931   0.83332   0.74998   0.00000  Uiso   1.00
C1034  C     0.03581   0.81286   0.71205   0.00000  Uiso   1.00
H1035  H     0.06326   0.79640   0.68172   0.00000  Uiso   1.00
C1036  C     0.31979   0.81296   0.71163   0.00000  Uiso   1.00
N1037  N     0.28402   0.83335   0.74999   0.00000  Uiso   1.00
H1038  H     0.24241   0.70565   0.74873   0.00000  Uiso   1.00
H1039  H     0.02435   0.87080   0.81785   0.00000  Uiso   1.00
N1040  N     0.30838   0.79248   0.66957   0.00000  Uiso   1.00
O1041  O     0.29534   0.75411   0.67427   0.00000  Uiso   1.00
O1042  O     0.32422   0.80805   0.62308   0.00000  Uiso   1.00
N1043  N     0.26071   0.91504   0.91973   0.00000  Uiso   1.00
O1044  O     0.30701   0.90571   0.90814   0.00000  Uiso   1.00
O1045  O     0.24823   0.94938   0.90315   0.00000  Uiso   1.00
H1046  H     0.28363   0.90027   0.50295   0.00000  Uiso   1.00
N1047  N     0.05175   0.78855   0.90263   0.00000  Uiso   1.00
O1048  O     0.05578   0.75029   0.88755   0.00000  Uiso   1.00
O1049  O     0.01616   0.81067   0.89665   0.00000  Uiso   1.00
N1050  N     0.03029   0.76795   0.50969   0.00000  Uiso   1.00
O1051  O     0.32183   0.77357   0.50087   0.00000  Uiso   1.00
O1052  O     0.03266   0.74132   0.54452   0.00000  Uiso   1.00
H1053  H     0.19215   0.88954   0.88171   0.00000  Uiso   1.00
N1054  N     0.25559   0.96059   0.74852   0.00000  Uiso   1.00
O1055  O     0.29449   0.96555   0.70849   0.00000  Uiso   1.00
O1056  O     0.26059   0.94702   0.79189   0.00000  Uiso   1.00
O1057  O     0.46042   0.89345   0.75000   0.00000  Uiso   1.00
O1058  O     0.53961   0.89346   0.75000   0.00000  Uiso   1.00
C1059  C     0.50020   0.91270   0.75036   0.00000  Uiso   1.00
O1060  O     0.44108   0.83332   0.82549   0.00000  Uiso   1.00
O1061  O     0.52027   0.83333   0.82549   0.00000  Uiso   1.00
C1062  C     0.47347   0.83324   0.85033   0.00000  Uiso   1.00
Cu1063 Cu    0.45311   0.83333   0.75000   0.00000  Uiso   1.00
Cu1064 Cu    0.54689   0.83334   0.75000   0.00000  Uiso   1.00
O1065  O     0.46039   0.77321   0.74999   0.00000  Uiso   1.00
O1066  O     0.53958   0.77322   0.74999   0.00000  Uiso   1.00
O1067  O     0.47973   0.83334   0.67451   0.00000  Uiso   1.00
O1068  O     0.55892   0.83335   0.67451   0.00000  Uiso   1.00
C1069  C     0.49984   0.75411   0.75005   0.00000  Uiso   1.00
C1070  C     0.52632   0.83388   0.64999   0.00000  Uiso   1.00
C1071  C     0.58718   0.87905   0.51907   0.00000  Uiso   1.00
H1072  H     0.60521   0.87644   0.59063   0.00000  Uiso   1.00
C1073  C     0.54126   0.83991   0.59356   0.00000  Uiso   1.00
C1074  C     0.41538   0.80456   0.93211   0.00000  Uiso   1.00
C1075  C     0.40565   0.79293   0.98437   0.00000  Uiso   1.00
C1076  C     0.43819   0.80443   0.51167   0.00000  Uiso   1.00
C1077  C     0.47978   0.82937   0.98897   0.00000  Uiso   1.00
C1078  C     0.48681   0.84415   0.93789   0.00000  Uiso   1.00
C1079  C     0.51422   0.84053   0.51569   0.00000  Uiso   1.00
C1080  C     0.55368   0.86784   0.99202   0.00000  Uiso   1.00
C1081  C     0.55709   0.88521   0.94336   0.00000  Uiso   1.00
C1082  C     0.52316   0.87410   0.91778   0.00000  Uiso   1.00
C1083  C     0.50995   0.82612   0.56604   0.00000  Uiso   1.00
C1084  C     0.58095   0.86518   0.56940   0.00000  Uiso   1.00
C1085  C     0.45705   0.82905   0.90794   0.00000  Uiso   1.00
H1086  H     0.48145   0.80522   0.58626   0.00000  Uiso   1.00
H1087  H     0.42869   0.79423   0.55139   0.00000  Uiso   1.00
C1088  C     0.54389   0.97990   0.74930   0.00000  Uiso   1.00
C1089  C     0.54276   0.68898   0.74910   0.00000  Uiso   1.00
C1090  C     0.49980   0.70964   0.75021   0.00000  Uiso   1.00
C1091  C     0.45726   0.68765   0.75170   0.00000  Uiso   1.00
H1092  H     0.42358   0.70318   0.75268   0.00000  Uiso   1.00
C1093  C     0.45779   0.97851   0.75208   0.00000  Uiso   1.00
H1094  H     0.42435   0.96220   0.75324   0.00000  Uiso   1.00
C1095  C     0.50087   0.95748   0.75085   0.00000  Uiso   1.00
C1096  C     0.63119   0.85379   0.78802   0.00000  Uiso   1.00
H1097  H     0.60412   0.87019   0.81853   0.00000  Uiso   1.00
C1098  C     0.34746   0.85402   0.78779   0.00000  Uiso   1.00
N1099  N     0.38265   0.83332   0.74998   0.00000  Uiso   1.00
C1100  C     0.36914   0.81286   0.71205   0.00000  Uiso   1.00
H1101  H     0.39660   0.79640   0.68172   0.00000  Uiso   1.00
C1102  C     0.65312   0.81296   0.71163   0.00000  Uiso   1.00
N1103  N     0.61735   0.83335   0.74999   0.00000  Uiso   1.00
H1104  H     0.57574   0.70565   0.74873   0.00000  Uiso   1.00
H1105  H     0.35768   0.87080   0.81785   0.00000  Uiso   1.00
N1106  N     0.64172   0.79248   0.66957   0.00000  Uiso   1.00
O1107  O     0.62868   0.75411   0.67427   0.00000  Uiso   1.00
O1108  O     0.65755   0.80805   0.62308   0.00000  Uiso   1.00
N1109  N     0.59404   0.91504   0.91973   0.00000  Uiso   1.00
O1110  O     0.64034   0.90571   0.90814   0.00000  Uiso   1.00
O1111  O     0.58157   0.94938   0.90315   0.00000  Uiso   1.00
H1112  H     0.61697   0.90027   0.50295   0.00000  Uiso   1.00
N1113  N     0.38509   0.78855   0.90263   0.00000  Uiso   1.00
O1114  O     0.38911   0.75029   0.88755   0.00000  Uiso   1.00
O1115  O     0.34949   0.81067   0.89665   0.00000  Uiso   1.00
N1116  N     0.36362   0.76795   0.50969   0.00000  Uiso   1.00
O1117  O     0.65517   0.77357   0.50087   0.00000  Uiso   1.00
O1118  O     0.36599   0.74132   0.54452   0.00000  Uiso   1.00
H1119  H     0.52548   0.88954   0.88171   0.00000  Uiso   1.00
N1120  N     0.58892   0.96059   0.74852   0.00000  Uiso   1.00
O1121  O     0.62782   0.96555   0.70849   0.00000  Uiso   1.00
O1122  O     0.59393   0.94702   0.79189   0.00000  Uiso   1.00
O1123  O     0.79375   0.89345   0.75000   0.00000  Uiso   1.00
O1124  O     0.87294   0.89346   0.75000   0.00000  Uiso   1.00
C1125  C     0.83354   0.91270   0.75036   0.00000  Uiso   1.00
O1126  O     0.77441   0.83332   0.82549   0.00000  Uiso   1.00
O1127  O     0.85360   0.83333   0.82549   0.00000  Uiso   1.00
C1128  C     0.80680   0.83324   0.85033   0.00000  Uiso   1.00
Cu1129 Cu    0.78645   0.83333   0.75000   0.00000  Uiso   1.00
Cu1130 Cu    0.88022   0.83334   0.75000   0.00000  Uiso   1.00
O1131  O     0.79373   0.77321   0.74999   0.00000  Uiso   1.00
O1132  O     0.87292   0.77322   0.74999   0.00000  Uiso   1.00
O1133  O     0.81306   0.83334   0.67451   0.00000  Uiso   1.00
O1134  O     0.89225   0.83335   0.67451   0.00000  Uiso   1.00
C1135  C     0.83318   0.75411   0.75005   0.00000  Uiso   1.00
C1136  C     0.85965   0.83388   0.64999   0.00000  Uiso   1.00
C1137  C     0.92051   0.87905   0.51907   0.00000  Uiso   1.00
H1138  H     0.93855   0.87644   0.59063   0.00000  Uiso   1.00
C1139  C     0.87459   0.83991   0.59356   0.00000  Uiso   1.00
C1140  C     0.74871   0.80456   0.93211   0.00000  Uiso   1.00
C1141  C     0.73898   0.79293   0.98437   0.00000  Uiso   1.00
C1142  C     0.77152   0.80443   0.51167   0.00000  Uiso   1.00
C1143  C     0.81311   0.82937   0.98897   0.00000  Uiso   1.00
C1144  C     0.82014   0.84415   0.93789   0.00000  Uiso   1.00
C1145  C     0.84756   0.84053   0.51569   0.00000  Uiso   1.00
C1146  C     0.88701   0.86784   0.99202   0.00000  Uiso   1.00
C1147  C     0.89042   0.88521   0.94336   0.00000  Uiso   1.00
C1148  C     0.85649   0.87410   0.91778   0.00000  Uiso   1.00
C1149  C     0.84328   0.82612   0.56604   0.00000  Uiso   1.00
C1150  C     0.91429   0.86518   0.56940   0.00000  Uiso   1.00
C1151  C     0.79038   0.82905   0.90794   0.00000  Uiso   1.00
H1152  H     0.81479   0.80522   0.58626   0.00000  Uiso   1.00
H1153  H     0.76202   0.79423   0.55139   0.00000  Uiso   1.00
C1154  C     0.87722   0.97990   0.74930   0.00000  Uiso   1.00
C1155  C     0.87609   0.68898   0.74910   0.00000  Uiso   1.00
C1156  C     0.83313   0.70964   0.75021   0.00000  Uiso   1.00
C1157  C     0.79059   0.68765   0.75170   0.00000  Uiso   1.00
H1158  H     0.75691   0.70318   0.75268   0.00000  Uiso   1.00
C1159  C     0.79112   0.97851   0.75208   0.00000  Uiso   1.00
H1160  H     0.75768   0.96220   0.75324   0.00000  Uiso   1.00
C1161  C     0.83421   0.95748   0.75085   0.00000  Uiso   1.00
C1162  C     0.96453   0.85379   0.78802   0.00000  Uiso   1.00
H1163  H     0.93745   0.87019   0.81853   0.00000  Uiso   1.00
C1164  C     0.68079   0.85402   0.78779   0.00000  Uiso   1.00
N1165  N     0.71598   0.83332   0.74998   0.00000  Uiso   1.00
C1166  C     0.70248   0.81286   0.71205   0.00000  Uiso   1.00
H1167  H     0.72993   0.79640   0.68172   0.00000  Uiso   1.00
C1168  C     0.98646   0.81296   0.71163   0.00000  Uiso   1.00
N1169  N     0.95069   0.83335   0.74999   0.00000  Uiso   1.00
H1170  H     0.90907   0.70565   0.74873   0.00000  Uiso   1.00
H1171  H     0.69102   0.87080   0.81785   0.00000  Uiso   1.00
N1172  N     0.97505   0.79248   0.66957   0.00000  Uiso   1.00
O1173  O     0.96201   0.75411   0.67427   0.00000  Uiso   1.00
O1174  O     0.99088   0.80805   0.62308   0.00000  Uiso   1.00
N1175  N     0.92737   0.91504   0.91973   0.00000  Uiso   1.00
O1176  O     0.97367   0.90571   0.90814   0.00000  Uiso   1.00
O1177  O     0.91490   0.94938   0.90315   0.00000  Uiso   1.00
H1178  H     0.95030   0.90027   0.50295   0.00000  Uiso   1.00
N1179  N     0.71842   0.78855   0.90263   0.00000  Uiso   1.00
O1180  O     0.72244   0.75029   0.88755   0.00000  Uiso   1.00
O1181  O     0.68282   0.81067   0.89665   0.00000  Uiso   1.00
N1182  N     0.69696   0.76795   0.50969   0.00000  Uiso   1.00
O1183  O     0.98850   0.77357   0.50087   0.00000  Uiso   1.00
O1184  O     0.69932   0.74132   0.54452   0.00000  Uiso   1.00
H1185  H     0.85882   0.88954   0.88171   0.00000  Uiso   1.00
N1186  N     0.92226   0.96059   0.74852   0.00000  Uiso   1.00
O1187  O     0.96116   0.96555   0.70849   0.00000  Uiso   1.00
O1188  O     0.92726   0.94702   0.79189   0.00000  Uiso   1.00
loop_
_geom_bond_atom_site_label_1
_geom_bond_atom_site_label_2
_geom_bond_distance
_geom_bond_site_symmetry_2
_ccdc_geom_bond_type
O1     Cu7     1.969   .     S
O1     C3      1.298   .     A
O2     C3      1.290   .     A
O2     Cu8     1.971   .     S
C3     C39     1.459   .     S
O4     Cu7     1.951   .     S
O4     C6      1.296   .     A
O5     Cu8     1.937   .     S
O5     C6      1.300   .     A
C6     C29     1.482   .     S
Cu7    N43     2.015   .     S
Cu7    O11     1.937   .     S
Cu7    Cu8     2.681   .     S
Cu7    O9      1.971   .     S
Cu8    O12     1.951   .     S
Cu8    N47     2.014   .     S
Cu8    O10     1.969   .     S
O9     C13     1.292   .     A
O10    C13     1.292   .     A
O11    C14     1.293   .     A
O12    C14     1.295   .     A
C13    C34     1.449   .     S
C14    C17     1.460   .     S
C15    C28     1.390   .     A
C15    H56     1.080   .     S
C15    C618    1.412   1_554 S
H16    C28     1.083   .     S
C17    C27     1.393   .     A
C17    C28     1.393   .     A
C18    N57     1.432   .     S
C18    C29     1.417   .     A
C18    C19     1.402   .     A
C19    C614    1.396   .     S
C19    N654    1.440   .     S
C20    H31     1.074   .     S
C20    C613    1.396   1_554 S
C20    C615    1.416   1_554 S
C21    C22     1.415   .     A
C21    C614    1.416   .     S
C21    C617    1.427   .     S
C22    C29     1.420   .     A
C22    C26     1.408   .     A
C23    C27     1.407   .     A
C23    C615    1.427   1_554 S
C23    C618    1.426   1_554 S
C24    C25     1.407   .     A
C24    C609    1.412   .     S
C24    C617    1.426   .     S
C25    N53     1.435   .     S
C25    C26     1.393   .     A
C26    H63     1.082   .     S
C27    H30     1.075   .     S
C32    N64     1.431   .     S
C32    C39     1.417   .     A
C32    C231    1.383   .     S
C33    C34     1.396   .     A
C33    H48     1.083   .     S
C33    C428    1.383   1_545 S
C34    C35     1.398   .     A
C35    H36     1.083   .     S
C35    C433    1.385   1_545 S
C37    H38     1.083   .     S
C37    C39     1.404   .     A
C37    C233    1.385   .     S
C40    N47     1.367   .     A
C40    H41     1.078   .     S
C40    C108    1.416   .     S
C42    N43     1.366   .     A
C42    H49     1.080   .     S
C42    C172    1.416   1_455 S
N43    C44     1.361   .     A
C44    H45     1.082   .     S
C44    C178    1.414   1_455 S
C46    N50     1.425   .     S
C46    N47     1.377   .     A
C46    C110    1.414   .     S
N50    O52     1.300   .     A
N50    O51     1.299   .     A
N53    O54     1.301   .     A
N53    O55     1.301   .     A
N57    O58     1.301   .     A
N57    O59     1.301   .     A
N60    O62     1.302   .     A
N60    C613    1.440   1_554 S
N60    O193    1.301   1_455 S
O61    N126    1.301   .     S
N64    O65     1.301   .     A
N64    O66     1.300   .     A
O67    Cu73    1.969   .     S
O67    C69     1.298   .     A
O68    C69     1.290   .     A
O68    Cu74    1.971   .     S
C69    C105    1.459   .     S
O70    Cu73    1.951   .     S
O70    C72     1.296   .     A
O71    Cu74    1.937   .     S
O71    C72     1.300   .     A
C72    C95     1.482   .     S
Cu73   N109    2.015   .     S
Cu73   O77     1.937   .     S
Cu73   Cu74    2.681   .     S
Cu73   O75     1.971   .     S
Cu74   O78     1.951   .     S
Cu74   N113    2.014   .     S
Cu74   O76     1.969   .     S
O75    C79     1.292   .     A
O76    C79     1.292   .     A
O77    C80     1.293   .     A
O78    C80     1.295   .     A
C79    C100    1.449   .     S
C80    C83     1.460   .     S
C81    C94     1.390   .     A
C81    H122    1.080   .     S
C81    C684    1.412   1_554 S
H82    C94     1.083   .     S
C83    C93     1.393   .     A
C83    C94     1.393   .     A
C84    N123    1.432   .     S
C84    C95     1.417   .     A
C84    C85     1.402   .     A
C85    C680    1.396   .     S
C85    N720    1.440   .     S
C86    H97     1.074   .     S
C86    C679    1.396   1_554 S
C86    C681    1.416   1_554 S
C87    C88     1.415   .     A
C87    C680    1.416   .     S
C87    C683    1.427   .     S
C88    C95     1.420   .     A
C88    C92     1.408   .     A
C89    C93     1.407   .     A
C89    C681    1.427   1_554 S
C89    C684    1.426   1_554 S
C90    C91     1.407   .     A
C90    C675    1.412   .     S
C90    C683    1.426   .     S
C91    N119    1.435   .     S
C91    C92     1.393   .     A
C92    H129    1.082   .     S
C93    H96     1.075   .     S
C98    N130    1.431   .     S
C98    C105    1.417   .     A
C98    C297    1.383   .     S
C99    C100    1.396   .     A
C99    H114    1.083   .     S
C99    C494    1.383   1_545 S
C100   C101    1.398   .     A
C101   H102    1.083   .     S
C101   C499    1.385   1_545 S
C103   H104    1.083   .     S
C103   C105    1.404   .     A
C103   C299    1.385   .     S
C106   N113    1.367   .     A
C106   H107    1.078   .     S
C106   C174    1.416   .     S
C108   N109    1.366   .     A
C108   H115    1.080   .     S
N109   C110    1.361   .     A
C110   H111    1.082   .     S
C112   N116    1.425   .     S
C112   N113    1.377   .     A
C112   C176    1.414   .     S
N116   O118    1.300   .     A
N116   O117    1.299   .     A
N119   O120    1.301   .     A
N119   O121    1.301   .     A
N123   O124    1.301   .     A
N123   O125    1.301   .     A
N126   O128    1.302   .     A
N126   C679    1.440   1_554 S
O127   N192    1.301   .     S
N130   O131    1.301   .     A
N130   O132    1.300   .     A
O133   Cu139   1.969   .     S
O133   C135    1.298   .     A
O134   C135    1.290   .     A
O134   Cu140   1.971   .     S
C135   C171    1.459   .     S
O136   Cu139   1.951   .     S
O136   C138    1.296   .     A
O137   Cu140   1.937   .     S
O137   C138    1.300   .     A
C138   C161    1.482   .     S
Cu139  N175    2.015   .     S
Cu139  O143    1.937   .     S
Cu139  Cu140   2.681   .     S
Cu139  O141    1.971   .     S
Cu140  O144    1.951   .     S
Cu140  N179    2.014   .     S
Cu140  O142    1.969   .     S
O141   C145    1.292   .     A
O142   C145    1.292   .     A
O143   C146    1.293   .     A
O144   C146    1.295   .     A
C145   C166    1.449   .     S
C146   C149    1.460   .     S
C147   C160    1.390   .     A
C147   H188    1.080   .     S
C147   C750    1.412   1_554 S
H148   C160    1.083   .     S
C149   C159    1.393   .     A
C149   C160    1.393   .     A
C150   N189    1.432   .     S
C150   C161    1.417   .     A
C150   C151    1.402   .     A
C151   C746    1.396   .     S
C151   N786    1.440   .     S
C152   H163    1.074   .     S
C152   C745    1.396   1_554 S
C152   C747    1.416   1_554 S
C153   C154    1.415   .     A
C153   C746    1.416   .     S
C153   C749    1.427   .     S
C154   C161    1.420   .     A
C154   C158    1.408   .     A
C155   C159    1.407   .     A
C155   C747    1.427   1_554 S
C155   C750    1.426   1_554 S
C156   C157    1.407   .     A
C156   C741    1.412   .     S
C156   C749    1.426   .     S
C157   N185    1.435   .     S
C157   C158    1.393   .     A
C158   H195    1.082   .     S
C159   H162    1.075   .     S
C164   N196    1.431   .     S
C164   C171    1.417   .     A
C164   C363    1.383   .     S
C165   C166    1.396   .     A
C165   H180    1.083   .     S
C165   C560    1.383   1_545 S
C166   C167    1.398   .     A
C167   H168    1.083   .     S
C167   C565    1.385   1_545 S
C169   H170    1.083   .     S
C169   C171    1.404   .     A
C169   C365    1.385   .     S
C172   N179    1.367   .     A
C172   H173    1.078   .     S
C172   C42     1.416   1_655 S
C174   N175    1.366   .     A
C174   H181    1.080   .     S
N175   C176    1.361   .     A
C176   H177    1.082   .     S
C178   N182    1.425   .     S
C178   N179    1.377   .     A
C178   C44     1.414   1_655 S
N182   O184    1.300   .     A
N182   O183    1.299   .     A
N185   O186    1.301   .     A
N185   O187    1.301   .     A
N189   O190    1.301   .     A
N189   O191    1.301   .     A
N192   O194    1.302   .     A
N192   C745    1.440   1_554 S
O193   N60     1.301   1_655 S
N196   O197    1.301   .     A
N196   O198    1.300   .     A
O199   Cu205   1.969   .     S
O199   C201    1.298   .     A
O200   C201    1.290   .     A
O200   Cu206   1.971   .     S
C201   C237    1.459   .     S
O202   Cu205   1.951   .     S
O202   C204    1.296   .     A
O203   Cu206   1.937   .     S
O203   C204    1.300   .     A
C204   C227    1.482   .     S
Cu205  N241    2.015   .     S
Cu205  O209    1.937   .     S
Cu205  Cu206   2.681   .     S
Cu205  O207    1.971   .     S
Cu206  O210    1.951   .     S
Cu206  N245    2.014   .     S
Cu206  O208    1.969   .     S
O207   C211    1.292   .     A
O208   C211    1.292   .     A
O209   C212    1.293   .     A
O210   C212    1.295   .     A
C211   C232    1.449   .     S
C212   C215    1.460   .     S
C213   C226    1.390   .     A
C213   H254    1.080   .     S
C213   C816    1.412   1_554 S
H214   C226    1.083   .     S
C215   C225    1.393   .     A
C215   C226    1.393   .     A
C216   N255    1.432   .     S
C216   C227    1.417   .     A
C216   C217    1.402   .     A
C217   C812    1.396   .     S
C217   N852    1.440   .     S
C218   H229    1.074   .     S
C218   C811    1.396   1_554 S
C218   C813    1.416   1_554 S
C219   C220    1.415   .     A
C219   C812    1.416   .     S
C219   C815    1.427   .     S
C220   C227    1.420   .     A
C220   C224    1.408   .     A
C221   C225    1.407   .     A
C221   C813    1.427   1_554 S
C221   C816    1.426   1_554 S
C222   C223    1.407   .     A
C222   C807    1.412   .     S
C222   C815    1.426   .     S
C223   N251    1.435   .     S
C223   C224    1.393   .     A
C224   H261    1.082   .     S
C225   H228    1.075   .     S
C230   N262    1.431   .     S
C230   C237    1.417   .     A
C230   C429    1.383   .     S
C231   C232    1.396   .     A
C231   H246    1.083   .     S
C232   C233    1.398   .     A
C233   H234    1.083   .     S
C235   H236    1.083   .     S
C235   C237    1.404   .     A
C235   C431    1.385   .     S
C238   N245    1.367   .     A
C238   H239    1.078   .     S
C238   C306    1.416   .     S
C240   N241    1.366   .     A
C240   H247    1.080   .     S
C240   C370    1.416   1_455 S
N241   C242    1.361   .     A
C242   H243    1.082   .     S
C242   C376    1.414   1_455 S
C244   N248    1.425   .     S
C244   N245    1.377   .     A
C244   C308    1.414   .     S
N248   O250    1.300   .     A
N248   O249    1.299   .     A
N251   O252    1.301   .     A
N251   O253    1.301   .     A
N255   O256    1.301   .     A
N255   O257    1.301   .     A
N258   O260    1.302   .     A
N258   C811    1.440   1_554 S
N258   O391    1.301   1_455 S
O259   N324    1.301   .     S
N262   O263    1.301   .     A
N262   O264    1.300   .     A
O265   Cu271   1.969   .     S
O265   C267    1.298   .     A
O266   C267    1.290   .     A
O266   Cu272   1.971   .     S
C267   C303    1.459   .     S
O268   Cu271   1.951   .     S
O268   C270    1.296   .     A
O269   Cu272   1.937   .     S
O269   C270    1.300   .     A
C270   C293    1.482   .     S
Cu271  N307    2.015   .     S
Cu271  O275    1.937   .     S
Cu271  Cu272   2.681   .     S
Cu271  O273    1.971   .     S
Cu272  O276    1.951   .     S
Cu272  N311    2.014   .     S
Cu272  O274    1.969   .     S
O273   C277    1.292   .     A
O274   C277    1.292   .     A
O275   C278    1.293   .     A
O276   C278    1.295   .     A
C277   C298    1.449   .     S
C278   C281    1.460   .     S
C279   C292    1.390   .     A
C279   H320    1.080   .     S
C279   C882    1.412   1_554 S
H280   C292    1.083   .     S
C281   C291    1.393   .     A
C281   C292    1.393   .     A
C282   N321    1.432   .     S
C282   C293    1.417   .     A
C282   C283    1.402   .     A
C283   C878    1.396   .     S
C283   N918    1.440   .     S
C284   H295    1.074   .     S
C284   C877    1.396   1_554 S
C284   C879    1.416   1_554 S
C285   C286    1.415   .     A
C285   C878    1.416   .     S
C285   C881    1.427   .     S
C286   C293    1.420   .     A
C286   C290    1.408   .     A
C287   C291    1.407   .     A
C287   C879    1.427   1_554 S
C287   C882    1.426   1_554 S
C288   C289    1.407   .     A
C288   C873    1.412   .     S
C288   C881    1.426   .     S
C289   N317    1.435   .     S
C289   C290    1.393   .     A
C290   H327    1.082   .     S
C291   H294    1.075   .     S
C296   N328    1.431   .     S
C296   C303    1.417   .     A
C296   C495    1.383   .     S
C297   C298    1.396   .     A
C297   H312    1.083   .     S
C298   C299    1.398   .     A
C299   H300    1.083   .     S
C301   H302    1.083   .     S
C301   C303    1.404   .     A
C301   C497    1.385   .     S
C304   N311    1.367   .     A
C304   H305    1.078   .     S
C304   C372    1.416   .     S
C306   N307    1.366   .     A
C306   H313    1.080   .     S
N307   C308    1.361   .     A
C308   H309    1.082   .     S
C310   N314    1.425   .     S
C310   N311    1.377   .     A
C310   C374    1.414   .     S
N314   O316    1.300   .     A
N314   O315    1.299   .     A
N317   O318    1.301   .     A
N317   O319    1.301   .     A
N321   O322    1.301   .     A
N321   O323    1.301   .     A
N324   O326    1.302   .     A
N324   C877    1.440   1_554 S
O325   N390    1.301   .     S
N328   O329    1.301   .     A
N328   O330    1.300   .     A
O331   Cu337   1.969   .     S
O331   C333    1.298   .     A
O332   C333    1.290   .     A
O332   Cu338   1.971   .     S
C333   C369    1.459   .     S
O334   Cu337   1.951   .     S
O334   C336    1.296   .     A
O335   Cu338   1.937   .     S
O335   C336    1.300   .     A
C336   C359    1.482   .     S
Cu337  N373    2.015   .     S
Cu337  O341    1.937   .     S
Cu337  Cu338   2.681   .     S
Cu337  O339    1.971   .     S
Cu338  O342    1.951   .     S
Cu338  N377    2.014   .     S
Cu338  O340    1.969   .     S
O339   C343    1.292   .     A
O340   C343    1.292   .     A
O341   C344    1.293   .     A
O342   C344    1.295   .     A
C343   C364    1.449   .     S
C344   C347    1.460   .     S
C345   C358    1.390   .     A
C345   H386    1.080   .     S
C345   C948    1.412   1_554 S
H346   C358    1.083   .     S
C347   C357    1.393   .     A
C347   C358    1.393   .     A
C348   N387    1.432   .     S
C348   C359    1.417   .     A
C348   C349    1.402   .     A
C349   C944    1.396   .     S
C349   N984    1.440   .     S
C350   H361    1.074   .     S
C350   C943    1.396   1_554 S
C350   C945    1.416   1_554 S
C351   C352    1.415   .     A
C351   C944    1.416   .     S
C351   C947    1.427   .     S
C352   C359    1.420   .     A
C352   C356    1.408   .     A
C353   C357    1.407   .     A
C353   C945    1.427   1_554 S
C353   C948    1.426   1_554 S
C354   C355    1.407   .     A
C354   C939    1.412   .     S
C354   C947    1.426   .     S
C355   N383    1.435   .     S
C355   C356    1.393   .     A
C356   H393    1.082   .     S
C357   H360    1.075   .     S
C362   N394    1.431   .     S
C362   C369    1.417   .     A
C362   C561    1.383   .     S
C363   C364    1.396   .     A
C363   H378    1.083   .     S
C364   C365    1.398   .     A
C365   H366    1.083   .     S
C367   H368    1.083   .     S
C367   C369    1.404   .     A
C367   C563    1.385   .     S
C370   N377    1.367   .     A
C370   H371    1.078   .     S
C370   C240    1.416   1_655 S
C372   N373    1.366   .     A
C372   H379    1.080   .     S
N373   C374    1.361   .     A
C374   H375    1.082   .     S
C376   N380    1.425   .     S
C376   N377    1.377   .     A
C376   C242    1.414   1_655 S
N380   O382    1.300   .     A
N380   O381    1.299   .     A
N383   O384    1.301   .     A
N383   O385    1.301   .     A
N387   O388    1.301   .     A
N387   O389    1.301   .     A
N390   O392    1.302   .     A
N390   C943    1.440   1_554 S
O391   N258    1.301   1_655 S
N394   O395    1.301   .     A
N394   O396    1.300   .     A
O397   Cu403   1.969   .     S
O397   C399    1.298   .     A
O398   C399    1.290   .     A
O398   Cu404   1.971   .     S
C399   C435    1.459   .     S
O400   Cu403   1.951   .     S
O400   C402    1.296   .     A
O401   Cu404   1.937   .     S
O401   C402    1.300   .     A
C402   C425    1.482   .     S
Cu403  N439    2.015   .     S
Cu403  O407    1.937   .     S
Cu403  Cu404   2.681   .     S
Cu403  O405    1.971   .     S
Cu404  O408    1.951   .     S
Cu404  N443    2.014   .     S
Cu404  O406    1.969   .     S
O405   C409    1.292   .     A
O406   C409    1.292   .     A
O407   C410    1.293   .     A
O408   C410    1.295   .     A
C409   C430    1.449   .     S
C410   C413    1.460   .     S
C411   C424    1.390   .     A
C411   H452    1.080   .     S
C411   C1014   1.412   1_554 S
H412   C424    1.083   .     S
C413   C423    1.393   .     A
C413   C424    1.393   .     A
C414   N453    1.432   .     S
C414   C425    1.417   .     A
C414   C415    1.402   .     A
C415   C1010   1.396   .     S
C415   N1050   1.440   .     S
C416   H427    1.074   .     S
C416   C1009   1.396   1_554 S
C416   C1011   1.416   1_554 S
C417   C418    1.415   .     A
C417   C1010   1.416   .     S
C417   C1013   1.427   .     S
C418   C425    1.420   .     A
C418   C422    1.408   .     A
C419   C423    1.407   .     A
C419   C1011   1.427   1_554 S
C419   C1014   1.426   1_554 S
C420   C421    1.407   .     A
C420   C1005   1.412   .     S
C420   C1013   1.426   .     S
C421   N449    1.435   .     S
C421   C422    1.393   .     A
C422   H459    1.082   .     S
C423   H426    1.075   .     S
C428   N460    1.431   .     S
C428   C435    1.417   .     A
C428   C33     1.383   1_565 S
C429   C430    1.396   .     A
C429   H444    1.083   .     S
C430   C431    1.398   .     A
C431   H432    1.083   .     S
C433   H434    1.083   .     S
C433   C435    1.404   .     A
C433   C35     1.385   1_565 S
C436   N443    1.367   .     A
C436   H437    1.078   .     S
C436   C504    1.416   .     S
C438   N439    1.366   .     A
C438   H445    1.080   .     S
C438   C568    1.416   1_455 S
N439   C440    1.361   .     A
C440   H441    1.082   .     S
C440   C574    1.414   1_455 S
C442   N446    1.425   .     S
C442   N443    1.377   .     A
C442   C506    1.414   .     S
N446   O448    1.300   .     A
N446   O447    1.299   .     A
N449   O450    1.301   .     A
N449   O451    1.301   .     A
N453   O454    1.301   .     A
N453   O455    1.301   .     A
N456   O458    1.302   .     A
N456   C1009   1.440   1_554 S
N456   O589    1.301   1_455 S
O457   N522    1.301   .     S
N460   O461    1.301   .     A
N460   O462    1.300   .     A
O463   Cu469   1.969   .     S
O463   C465    1.298   .     A
O464   C465    1.290   .     A
O464   Cu470   1.971   .     S
C465   C501    1.459   .     S
O466   Cu469   1.951   .     S
O466   C468    1.296   .     A
O467   Cu470   1.937   .     S
O467   C468    1.300   .     A
C468   C491    1.482   .     S
Cu469  N505    2.015   .     S
Cu469  O473    1.937   .     S
Cu469  Cu470   2.681   .     S
Cu469  O471    1.971   .     S
Cu470  O474    1.951   .     S
Cu470  N509    2.014   .     S
Cu470  O472    1.969   .     S
O471   C475    1.292   .     A
O472   C475    1.292   .     A
O473   C476    1.293   .     A
O474   C476    1.295   .     A
C475   C496    1.449   .     S
C476   C479    1.460   .     S
C477   C490    1.390   .     A
C477   H518    1.080   .     S
C477   C1080   1.412   1_554 S
H478   C490    1.083   .     S
C479   C489    1.393   .     A
C479   C490    1.393   .     A
C480   N519    1.432   .     S
C480   C491    1.417   .     A
C480   C481    1.402   .     A
C481   C1076   1.396   .     S
C481   N1116   1.440   .     S
C482   H493    1.074   .     S
C482   C1075   1.396   1_554 S
C482   C1077   1.416   1_554 S
C483   C484    1.415   .     A
C483   C1076   1.416   .     S
C483   C1079   1.427   .     S
C484   C491    1.420   .     A
C484   C488    1.408   .     A
C485   C489    1.407   .     A
C485   C1077   1.427   1_554 S
C485   C1080   1.426   1_554 S
C486   C487    1.407   .     A
C486   C1071   1.412   .     S
C486   C1079   1.426   .     S
C487   N515    1.435   .     S
C487   C488    1.393   .     A
C488   H525    1.082   .     S
C489   H492    1.075   .     S
C494   N526    1.431   .     S
C494   C501    1.417   .     A
C494   C99     1.383   1_565 S
C495   C496    1.396   .     A
C495   H510    1.083   .     S
C496   C497    1.398   .     A
C497   H498    1.083   .     S
C499   H500    1.083   .     S
C499   C501    1.404   .     A
C499   C101    1.385   1_565 S
C502   N509    1.367   .     A
C502   H503    1.078   .     S
C502   C570    1.416   .     S
C504   N505    1.366   .     A
C504   H511    1.080   .     S
N505   C506    1.361   .     A
C506   H507    1.082   .     S
C508   N512    1.425   .     S
C508   N509    1.377   .     A
C508   C572    1.414   .     S
N512   O514    1.300   .     A
N512   O513    1.299   .     A
N515   O516    1.301   .     A
N515   O517    1.301   .     A
N519   O520    1.301   .     A
N519   O521    1.301   .     A
N522   O524    1.302   .     A
N522   C1075   1.440   1_554 S
O523   N588    1.301   .     S
N526   O527    1.301   .     A
N526   O528    1.300   .     A
O529   Cu535   1.969   .     S
O529   C531    1.298   .     A
O530   C531    1.290   .     A
O530   Cu536   1.971   .     S
C531   C567    1.459   .     S
O532   Cu535   1.951   .     S
O532   C534    1.296   .     A
O533   Cu536   1.937   .     S
O533   C534    1.300   .     A
C534   C557    1.482   .     S
Cu535  N571    2.015   .     S
Cu535  O539    1.937   .     S
Cu535  Cu536   2.681   .     S
Cu535  O537    1.971   .     S
Cu536  O540    1.951   .     S
Cu536  N575    2.014   .     S
Cu536  O538    1.969   .     S
O537   C541    1.292   .     A
O538   C541    1.292   .     A
O539   C542    1.293   .     A
O540   C542    1.295   .     A
C541   C562    1.449   .     S
C542   C545    1.460   .     S
C543   C556    1.390   .     A
C543   H584    1.080   .     S
C543   C1146   1.412   1_554 S
H544   C556    1.083   .     S
C545   C555    1.393   .     A
C545   C556    1.393   .     A
C546   N585    1.432   .     S
C546   C557    1.417   .     A
C546   C547    1.402   .     A
C547   C1142   1.396   .     S
C547   N1182   1.440   .     S
C548   H559    1.074   .     S
C548   C1141   1.396   1_554 S
C548   C1143   1.416   1_554 S
C549   C550    1.415   .     A
C549   C1142   1.416   .     S
C549   C1145   1.427   .     S
C550   C557    1.420   .     A
C550   C554    1.408   .     A
C551   C555    1.407   .     A
C551   C1143   1.427   1_554 S
C551   C1146   1.426   1_554 S
C552   C553    1.407   .     A
C552   C1137   1.412   .     S
C552   C1145   1.426   .     S
C553   N581    1.435   .     S
C553   C554    1.393   .     A
C554   H591    1.082   .     S
C555   H558    1.075   .     S
C560   N592    1.431   .     S
C560   C567    1.417   .     A
C560   C165    1.383   1_565 S
C561   C562    1.396   .     A
C561   H576    1.083   .     S
C562   C563    1.398   .     A
C563   H564    1.083   .     S
C565   H566    1.083   .     S
C565   C567    1.404   .     A
C565   C167    1.385   1_565 S
C568   N575    1.367   .     A
C568   H569    1.078   .     S
C568   C438    1.416   1_655 S
C570   N571    1.366   .     A
C570   H577    1.080   .     S
N571   C572    1.361   .     A
C572   H573    1.082   .     S
C574   N578    1.425   .     S
C574   N575    1.377   .     A
C574   C440    1.414   1_655 S
N578   O580    1.300   .     A
N578   O579    1.299   .     A
N581   O582    1.301   .     A
N581   O583    1.301   .     A
N585   O586    1.301   .     A
N585   O587    1.301   .     A
N588   O590    1.302   .     A
N588   C1141   1.440   1_554 S
O589   N456    1.301   1_655 S
N592   O593    1.301   .     A
N592   O594    1.300   .     A
O595   Cu601   1.969   .     S
O595   C597    1.298   .     A
O596   C597    1.290   .     A
O596   Cu602   1.971   .     S
C597   C633    1.459   .     S
O598   Cu601   1.951   .     S
O598   C600    1.296   .     A
O599   Cu602   1.937   .     S
O599   C600    1.300   .     A
C600   C623    1.482   .     S
Cu601  N637    2.015   .     S
Cu601  O605    1.937   .     S
Cu601  Cu602   2.681   .     S
Cu601  O603    1.971   .     S
Cu602  O606    1.951   .     S
Cu602  N641    2.014   .     S
Cu602  O604    1.969   .     S
O603   C607    1.292   .     A
O604   C607    1.292   .     A
O605   C608    1.293   .     A
O606   C608    1.295   .     A
C607   C628    1.449   .     S
C608   C611    1.460   .     S
C609   C622    1.390   .     A
C609   H650    1.080   .     S
H610   C622    1.083   .     S
C611   C621    1.393   .     A
C611   C622    1.393   .     A
C612   N651    1.432   .     S
C612   C623    1.417   .     A
C612   C613    1.402   .     A
C613   C20     1.396   1_556 S
C613   N60     1.440   1_556 S
C614   H625    1.074   .     S
C615   C616    1.415   .     A
C615   C20     1.416   1_556 S
C615   C23     1.427   1_556 S
C616   C623    1.420   .     A
C616   C620    1.408   .     A
C617   C621    1.407   .     A
C618   C619    1.407   .     A
C618   C15     1.412   1_556 S
C618   C23     1.426   1_556 S
C619   N647    1.435   .     S
C619   C620    1.393   .     A
C620   H657    1.082   .     S
C621   H624    1.075   .     S
C626   N658    1.431   .     S
C626   C633    1.417   .     A
C626   C825    1.383   .     S
C627   C628    1.396   .     A
C627   H642    1.083   .     S
C627   C1022   1.383   1_545 S
C628   C629    1.398   .     A
C629   H630    1.083   .     S
C629   C1027   1.385   1_545 S
C631   H632    1.083   .     S
C631   C633    1.404   .     A
C631   C827    1.385   .     S
C634   N641    1.367   .     A
C634   H635    1.078   .     S
C634   C702    1.416   .     S
C636   N637    1.366   .     A
C636   H643    1.080   .     S
C636   C766    1.416   1_455 S
N637   C638    1.361   .     A
C638   H639    1.082   .     S
C638   C772    1.414   1_455 S
C640   N644    1.425   .     S
C640   N641    1.377   .     A
C640   C704    1.414   .     S
N644   O646    1.300   .     A
N644   O645    1.299   .     A
N647   O648    1.301   .     A
N647   O649    1.301   .     A
N651   O652    1.301   .     A
N651   O653    1.301   .     A
N654   O656    1.302   .     A
N654   O787    1.301   1_455 S
O655   N720    1.301   .     S
N658   O659    1.301   .     A
N658   O660    1.300   .     A
O661   Cu667   1.969   .     S
O661   C663    1.298   .     A
O662   C663    1.290   .     A
O662   Cu668   1.971   .     S
C663   C699    1.459   .     S
O664   Cu667   1.951   .     S
O664   C666    1.296   .     A
O665   Cu668   1.937   .     S
O665   C666    1.300   .     A
C666   C689    1.482   .     S
Cu667  N703    2.015   .     S
Cu667  O671    1.937   .     S
Cu667  Cu668   2.681   .     S
Cu667  O669    1.971   .     S
Cu668  O672    1.951   .     S
Cu668  N707    2.014   .     S
Cu668  O670    1.969   .     S
O669   C673    1.292   .     A
O670   C673    1.292   .     A
O671   C674    1.293   .     A
O672   C674    1.295   .     A
C673   C694    1.449   .     S
C674   C677    1.460   .     S
C675   C688    1.390   .     A
C675   H716    1.080   .     S
H676   C688    1.083   .     S
C677   C687    1.393   .     A
C677   C688    1.393   .     A
C678   N717    1.432   .     S
C678   C689    1.417   .     A
C678   C679    1.402   .     A
C679   C86     1.396   1_556 S
C679   N126    1.440   1_556 S
C680   H691    1.074   .     S
C681   C682    1.415   .     A
C681   C86     1.416   1_556 S
C681   C89     1.427   1_556 S
C682   C689    1.420   .     A
C682   C686    1.408   .     A
C683   C687    1.407   .     A
C684   C685    1.407   .     A
C684   C81     1.412   1_556 S
C684   C89     1.426   1_556 S
C685   N713    1.435   .     S
C685   C686    1.393   .     A
C686   H723    1.082   .     S
C687   H690    1.075   .     S
C692   N724    1.431   .     S
C692   C699    1.417   .     A
C692   C891    1.383   .     S
C693   C694    1.396   .     A
C693   H708    1.083   .     S
C693   C1088   1.383   1_545 S
C694   C695    1.398   .     A
C695   H696    1.083   .     S
C695   C1093   1.385   1_545 S
C697   H698    1.083   .     S
C697   C699    1.404   .     A
C697   C893    1.385   .     S
C700   N707    1.367   .     A
C700   H701    1.078   .     S
C700   C768    1.416   .     S
C702   N703    1.366   .     A
C702   H709    1.080   .     S
N703   C704    1.361   .     A
C704   H705    1.082   .     S
C706   N710    1.425   .     S
C706   N707    1.377   .     A
C706   C770    1.414   .     S
N710   O712    1.300   .     A
N710   O711    1.299   .     A
N713   O714    1.301   .     A
N713   O715    1.301   .     A
N717   O718    1.301   .     A
N717   O719    1.301   .     A
N720   O722    1.302   .     A
O721   N786    1.301   .     S
N724   O725    1.301   .     A
N724   O726    1.300   .     A
O727   Cu733   1.969   .     S
O727   C729    1.298   .     A
O728   C729    1.290   .     A
O728   Cu734   1.971   .     S
C729   C765    1.459   .     S
O730   Cu733   1.951   .     S
O730   C732    1.296   .     A
O731   Cu734   1.937   .     S
O731   C732    1.300   .     A
C732   C755    1.482   .     S
Cu733  N769    2.015   .     S
Cu733  O737    1.937   .     S
Cu733  Cu734   2.681   .     S
Cu733  O735    1.971   .     S
Cu734  O738    1.951   .     S
Cu734  N773    2.014   .     S
Cu734  O736    1.969   .     S
O735   C739    1.292   .     A
O736   C739    1.292   .     A
O737   C740    1.293   .     A
O738   C740    1.295   .     A
C739   C760    1.449   .     S
C740   C743    1.460   .     S
C741   C754    1.390   .     A
C741   H782    1.080   .     S
H742   C754    1.083   .     S
C743   C753    1.393   .     A
C743   C754    1.393   .     A
C744   N783    1.432   .     S
C744   C755    1.417   .     A
C744   C745    1.402   .     A
C745   C152    1.396   1_556 S
C745   N192    1.440   1_556 S
C746   H757    1.074   .     S
C747   C748    1.415   .     A
C747   C152    1.416   1_556 S
C747   C155    1.427   1_556 S
C748   C755    1.420   .     A
C748   C752    1.408   .     A
C749   C753    1.407   .     A
C750   C751    1.407   .     A
C750   C147    1.412   1_556 S
C750   C155    1.426   1_556 S
C751   N779    1.435   .     S
C751   C752    1.393   .     A
C752   H789    1.082   .     S
C753   H756    1.075   .     S
C758   N790    1.431   .     S
C758   C765    1.417   .     A
C758   C957    1.383   .     S
C759   C760    1.396   .     A
C759   H774    1.083   .     S
C759   C1154   1.383   1_545 S
C760   C761    1.398   .     A
C761   H762    1.083   .     S
C761   C1159   1.385   1_545 S
C763   H764    1.083   .     S
C763   C765    1.404   .     A
C763   C959    1.385   .     S
C766   N773    1.367   .     A
C766   H767    1.078   .     S
C766   C636    1.416   1_655 S
C768   N769    1.366   .     A
C768   H775    1.080   .     S
N769   C770    1.361   .     A
C770   H771    1.082   .     S
C772   N776    1.425   .     S
C772   N773    1.377   .     A
C772   C638    1.414   1_655 S
N776   O778    1.300   .     A
N776   O777    1.299   .     A
N779   O780    1.301   .     A
N779   O781    1.301   .     A
N783   O784    1.301   .     A
N783   O785    1.301   .     A
N786   O788    1.302   .     A
O787   N654    1.301   1_655 S
N790   O791    1.301   .     A
N790   O792    1.300   .     A
O793   Cu799   1.969   .     S
O793   C795    1.298   .     A
O794   C795    1.290   .     A
O794   Cu800   1.971   .     S
C795   C831    1.459   .     S
O796   Cu799   1.951   .     S
O796   C798    1.296   .     A
O797   Cu800   1.937   .     S
O797   C798    1.300   .     A
C798   C821    1.482   .     S
Cu799  N835    2.015   .     S
Cu799  O803    1.937   .     S
Cu799  Cu800   2.681   .     S
Cu799  O801    1.971   .     S
Cu800  O804    1.951   .     S
Cu800  N839    2.014   .     S
Cu800  O802    1.969   .     S
O801   C805    1.292   .     A
O802   C805    1.292   .     A
O803   C806    1.293   .     A
O804   C806    1.295   .     A
C805   C826    1.449   .     S
C806   C809    1.460   .     S
C807   C820    1.390   .     A
C807   H848    1.080   .     S
H808   C820    1.083   .     S
C809   C819    1.393   .     A
C809   C820    1.393   .     A
C810   N849    1.432   .     S
C810   C821    1.417   .     A
C810   C811    1.402   .     A
C811   C218    1.396   1_556 S
C811   N258    1.440   1_556 S
C812   H823    1.074   .     S
C813   C814    1.415   .     A
C813   C218    1.416   1_556 S
C813   C221    1.427   1_556 S
C814   C821    1.420   .     A
C814   C818    1.408   .     A
C815   C819    1.407   .     A
C816   C817    1.407   .     A
C816   C213    1.412   1_556 S
C816   C221    1.426   1_556 S
C817   N845    1.435   .     S
C817   C818    1.393   .     A
C818   H855    1.082   .     S
C819   H822    1.075   .     S
C824   N856    1.431   .     S
C824   C831    1.417   .     A
C824   C1023   1.383   .     S
C825   C826    1.396   .     A
C825   H840    1.083   .     S
C826   C827    1.398   .     A
C827   H828    1.083   .     S
C829   H830    1.083   .     S
C829   C831    1.404   .     A
C829   C1025   1.385   .     S
C832   N839    1.367   .     A
C832   H833    1.078   .     S
C832   C900    1.416   .     S
C834   N835    1.366   .     A
C834   H841    1.080   .     S
C834   C964    1.416   1_455 S
N835   C836    1.361   .     A
C836   H837    1.082   .     S
C836   C970    1.414   1_455 S
C838   N842    1.425   .     S
C838   N839    1.377   .     A
C838   C902    1.414   .     S
N842   O844    1.300   .     A
N842   O843    1.299   .     A
N845   O846    1.301   .     A
N845   O847    1.301   .     A
N849   O850    1.301   .     A
N849   O851    1.301   .     A
N852   O854    1.302   .     A
N852   O985    1.301   1_455 S
O853   N918    1.301   .     S
N856   O857    1.301   .     A
N856   O858    1.300   .     A
O859   Cu865   1.969   .     S
O859   C861    1.298   .     A
O860   C861    1.290   .     A
O860   Cu866   1.971   .     S
C861   C897    1.459   .     S
O862   Cu865   1.951   .     S
O862   C864    1.296   .     A
O863   Cu866   1.937   .     S
O863   C864    1.300   .     A
C864   C887    1.482   .     S
Cu865  N901    2.015   .     S
Cu865  O869    1.937   .     S
Cu865  Cu866   2.681   .     S
Cu865  O867    1.971   .     S
Cu866  O870    1.951   .     S
Cu866  N905    2.014   .     S
Cu866  O868    1.969   .     S
O867   C871    1.292   .     A
O868   C871    1.292   .     A
O869   C872    1.293   .     A
O870   C872    1.295   .     A
C871   C892    1.449   .     S
C872   C875    1.460   .     S
C873   C886    1.390   .     A
C873   H914    1.080   .     S
H874   C886    1.083   .     S
C875   C885    1.393   .     A
C875   C886    1.393   .     A
C876   N915    1.432   .     S
C876   C887    1.417   .     A
C876   C877    1.402   .     A
C877   C284    1.396   1_556 S
C877   N324    1.440   1_556 S
C878   H889    1.074   .     S
C879   C880    1.415   .     A
C879   C284    1.416   1_556 S
C879   C287    1.427   1_556 S
C880   C887    1.420   .     A
C880   C884    1.408   .     A
C881   C885    1.407   .     A
C882   C883    1.407   .     A
C882   C279    1.412   1_556 S
C882   C287    1.426   1_556 S
C883   N911    1.435   .     S
C883   C884    1.393   .     A
C884   H921    1.082   .     S
C885   H888    1.075   .     S
C890   N922    1.431   .     S
C890   C897    1.417   .     A
C890   C1089   1.383   .     S
C891   C892    1.396   .     A
C891   H906    1.083   .     S
C892   C893    1.398   .     A
C893   H894    1.083   .     S
C895   H896    1.083   .     S
C895   C897    1.404   .     A
C895   C1091   1.385   .     S
C898   N905    1.367   .     A
C898   H899    1.078   .     S
C898   C966    1.416   .     S
C900   N901    1.366   .     A
C900   H907    1.080   .     S
N901   C902    1.361   .     A
C902   H903    1.082   .     S
C904   N908    1.425   .     S
C904   N905    1.377   .     A
C904   C968    1.414   .     S
N908   O910    1.300   .     A
N908   O909    1.299   .     A
N911   O912    1.301   .     A
N911   O913    1.301   .     A
N915   O916    1.301   .     A
N915   O917    1.301   .     A
N918   O920    1.302   .     A
O919   N984    1.301   .     S
N922   O923    1.301   .     A
N922   O924    1.300   .     A
O925   Cu931   1.969   .     S
O925   C927    1.298   .     A
O926   C927    1.290   .     A
O926   Cu932   1.971   .     S
C927   C963    1.459   .     S
O928   Cu931   1.951   .     S
O928   C930    1.296   .     A
O929   Cu932   1.937   .     S
O929   C930    1.300   .     A
C930   C953    1.482   .     S
Cu931  N967    2.015   .     S
Cu931  O935    1.937   .     S
Cu931  Cu932   2.681   .     S
Cu931  O933    1.971   .     S
Cu932  O936    1.951   .     S
Cu932  N971    2.014   .     S
Cu932  O934    1.969   .     S
O933   C937    1.292   .     A
O934   C937    1.292   .     A
O935   C938    1.293   .     A
O936   C938    1.295   .     A
C937   C958    1.449   .     S
C938   C941    1.460   .     S
C939   C952    1.390   .     A
C939   H980    1.080   .     S
H940   C952    1.083   .     S
C941   C951    1.393   .     A
C941   C952    1.393   .     A
C942   N981    1.432   .     S
C942   C953    1.417   .     A
C942   C943    1.402   .     A
C943   C350    1.396   1_556 S
C943   N390    1.440   1_556 S
C944   H955    1.074   .     S
C945   C946    1.415   .     A
C945   C350    1.416   1_556 S
C945   C353    1.427   1_556 S
C946   C953    1.420   .     A
C946   C950    1.408   .     A
C947   C951    1.407   .     A
C948   C949    1.407   .     A
C948   C345    1.412   1_556 S
C948   C353    1.426   1_556 S
C949   N977    1.435   .     S
C949   C950    1.393   .     A
C950   H987    1.082   .     S
C951   H954    1.075   .     S
C956   N988    1.431   .     S
C956   C963    1.417   .     A
C956   C1155   1.383   .     S
C957   C958    1.396   .     A
C957   H972    1.083   .     S
C958   C959    1.398   .     A
C959   H960    1.083   .     S
C961   H962    1.083   .     S
C961   C963    1.404   .     A
C961   C1157   1.385   .     S
C964   N971    1.367   .     A
C964   H965    1.078   .     S
C964   C834    1.416   1_655 S
C966   N967    1.366   .     A
C966   H973    1.080   .     S
N967   C968    1.361   .     A
C968   H969    1.082   .     S
C970   N974    1.425   .     S
C970   N971    1.377   .     A
C970   C836    1.414   1_655 S
N974   O976    1.300   .     A
N974   O975    1.299   .     A
N977   O978    1.301   .     A
N977   O979    1.301   .     A
N981   O982    1.301   .     A
N981   O983    1.301   .     A
N984   O986    1.302   .     A
O985   N852    1.301   1_655 S
N988   O989    1.301   .     A
N988   O990    1.300   .     A
O991   Cu997   1.969   .     S
O991   C993    1.298   .     A
O992   C993    1.290   .     A
O992   Cu998   1.971   .     S
C993   C1029   1.459   .     S
O994   Cu997   1.951   .     S
O994   C996    1.296   .     A
O995   Cu998   1.937   .     S
O995   C996    1.300   .     A
C996   C1019   1.482   .     S
Cu997  N1033   2.015   .     S
Cu997  O1001   1.937   .     S
Cu997  Cu998   2.681   .     S
Cu997  O999    1.971   .     S
Cu998  O1002   1.951   .     S
Cu998  N1037   2.014   .     S
Cu998  O1000   1.969   .     S
O999   C1003   1.292   .     A
O1000  C1003   1.292   .     A
O1001  C1004   1.293   .     A
O1002  C1004   1.295   .     A
C1003  C1024   1.449   .     S
C1004  C1007   1.460   .     S
C1005  C1018   1.390   .     A
C1005  H1046   1.080   .     S
H1006  C1018   1.083   .     S
C1007  C1017   1.393   .     A
C1007  C1018   1.393   .     A
C1008  N1047   1.432   .     S
C1008  C1019   1.417   .     A
C1008  C1009   1.402   .     A
C1009  C416    1.396   1_556 S
C1009  N456    1.440   1_556 S
C1010  H1021   1.074   .     S
C1011  C1012   1.415   .     A
C1011  C416    1.416   1_556 S
C1011  C419    1.427   1_556 S
C1012  C1019   1.420   .     A
C1012  C1016   1.408   .     A
C1013  C1017   1.407   .     A
C1014  C1015   1.407   .     A
C1014  C411    1.412   1_556 S
C1014  C419    1.426   1_556 S
C1015  N1043   1.435   .     S
C1015  C1016   1.393   .     A
C1016  H1053   1.082   .     S
C1017  H1020   1.075   .     S
C1022  N1054   1.431   .     S
C1022  C1029   1.417   .     A
C1022  C627    1.383   1_565 S
C1023  C1024   1.396   .     A
C1023  H1038   1.083   .     S
C1024  C1025   1.398   .     A
C1025  H1026   1.083   .     S
C1027  H1028   1.083   .     S
C1027  C1029   1.404   .     A
C1027  C629    1.385   1_565 S
C1030  N1037   1.367   .     A
C1030  H1031   1.078   .     S
C1030  C1098   1.416   .     S
C1032  N1033   1.366   .     A
C1032  H1039   1.080   .     S
C1032  C1162   1.416   1_455 S
N1033  C1034   1.361   .     A
C1034  H1035   1.082   .     S
C1034  C1168   1.414   1_455 S
C1036  N1040   1.425   .     S
C1036  N1037   1.377   .     A
C1036  C1100   1.414   .     S
N1040  O1042   1.300   .     A
N1040  O1041   1.299   .     A
N1043  O1044   1.301   .     A
N1043  O1045   1.301   .     A
N1047  O1048   1.301   .     A
N1047  O1049   1.301   .     A
N1050  O1052   1.302   .     A
N1050  O1183   1.301   1_455 S
O1051  N1116   1.301   .     S
N1054  O1055   1.301   .     A
N1054  O1056   1.300   .     A
O1057  Cu1063  1.969   .     S
O1057  C1059   1.298   .     A
O1058  C1059   1.290   .     A
O1058  Cu1064  1.971   .     S
C1059  C1095   1.459   .     S
O1060  Cu1063  1.951   .     S
O1060  C1062   1.296   .     A
O1061  Cu1064  1.937   .     S
O1061  C1062   1.300   .     A
C1062  C1085   1.482   .     S
Cu1063 N1099   2.015   .     S
Cu1063 O1067   1.937   .     S
Cu1063 Cu1064  2.681   .     S
Cu1063 O1065   1.971   .     S
Cu1064 O1068   1.951   .     S
Cu1064 N1103   2.014   .     S
Cu1064 O1066   1.969   .     S
O1065  C1069   1.292   .     A
O1066  C1069   1.292   .     A
O1067  C1070   1.293   .     A
O1068  C1070   1.295   .     A
C1069  C1090   1.449   .     S
C1070  C1073   1.460   .     S
C1071  C1084   1.390   .     A
C1071  H1112   1.080   .     S
H1072  C1084   1.083   .     S
C1073  C1083   1.393   .     A
C1073  C1084   1.393   .     A
C1074  N1113   1.432   .     S
C1074  C1085   1.417   .     A
C1074  C1075   1.402   .     A
C1075  C482    1.396   1_556 S
C1075  N522    1.440   1_556 S
C1076  H1087   1.074   .     S
C1077  C1078   1.415   .     A
C1077  C482    1.416   1_556 S
C1077  C485    1.427   1_556 S
C1078  C1085   1.420   .     A
C1078  C1082   1.408   .     A
C1079  C1083   1.407   .     A
C1080  C1081   1.407   .     A
C1080  C477    1.412   1_556 S
C1080  C485    1.426   1_556 S
C1081  N1109   1.435   .     S
C1081  C1082   1.393   .     A
C1082  H1119   1.082   .     S
C1083  H1086   1.075   .     S
C1088  N1120   1.431   .     S
C1088  C1095   1.417   .     A
C1088  C693    1.383   1_565 S
C1089  C1090   1.396   .     A
C1089  H1104   1.083   .     S
C1090  C1091   1.398   .     A
C1091  H1092   1.083   .     S
C1093  H1094   1.083   .     S
C1093  C1095   1.404   .     A
C1093  C695    1.385   1_565 S
C1096  N1103   1.367   .     A
C1096  H1097   1.078   .     S
C1096  C1164   1.416   .     S
C1098  N1099   1.366   .     A
C1098  H1105   1.080   .     S
N1099  C1100   1.361   .     A
C1100  H1101   1.082   .     S
C1102  N1106   1.425   .     S
C1102  N1103   1.377   .     A
C1102  C1166   1.414   .     S
N1106  O1108   1.300   .     A
N1106  O1107   1.299   .     A
N1109  O1110   1.301   .     A
N1109  O1111   1.301   .     A
N1113  O1114   1.301   .     A
N1113  O1115   1.301   .     A
N1116  O1118   1.302   .     A
O1117  N1182   1.301   .     S
N1120  O1121   1.301   .     A
N1120  O1122   1.300   .     A
O1123  Cu1129  1.969   .     S
O1123  C1125   1.298   .     A
O1124  C1125   1.290   .     A
O1124  Cu1130  1.971   .     S
C1125  C1161   1.459   .     S
O1126  Cu1129  1.951   .     S
O1126  C1128   1.296   .     A
O1127  Cu1130  1.937   .     S
O1127  C1128   1.300   .     A
C1128  C1151   1.482   .     S
Cu1129 N1165   2.015   .     S
Cu1129 O1133   1.937   .     S
Cu1129 Cu1130  2.681   .     S
Cu1129 O1131   1.971   .     S
Cu1130 O1134   1.951   .     S
Cu1130 N1169   2.014   .     S
Cu1130 O1132   1.969   .     S
O1131  C1135   1.292   .     A
O1132  C1135   1.292   .     A
O1133  C1136   1.293   .     A
O1134  C1136   1.295   .     A
C1135  C1156   1.449   .     S
C1136  C1139   1.460   .     S
C1137  C1150   1.390   .     A
C1137  H1178   1.080   .     S
H1138  C1150   1.083   .     S
C1139  C1149   1.393   .     A
C1139  C1150   1.393   .     A
C1140  N1179   1.432   .     S
C1140  C1151   1.417   .     A
C1140  C1141   1.402   .     A
C1141  C548    1.396   1_556 S
C1141  N588    1.440   1_556 S
C1142  H1153   1.074   .     S
C1143  C1144   1.415   .     A
C1143  C548    1.416   1_556 S
C1143  C551    1.427   1_556 S
C1144  C1151   1.420   .     A
C1144  C1148   1.408   .     A
C1145  C1149   1.407   .     A
C1146  C1147   1.407   .     A
C1146  C543    1.412   1_556 S
C1146  C551    1.426   1_556 S
C1147  N1175   1.435   .     S
C1147  C1148   1.393   .     A
C1148  H1185   1.082   .     S
C1149  H1152   1.075   .     S
C1154  N1186   1.431   .     S
C1154  C1161   1.417   .     A
C1154  C759    1.383   1_565 S
C1155  C1156   1.396   .     A
C1155  H1170   1.083   .     S
C1156  C1157   1.398   .     A
C1157  H1158   1.083   .     S
C1159  H1160   1.083   .     S
C1159  C1161   1.404   .     A
C1159  C761    1.385   1_565 S
C1162  N1169   1.367   .     A
C1162  H1163   1.078   .     S
C1162  C1032   1.416   1_655 S
C1164  N1165   1.366   .     A
C1164  H1171   1.080   .     S
N1165  C1166   1.361   .     A
C1166  H1167   1.082   .     S
C1168  N1172   1.425   .     S
C1168  N1169   1.377   .     A
C1168  C1034   1.414   1_655 S
N1172  O1174   1.300   .     A
N1172  O1173   1.299   .     A
N1175  O1176   1.301   .     A
N1175  O1177   1.301   .     A
N1179  O1180   1.301   .     A
N1179  O1181   1.301   .     A
N1182  O1184   1.302   .     A
O1183  N1050   1.301   1_655 S
N1186  O1187   1.301   .     A
N1186  O1188   1.300   .     A
