data_str_m3_o1_o10_pcu_sym.40
_audit_creation_date              2020-01-03
_audit_creation_method            'Materials Studio'
_symmetry_space_group_name_H-M    'P1'
_symmetry_Int_Tables_number       1
_symmetry_cell_setting            triclinic
loop_
_symmetry_equiv_pos_as_xyz
  x,y,z
_cell_length_a                    25.7829
_cell_length_b                    32.2752
_cell_length_c                    29.6156
_cell_angle_alpha                 90.2385
_cell_angle_beta                  97.2685
_cell_angle_gamma                 90.4290
loop_
_atom_site_label
_atom_site_type_symbol
_atom_site_fract_x
_atom_site_fract_y
_atom_site_fract_z
_atom_site_U_iso_or_equiv
_atom_site_adp_type
_atom_site_occupancy
Br1    Br    0.32120   0.11704   0.10533   0.00000  Uiso   1.00
Br2    Br    0.01136   0.21570   0.22747   0.00000  Uiso   1.00
Br3    Br    0.25163   0.22602   0.06191   0.00000  Uiso   1.00
Br4    Br    0.08194   0.10711   0.27131   0.00000  Uiso   1.00
C5     C     0.16824   0.08671   0.16666   0.00000  Uiso   1.00
C6     C     0.15916   0.02215   0.20586   0.00000  Uiso   1.00
C7     C     0.16908   0.29095   0.16833   0.00000  Uiso   1.00
C8     C     0.17015   0.04256   0.16669   0.00000  Uiso   1.00
C9     C     0.20158   0.19067   0.02736   0.00000  Uiso   1.00
C10    C     0.13158   0.14281   0.30592   0.00000  Uiso   1.00
C11    C     0.20140   0.19053   0.31294   0.00000  Uiso   1.00
C12    C     0.13145   0.14326   0.02032   0.00000  Uiso   1.00
C13    C     0.17423   0.03652   0.05266   0.00000  Uiso   1.00
C14    C     0.20371   0.05352   0.01532   0.00000  Uiso   1.00
C15    C     0.10858   0.30147   0.26583   0.00000  Uiso   1.00
C16    C     0.16737   0.24671   0.16710   0.00000  Uiso   1.00
C17    C     0.10301   0.27234   0.30525   0.00000  Uiso   1.00
C18    C     0.06728   0.16608   0.15526   0.00000  Uiso   1.00
C19    C     0.26601   0.16677   0.17803   0.00000  Uiso   1.00
C20    C     0.01344   0.15843   0.15071   0.00000  Uiso   1.00
C21    C     0.31977   0.17407   0.18251   0.00000  Uiso   1.00
C22    C     0.18354   0.02076   0.12875   0.00000  Uiso   1.00
C23    C     0.15854   0.31283   0.20741   0.00000  Uiso   1.00
C24    C     0.18281   0.31141   0.13010   0.00000  Uiso   1.00
H25    H     0.19515   0.29427   0.10193   0.00000  Uiso   1.00
H26    H     0.07427   0.29695   0.23933   0.00000  Uiso   1.00
H27    H     0.10870   0.00028   0.27937   0.00000  Uiso   1.00
H28    H     0.06602   0.27873   0.31945   0.00000  Uiso   1.00
H29    H     0.10263   0.23968   0.29341   0.00000  Uiso   1.00
H30    H     0.13639   0.27668   0.33247   0.00000  Uiso   1.00
H31    H     0.15262   0.03944   0.23588   0.00000  Uiso   1.00
H32    H     0.22897   0.20969   0.29762   0.00000  Uiso   1.00
H33    H     0.10342   0.12453   0.03557   0.00000  Uiso   1.00
H34    H     0.13749   0.05425   0.05315   0.00000  Uiso   1.00
H35    H     0.16408   0.00367   0.04406   0.00000  Uiso   1.00
H36    H     0.23862   0.03426   0.01226   0.00000  Uiso   1.00
H37    H     0.17800   0.05295   0.31570   0.00000  Uiso   1.00
H38    H     0.21664   0.08590   0.02335   0.00000  Uiso   1.00
N39    N     0.16665   0.16666   0.28573   0.00000  Uiso   1.00
N40    N     0.16668   0.16668   0.04760   0.00000  Uiso   1.00
O41    O     0.16666   0.10558   0.20487   0.00000  Uiso   1.00
O42    O     0.15585   0.29264   0.24844   0.00000  Uiso   1.00
O43    O     0.16667   0.22775   0.12846   0.00000  Uiso   1.00
O44    O     0.16666   0.10559   0.12843   0.00000  Uiso   1.00
O45    O     0.16667   0.22774   0.20490   0.00000  Uiso   1.00
O46    O     0.09058   0.16666   0.19595   0.00000  Uiso   1.00
O47    O     0.24275   0.16667   0.13739   0.00000  Uiso   1.00
O48    O     0.09058   0.16667   0.11950   0.00000  Uiso   1.00
O49    O     0.24275   0.16666   0.21383   0.00000  Uiso   1.00
O50    O     0.20621   0.04086   0.09480   0.00000  Uiso   1.00
Zn51   Zn    0.16667   0.16666   0.21771   0.00000  Uiso   1.00
Zn52   Zn    0.16667   0.16667   0.11563   0.00000  Uiso   1.00
Br53   Br    0.65453   0.11704   0.10533   0.00000  Uiso   1.00
Br54   Br    0.34469   0.21570   0.22747   0.00000  Uiso   1.00
Br55   Br    0.58496   0.22602   0.06191   0.00000  Uiso   1.00
Br56   Br    0.41527   0.10711   0.27131   0.00000  Uiso   1.00
C57    C     0.50157   0.08671   0.16666   0.00000  Uiso   1.00
C58    C     0.49249   0.02215   0.20586   0.00000  Uiso   1.00
C59    C     0.50242   0.29095   0.16833   0.00000  Uiso   1.00
C60    C     0.50348   0.04256   0.16669   0.00000  Uiso   1.00
C61    C     0.53491   0.19067   0.02736   0.00000  Uiso   1.00
C62    C     0.46491   0.14281   0.30592   0.00000  Uiso   1.00
C63    C     0.53473   0.19053   0.31294   0.00000  Uiso   1.00
C64    C     0.46479   0.14326   0.02032   0.00000  Uiso   1.00
C65    C     0.50757   0.03652   0.05266   0.00000  Uiso   1.00
C66    C     0.53704   0.05352   0.01532   0.00000  Uiso   1.00
C67    C     0.44191   0.30147   0.26583   0.00000  Uiso   1.00
C68    C     0.50070   0.24671   0.16710   0.00000  Uiso   1.00
C69    C     0.43634   0.27234   0.30525   0.00000  Uiso   1.00
C70    C     0.40062   0.16608   0.15526   0.00000  Uiso   1.00
C71    C     0.59934   0.16677   0.17803   0.00000  Uiso   1.00
C72    C     0.34677   0.15843   0.15071   0.00000  Uiso   1.00
C73    C     0.65311   0.17407   0.18251   0.00000  Uiso   1.00
C74    C     0.51687   0.02076   0.12875   0.00000  Uiso   1.00
C75    C     0.49187   0.31283   0.20741   0.00000  Uiso   1.00
C76    C     0.51615   0.31141   0.13010   0.00000  Uiso   1.00
H77    H     0.52849   0.29427   0.10193   0.00000  Uiso   1.00
H78    H     0.40760   0.29695   0.23933   0.00000  Uiso   1.00
H79    H     0.44204   0.00028   0.27937   0.00000  Uiso   1.00
H80    H     0.39935   0.27873   0.31945   0.00000  Uiso   1.00
H81    H     0.43597   0.23968   0.29341   0.00000  Uiso   1.00
H82    H     0.46972   0.27668   0.33247   0.00000  Uiso   1.00
H83    H     0.48596   0.03944   0.23588   0.00000  Uiso   1.00
H84    H     0.56230   0.20969   0.29762   0.00000  Uiso   1.00
H85    H     0.43676   0.12453   0.03557   0.00000  Uiso   1.00
H86    H     0.47083   0.05425   0.05315   0.00000  Uiso   1.00
H87    H     0.49742   0.00367   0.04406   0.00000  Uiso   1.00
H88    H     0.57195   0.03426   0.01226   0.00000  Uiso   1.00
H89    H     0.51134   0.05295   0.31570   0.00000  Uiso   1.00
H90    H     0.54998   0.08590   0.02335   0.00000  Uiso   1.00
N91    N     0.49999   0.16666   0.28573   0.00000  Uiso   1.00
N92    N     0.50001   0.16668   0.04760   0.00000  Uiso   1.00
O93    O     0.50000   0.10558   0.20487   0.00000  Uiso   1.00
O94    O     0.48918   0.29264   0.24844   0.00000  Uiso   1.00
O95    O     0.50000   0.22775   0.12846   0.00000  Uiso   1.00
O96    O     0.50000   0.10559   0.12843   0.00000  Uiso   1.00
O97    O     0.50000   0.22774   0.20490   0.00000  Uiso   1.00
O98    O     0.42392   0.16666   0.19595   0.00000  Uiso   1.00
O99    O     0.57608   0.16667   0.13739   0.00000  Uiso   1.00
O100   O     0.42392   0.16667   0.11950   0.00000  Uiso   1.00
O101   O     0.57608   0.16666   0.21383   0.00000  Uiso   1.00
O102   O     0.53954   0.04086   0.09480   0.00000  Uiso   1.00
Zn103  Zn    0.50000   0.16666   0.21771   0.00000  Uiso   1.00
Zn104  Zn    0.50000   0.16667   0.11563   0.00000  Uiso   1.00
Br105  Br    0.98786   0.11704   0.10533   0.00000  Uiso   1.00
Br106  Br    0.67803   0.21570   0.22747   0.00000  Uiso   1.00
Br107  Br    0.91830   0.22602   0.06191   0.00000  Uiso   1.00
Br108  Br    0.74861   0.10711   0.27131   0.00000  Uiso   1.00
C109   C     0.83491   0.08671   0.16666   0.00000  Uiso   1.00
C110   C     0.82582   0.02215   0.20586   0.00000  Uiso   1.00
C111   C     0.83575   0.29095   0.16833   0.00000  Uiso   1.00
C112   C     0.83682   0.04256   0.16669   0.00000  Uiso   1.00
C113   C     0.86825   0.19067   0.02736   0.00000  Uiso   1.00
C114   C     0.79825   0.14281   0.30592   0.00000  Uiso   1.00
C115   C     0.86806   0.19053   0.31294   0.00000  Uiso   1.00
C116   C     0.79812   0.14326   0.02032   0.00000  Uiso   1.00
C117   C     0.84090   0.03652   0.05266   0.00000  Uiso   1.00
C118   C     0.87037   0.05352   0.01532   0.00000  Uiso   1.00
C119   C     0.77524   0.30147   0.26583   0.00000  Uiso   1.00
C120   C     0.83403   0.24671   0.16710   0.00000  Uiso   1.00
C121   C     0.76968   0.27234   0.30525   0.00000  Uiso   1.00
C122   C     0.73395   0.16608   0.15526   0.00000  Uiso   1.00
C123   C     0.93267   0.16677   0.17803   0.00000  Uiso   1.00
C124   C     0.68011   0.15843   0.15071   0.00000  Uiso   1.00
C125   C     0.98644   0.17407   0.18251   0.00000  Uiso   1.00
C126   C     0.85021   0.02076   0.12875   0.00000  Uiso   1.00
C127   C     0.82520   0.31283   0.20741   0.00000  Uiso   1.00
C128   C     0.84948   0.31141   0.13010   0.00000  Uiso   1.00
H129   H     0.86182   0.29427   0.10193   0.00000  Uiso   1.00
H130   H     0.74094   0.29695   0.23933   0.00000  Uiso   1.00
H131   H     0.77537   0.00028   0.27937   0.00000  Uiso   1.00
H132   H     0.73268   0.27873   0.31945   0.00000  Uiso   1.00
H133   H     0.76930   0.23968   0.29341   0.00000  Uiso   1.00
H134   H     0.80305   0.27668   0.33247   0.00000  Uiso   1.00
H135   H     0.81929   0.03944   0.23588   0.00000  Uiso   1.00
H136   H     0.89564   0.20969   0.29762   0.00000  Uiso   1.00
H137   H     0.77009   0.12453   0.03557   0.00000  Uiso   1.00
H138   H     0.80416   0.05425   0.05315   0.00000  Uiso   1.00
H139   H     0.83075   0.00367   0.04406   0.00000  Uiso   1.00
H140   H     0.90529   0.03426   0.01226   0.00000  Uiso   1.00
H141   H     0.84467   0.05295   0.31570   0.00000  Uiso   1.00
H142   H     0.88331   0.08590   0.02335   0.00000  Uiso   1.00
N143   N     0.83332   0.16666   0.28573   0.00000  Uiso   1.00
N144   N     0.83335   0.16668   0.04760   0.00000  Uiso   1.00
O145   O     0.83333   0.10558   0.20487   0.00000  Uiso   1.00
O146   O     0.82251   0.29264   0.24844   0.00000  Uiso   1.00
O147   O     0.83334   0.22775   0.12846   0.00000  Uiso   1.00
O148   O     0.83333   0.10559   0.12843   0.00000  Uiso   1.00
O149   O     0.83334   0.22774   0.20490   0.00000  Uiso   1.00
O150   O     0.75725   0.16666   0.19595   0.00000  Uiso   1.00
O151   O     0.90942   0.16667   0.13739   0.00000  Uiso   1.00
O152   O     0.75725   0.16667   0.11950   0.00000  Uiso   1.00
O153   O     0.90942   0.16666   0.21383   0.00000  Uiso   1.00
O154   O     0.87287   0.04086   0.09480   0.00000  Uiso   1.00
Zn155  Zn    0.83333   0.16666   0.21771   0.00000  Uiso   1.00
Zn156  Zn    0.83333   0.16667   0.11563   0.00000  Uiso   1.00
Br157  Br    0.32120   0.45038   0.10533   0.00000  Uiso   1.00
Br158  Br    0.01136   0.54904   0.22747   0.00000  Uiso   1.00
Br159  Br    0.25163   0.55935   0.06191   0.00000  Uiso   1.00
Br160  Br    0.08194   0.44045   0.27131   0.00000  Uiso   1.00
C161   C     0.16824   0.42004   0.16666   0.00000  Uiso   1.00
C162   C     0.15916   0.35548   0.20586   0.00000  Uiso   1.00
C163   C     0.16908   0.62428   0.16833   0.00000  Uiso   1.00
C164   C     0.17015   0.37589   0.16669   0.00000  Uiso   1.00
C165   C     0.20158   0.52400   0.02736   0.00000  Uiso   1.00
C166   C     0.13158   0.47615   0.30592   0.00000  Uiso   1.00
C167   C     0.20140   0.52387   0.31294   0.00000  Uiso   1.00
C168   C     0.13145   0.47659   0.02032   0.00000  Uiso   1.00
C169   C     0.17423   0.36985   0.05266   0.00000  Uiso   1.00
C170   C     0.20371   0.38685   0.01532   0.00000  Uiso   1.00
C171   C     0.10858   0.63481   0.26583   0.00000  Uiso   1.00
C172   C     0.16737   0.58004   0.16710   0.00000  Uiso   1.00
C173   C     0.10301   0.60567   0.30525   0.00000  Uiso   1.00
C174   C     0.06728   0.49941   0.15526   0.00000  Uiso   1.00
C175   C     0.26601   0.50010   0.17803   0.00000  Uiso   1.00
C176   C     0.01344   0.49177   0.15071   0.00000  Uiso   1.00
C177   C     0.31977   0.50741   0.18251   0.00000  Uiso   1.00
C178   C     0.18354   0.35410   0.12875   0.00000  Uiso   1.00
C179   C     0.15854   0.64616   0.20741   0.00000  Uiso   1.00
C180   C     0.18281   0.64474   0.13010   0.00000  Uiso   1.00
H181   H     0.19515   0.62760   0.10193   0.00000  Uiso   1.00
H182   H     0.07427   0.63028   0.23933   0.00000  Uiso   1.00
H183   H     0.10870   0.33362   0.27937   0.00000  Uiso   1.00
H184   H     0.06602   0.61206   0.31945   0.00000  Uiso   1.00
H185   H     0.10263   0.57301   0.29341   0.00000  Uiso   1.00
H186   H     0.13639   0.61001   0.33247   0.00000  Uiso   1.00
H187   H     0.15262   0.37277   0.23588   0.00000  Uiso   1.00
H188   H     0.22897   0.54302   0.29762   0.00000  Uiso   1.00
H189   H     0.10342   0.45786   0.03557   0.00000  Uiso   1.00
H190   H     0.13749   0.38759   0.05315   0.00000  Uiso   1.00
H191   H     0.16408   0.33700   0.04406   0.00000  Uiso   1.00
H192   H     0.23862   0.36759   0.01226   0.00000  Uiso   1.00
H193   H     0.17800   0.38629   0.31570   0.00000  Uiso   1.00
H194   H     0.21664   0.41923   0.02335   0.00000  Uiso   1.00
N195   N     0.16665   0.49999   0.28573   0.00000  Uiso   1.00
N196   N     0.16668   0.50001   0.04760   0.00000  Uiso   1.00
O197   O     0.16666   0.43892   0.20487   0.00000  Uiso   1.00
O198   O     0.15585   0.62597   0.24844   0.00000  Uiso   1.00
O199   O     0.16667   0.56108   0.12846   0.00000  Uiso   1.00
O200   O     0.16666   0.43893   0.12843   0.00000  Uiso   1.00
O201   O     0.16667   0.56107   0.20490   0.00000  Uiso   1.00
O202   O     0.09058   0.50000   0.19595   0.00000  Uiso   1.00
O203   O     0.24275   0.50000   0.13739   0.00000  Uiso   1.00
O204   O     0.09058   0.50000   0.11950   0.00000  Uiso   1.00
O205   O     0.24275   0.50000   0.21383   0.00000  Uiso   1.00
O206   O     0.20621   0.37420   0.09480   0.00000  Uiso   1.00
Zn207  Zn    0.16667   0.49999   0.21771   0.00000  Uiso   1.00
Zn208  Zn    0.16667   0.50001   0.11563   0.00000  Uiso   1.00
Br209  Br    0.65453   0.45038   0.10533   0.00000  Uiso   1.00
Br210  Br    0.34469   0.54904   0.22747   0.00000  Uiso   1.00
Br211  Br    0.58496   0.55935   0.06191   0.00000  Uiso   1.00
Br212  Br    0.41527   0.44045   0.27131   0.00000  Uiso   1.00
C213   C     0.50157   0.42004   0.16666   0.00000  Uiso   1.00
C214   C     0.49249   0.35548   0.20586   0.00000  Uiso   1.00
C215   C     0.50242   0.62428   0.16833   0.00000  Uiso   1.00
C216   C     0.50348   0.37589   0.16669   0.00000  Uiso   1.00
C217   C     0.53491   0.52400   0.02736   0.00000  Uiso   1.00
C218   C     0.46491   0.47615   0.30592   0.00000  Uiso   1.00
C219   C     0.53473   0.52387   0.31294   0.00000  Uiso   1.00
C220   C     0.46479   0.47659   0.02032   0.00000  Uiso   1.00
C221   C     0.50757   0.36985   0.05266   0.00000  Uiso   1.00
C222   C     0.53704   0.38685   0.01532   0.00000  Uiso   1.00
C223   C     0.44191   0.63481   0.26583   0.00000  Uiso   1.00
C224   C     0.50070   0.58004   0.16710   0.00000  Uiso   1.00
C225   C     0.43634   0.60567   0.30525   0.00000  Uiso   1.00
C226   C     0.40062   0.49941   0.15526   0.00000  Uiso   1.00
C227   C     0.59934   0.50010   0.17803   0.00000  Uiso   1.00
C228   C     0.34677   0.49177   0.15071   0.00000  Uiso   1.00
C229   C     0.65311   0.50741   0.18251   0.00000  Uiso   1.00
C230   C     0.51687   0.35410   0.12875   0.00000  Uiso   1.00
C231   C     0.49187   0.64616   0.20741   0.00000  Uiso   1.00
C232   C     0.51615   0.64474   0.13010   0.00000  Uiso   1.00
H233   H     0.52849   0.62760   0.10193   0.00000  Uiso   1.00
H234   H     0.40760   0.63028   0.23933   0.00000  Uiso   1.00
H235   H     0.44204   0.33362   0.27937   0.00000  Uiso   1.00
H236   H     0.39935   0.61206   0.31945   0.00000  Uiso   1.00
H237   H     0.43597   0.57301   0.29341   0.00000  Uiso   1.00
H238   H     0.46972   0.61001   0.33247   0.00000  Uiso   1.00
H239   H     0.48596   0.37277   0.23588   0.00000  Uiso   1.00
H240   H     0.56230   0.54302   0.29762   0.00000  Uiso   1.00
H241   H     0.43676   0.45786   0.03557   0.00000  Uiso   1.00
H242   H     0.47083   0.38759   0.05315   0.00000  Uiso   1.00
H243   H     0.49742   0.33700   0.04406   0.00000  Uiso   1.00
H244   H     0.57195   0.36759   0.01226   0.00000  Uiso   1.00
H245   H     0.51134   0.38629   0.31570   0.00000  Uiso   1.00
H246   H     0.54998   0.41923   0.02335   0.00000  Uiso   1.00
N247   N     0.49999   0.49999   0.28573   0.00000  Uiso   1.00
N248   N     0.50001   0.50001   0.04760   0.00000  Uiso   1.00
O249   O     0.50000   0.43892   0.20487   0.00000  Uiso   1.00
O250   O     0.48918   0.62597   0.24844   0.00000  Uiso   1.00
O251   O     0.50000   0.56108   0.12846   0.00000  Uiso   1.00
O252   O     0.50000   0.43893   0.12843   0.00000  Uiso   1.00
O253   O     0.50000   0.56107   0.20490   0.00000  Uiso   1.00
O254   O     0.42392   0.50000   0.19595   0.00000  Uiso   1.00
O255   O     0.57608   0.50000   0.13739   0.00000  Uiso   1.00
O256   O     0.42392   0.50000   0.11950   0.00000  Uiso   1.00
O257   O     0.57608   0.50000   0.21383   0.00000  Uiso   1.00
O258   O     0.53954   0.37420   0.09480   0.00000  Uiso   1.00
Zn259  Zn    0.50000   0.49999   0.21771   0.00000  Uiso   1.00
Zn260  Zn    0.50000   0.50001   0.11563   0.00000  Uiso   1.00
Br261  Br    0.98786   0.45038   0.10533   0.00000  Uiso   1.00
Br262  Br    0.67803   0.54904   0.22747   0.00000  Uiso   1.00
Br263  Br    0.91830   0.55935   0.06191   0.00000  Uiso   1.00
Br264  Br    0.74861   0.44045   0.27131   0.00000  Uiso   1.00
C265   C     0.83491   0.42004   0.16666   0.00000  Uiso   1.00
C266   C     0.82582   0.35548   0.20586   0.00000  Uiso   1.00
C267   C     0.83575   0.62428   0.16833   0.00000  Uiso   1.00
C268   C     0.83682   0.37589   0.16669   0.00000  Uiso   1.00
C269   C     0.86825   0.52400   0.02736   0.00000  Uiso   1.00
C270   C     0.79825   0.47615   0.30592   0.00000  Uiso   1.00
C271   C     0.86806   0.52387   0.31294   0.00000  Uiso   1.00
C272   C     0.79812   0.47659   0.02032   0.00000  Uiso   1.00
C273   C     0.84090   0.36985   0.05266   0.00000  Uiso   1.00
C274   C     0.87037   0.38685   0.01532   0.00000  Uiso   1.00
C275   C     0.77524   0.63481   0.26583   0.00000  Uiso   1.00
C276   C     0.83403   0.58004   0.16710   0.00000  Uiso   1.00
C277   C     0.76968   0.60567   0.30525   0.00000  Uiso   1.00
C278   C     0.73395   0.49941   0.15526   0.00000  Uiso   1.00
C279   C     0.93267   0.50010   0.17803   0.00000  Uiso   1.00
C280   C     0.68011   0.49177   0.15071   0.00000  Uiso   1.00
C281   C     0.98644   0.50741   0.18251   0.00000  Uiso   1.00
C282   C     0.85021   0.35410   0.12875   0.00000  Uiso   1.00
C283   C     0.82520   0.64616   0.20741   0.00000  Uiso   1.00
C284   C     0.84948   0.64474   0.13010   0.00000  Uiso   1.00
H285   H     0.86182   0.62760   0.10193   0.00000  Uiso   1.00
H286   H     0.74094   0.63028   0.23933   0.00000  Uiso   1.00
H287   H     0.77537   0.33362   0.27937   0.00000  Uiso   1.00
H288   H     0.73268   0.61206   0.31945   0.00000  Uiso   1.00
H289   H     0.76930   0.57301   0.29341   0.00000  Uiso   1.00
H290   H     0.80305   0.61001   0.33247   0.00000  Uiso   1.00
H291   H     0.81929   0.37277   0.23588   0.00000  Uiso   1.00
H292   H     0.89564   0.54302   0.29762   0.00000  Uiso   1.00
H293   H     0.77009   0.45786   0.03557   0.00000  Uiso   1.00
H294   H     0.80416   0.38759   0.05315   0.00000  Uiso   1.00
H295   H     0.83075   0.33700   0.04406   0.00000  Uiso   1.00
H296   H     0.90529   0.36759   0.01226   0.00000  Uiso   1.00
H297   H     0.84467   0.38629   0.31570   0.00000  Uiso   1.00
H298   H     0.88331   0.41923   0.02335   0.00000  Uiso   1.00
N299   N     0.83332   0.49999   0.28573   0.00000  Uiso   1.00
N300   N     0.83335   0.50001   0.04760   0.00000  Uiso   1.00
O301   O     0.83333   0.43892   0.20487   0.00000  Uiso   1.00
O302   O     0.82251   0.62597   0.24844   0.00000  Uiso   1.00
O303   O     0.83334   0.56108   0.12846   0.00000  Uiso   1.00
O304   O     0.83333   0.43893   0.12843   0.00000  Uiso   1.00
O305   O     0.83334   0.56107   0.20490   0.00000  Uiso   1.00
O306   O     0.75725   0.50000   0.19595   0.00000  Uiso   1.00
O307   O     0.90942   0.50000   0.13739   0.00000  Uiso   1.00
O308   O     0.75725   0.50000   0.11950   0.00000  Uiso   1.00
O309   O     0.90942   0.50000   0.21383   0.00000  Uiso   1.00
O310   O     0.87287   0.37420   0.09480   0.00000  Uiso   1.00
Zn311  Zn    0.83333   0.49999   0.21771   0.00000  Uiso   1.00
Zn312  Zn    0.83333   0.50001   0.11563   0.00000  Uiso   1.00
Br313  Br    0.32120   0.78371   0.10533   0.00000  Uiso   1.00
Br314  Br    0.01136   0.88237   0.22747   0.00000  Uiso   1.00
Br315  Br    0.25163   0.89268   0.06191   0.00000  Uiso   1.00
Br316  Br    0.08194   0.77378   0.27131   0.00000  Uiso   1.00
C317   C     0.16824   0.75337   0.16666   0.00000  Uiso   1.00
C318   C     0.15916   0.68882   0.20586   0.00000  Uiso   1.00
C319   C     0.16908   0.95761   0.16833   0.00000  Uiso   1.00
C320   C     0.17015   0.70922   0.16669   0.00000  Uiso   1.00
C321   C     0.20158   0.85734   0.02736   0.00000  Uiso   1.00
C322   C     0.13158   0.80948   0.30592   0.00000  Uiso   1.00
C323   C     0.20140   0.85720   0.31294   0.00000  Uiso   1.00
C324   C     0.13145   0.80992   0.02032   0.00000  Uiso   1.00
C325   C     0.17423   0.70319   0.05266   0.00000  Uiso   1.00
C326   C     0.20371   0.72019   0.01532   0.00000  Uiso   1.00
C327   C     0.10858   0.96814   0.26583   0.00000  Uiso   1.00
C328   C     0.16737   0.91337   0.16710   0.00000  Uiso   1.00
C329   C     0.10301   0.93900   0.30525   0.00000  Uiso   1.00
C330   C     0.06728   0.83275   0.15526   0.00000  Uiso   1.00
C331   C     0.26601   0.83344   0.17803   0.00000  Uiso   1.00
C332   C     0.01344   0.82510   0.15071   0.00000  Uiso   1.00
C333   C     0.31977   0.84074   0.18251   0.00000  Uiso   1.00
C334   C     0.18354   0.68743   0.12875   0.00000  Uiso   1.00
C335   C     0.15854   0.97949   0.20741   0.00000  Uiso   1.00
C336   C     0.18281   0.97808   0.13010   0.00000  Uiso   1.00
H337   H     0.19515   0.96093   0.10193   0.00000  Uiso   1.00
H338   H     0.07427   0.96362   0.23933   0.00000  Uiso   1.00
H339   H     0.10870   0.66695   0.27937   0.00000  Uiso   1.00
H340   H     0.06602   0.94540   0.31945   0.00000  Uiso   1.00
H341   H     0.10263   0.90635   0.29341   0.00000  Uiso   1.00
H342   H     0.13639   0.94335   0.33247   0.00000  Uiso   1.00
H343   H     0.15262   0.70610   0.23588   0.00000  Uiso   1.00
H344   H     0.22897   0.87635   0.29762   0.00000  Uiso   1.00
H345   H     0.10342   0.79119   0.03557   0.00000  Uiso   1.00
H346   H     0.13749   0.72092   0.05315   0.00000  Uiso   1.00
H347   H     0.16408   0.67034   0.04406   0.00000  Uiso   1.00
H348   H     0.23862   0.70093   0.01226   0.00000  Uiso   1.00
H349   H     0.17800   0.71962   0.31570   0.00000  Uiso   1.00
H350   H     0.21664   0.75256   0.02335   0.00000  Uiso   1.00
N351   N     0.16665   0.83332   0.28573   0.00000  Uiso   1.00
N352   N     0.16668   0.83334   0.04760   0.00000  Uiso   1.00
O353   O     0.16666   0.77225   0.20487   0.00000  Uiso   1.00
O354   O     0.15585   0.95930   0.24844   0.00000  Uiso   1.00
O355   O     0.16667   0.89442   0.12846   0.00000  Uiso   1.00
O356   O     0.16666   0.77226   0.12843   0.00000  Uiso   1.00
O357   O     0.16667   0.89441   0.20490   0.00000  Uiso   1.00
O358   O     0.09058   0.83333   0.19595   0.00000  Uiso   1.00
O359   O     0.24275   0.83334   0.13739   0.00000  Uiso   1.00
O360   O     0.09058   0.83334   0.11950   0.00000  Uiso   1.00
O361   O     0.24275   0.83333   0.21383   0.00000  Uiso   1.00
O362   O     0.20621   0.70753   0.09480   0.00000  Uiso   1.00
Zn363  Zn    0.16667   0.83333   0.21771   0.00000  Uiso   1.00
Zn364  Zn    0.16667   0.83334   0.11563   0.00000  Uiso   1.00
Br365  Br    0.65453   0.78371   0.10533   0.00000  Uiso   1.00
Br366  Br    0.34469   0.88237   0.22747   0.00000  Uiso   1.00
Br367  Br    0.58496   0.89268   0.06191   0.00000  Uiso   1.00
Br368  Br    0.41527   0.77378   0.27131   0.00000  Uiso   1.00
C369   C     0.50157   0.75337   0.16666   0.00000  Uiso   1.00
C370   C     0.49249   0.68882   0.20586   0.00000  Uiso   1.00
C371   C     0.50242   0.95761   0.16833   0.00000  Uiso   1.00
C372   C     0.50348   0.70922   0.16669   0.00000  Uiso   1.00
C373   C     0.53491   0.85734   0.02736   0.00000  Uiso   1.00
C374   C     0.46491   0.80948   0.30592   0.00000  Uiso   1.00
C375   C     0.53473   0.85720   0.31294   0.00000  Uiso   1.00
C376   C     0.46479   0.80992   0.02032   0.00000  Uiso   1.00
C377   C     0.50757   0.70319   0.05266   0.00000  Uiso   1.00
C378   C     0.53704   0.72019   0.01532   0.00000  Uiso   1.00
C379   C     0.44191   0.96814   0.26583   0.00000  Uiso   1.00
C380   C     0.50070   0.91337   0.16710   0.00000  Uiso   1.00
C381   C     0.43634   0.93900   0.30525   0.00000  Uiso   1.00
C382   C     0.40062   0.83275   0.15526   0.00000  Uiso   1.00
C383   C     0.59934   0.83344   0.17803   0.00000  Uiso   1.00
C384   C     0.34677   0.82510   0.15071   0.00000  Uiso   1.00
C385   C     0.65311   0.84074   0.18251   0.00000  Uiso   1.00
C386   C     0.51687   0.68743   0.12875   0.00000  Uiso   1.00
C387   C     0.49187   0.97949   0.20741   0.00000  Uiso   1.00
C388   C     0.51615   0.97808   0.13010   0.00000  Uiso   1.00
H389   H     0.52849   0.96093   0.10193   0.00000  Uiso   1.00
H390   H     0.40760   0.96362   0.23933   0.00000  Uiso   1.00
H391   H     0.44204   0.66695   0.27937   0.00000  Uiso   1.00
H392   H     0.39935   0.94540   0.31945   0.00000  Uiso   1.00
H393   H     0.43597   0.90635   0.29341   0.00000  Uiso   1.00
H394   H     0.46972   0.94335   0.33247   0.00000  Uiso   1.00
H395   H     0.48596   0.70610   0.23588   0.00000  Uiso   1.00
H396   H     0.56230   0.87635   0.29762   0.00000  Uiso   1.00
H397   H     0.43676   0.79119   0.03557   0.00000  Uiso   1.00
H398   H     0.47083   0.72092   0.05315   0.00000  Uiso   1.00
H399   H     0.49742   0.67034   0.04406   0.00000  Uiso   1.00
H400   H     0.57195   0.70093   0.01226   0.00000  Uiso   1.00
H401   H     0.51134   0.71962   0.31570   0.00000  Uiso   1.00
H402   H     0.54998   0.75256   0.02335   0.00000  Uiso   1.00
N403   N     0.49999   0.83332   0.28573   0.00000  Uiso   1.00
N404   N     0.50001   0.83334   0.04760   0.00000  Uiso   1.00
O405   O     0.50000   0.77225   0.20487   0.00000  Uiso   1.00
O406   O     0.48918   0.95930   0.24844   0.00000  Uiso   1.00
O407   O     0.50000   0.89442   0.12846   0.00000  Uiso   1.00
O408   O     0.50000   0.77226   0.12843   0.00000  Uiso   1.00
O409   O     0.50000   0.89441   0.20490   0.00000  Uiso   1.00
O410   O     0.42392   0.83333   0.19595   0.00000  Uiso   1.00
O411   O     0.57608   0.83334   0.13739   0.00000  Uiso   1.00
O412   O     0.42392   0.83334   0.11950   0.00000  Uiso   1.00
O413   O     0.57608   0.83333   0.21383   0.00000  Uiso   1.00
O414   O     0.53954   0.70753   0.09480   0.00000  Uiso   1.00
Zn415  Zn    0.50000   0.83333   0.21771   0.00000  Uiso   1.00
Zn416  Zn    0.50000   0.83334   0.11563   0.00000  Uiso   1.00
Br417  Br    0.98786   0.78371   0.10533   0.00000  Uiso   1.00
Br418  Br    0.67803   0.88237   0.22747   0.00000  Uiso   1.00
Br419  Br    0.91830   0.89268   0.06191   0.00000  Uiso   1.00
Br420  Br    0.74861   0.77378   0.27131   0.00000  Uiso   1.00
C421   C     0.83491   0.75337   0.16666   0.00000  Uiso   1.00
C422   C     0.82582   0.68882   0.20586   0.00000  Uiso   1.00
C423   C     0.83575   0.95761   0.16833   0.00000  Uiso   1.00
C424   C     0.83682   0.70922   0.16669   0.00000  Uiso   1.00
C425   C     0.86825   0.85734   0.02736   0.00000  Uiso   1.00
C426   C     0.79825   0.80948   0.30592   0.00000  Uiso   1.00
C427   C     0.86806   0.85720   0.31294   0.00000  Uiso   1.00
C428   C     0.79812   0.80992   0.02032   0.00000  Uiso   1.00
C429   C     0.84090   0.70319   0.05266   0.00000  Uiso   1.00
C430   C     0.87037   0.72019   0.01532   0.00000  Uiso   1.00
C431   C     0.77524   0.96814   0.26583   0.00000  Uiso   1.00
C432   C     0.83403   0.91337   0.16710   0.00000  Uiso   1.00
C433   C     0.76968   0.93900   0.30525   0.00000  Uiso   1.00
C434   C     0.73395   0.83275   0.15526   0.00000  Uiso   1.00
C435   C     0.93267   0.83344   0.17803   0.00000  Uiso   1.00
C436   C     0.68011   0.82510   0.15071   0.00000  Uiso   1.00
C437   C     0.98644   0.84074   0.18251   0.00000  Uiso   1.00
C438   C     0.85021   0.68743   0.12875   0.00000  Uiso   1.00
C439   C     0.82520   0.97949   0.20741   0.00000  Uiso   1.00
C440   C     0.84948   0.97808   0.13010   0.00000  Uiso   1.00
H441   H     0.86182   0.96093   0.10193   0.00000  Uiso   1.00
H442   H     0.74094   0.96362   0.23933   0.00000  Uiso   1.00
H443   H     0.77537   0.66695   0.27937   0.00000  Uiso   1.00
H444   H     0.73268   0.94540   0.31945   0.00000  Uiso   1.00
H445   H     0.76930   0.90635   0.29341   0.00000  Uiso   1.00
H446   H     0.80305   0.94335   0.33247   0.00000  Uiso   1.00
H447   H     0.81929   0.70610   0.23588   0.00000  Uiso   1.00
H448   H     0.89564   0.87635   0.29762   0.00000  Uiso   1.00
H449   H     0.77009   0.79119   0.03557   0.00000  Uiso   1.00
H450   H     0.80416   0.72092   0.05315   0.00000  Uiso   1.00
H451   H     0.83075   0.67034   0.04406   0.00000  Uiso   1.00
H452   H     0.90529   0.70093   0.01226   0.00000  Uiso   1.00
H453   H     0.84467   0.71962   0.31570   0.00000  Uiso   1.00
H454   H     0.88331   0.75256   0.02335   0.00000  Uiso   1.00
N455   N     0.83332   0.83332   0.28573   0.00000  Uiso   1.00
N456   N     0.83335   0.83334   0.04760   0.00000  Uiso   1.00
O457   O     0.83333   0.77225   0.20487   0.00000  Uiso   1.00
O458   O     0.82251   0.95930   0.24844   0.00000  Uiso   1.00
O459   O     0.83334   0.89442   0.12846   0.00000  Uiso   1.00
O460   O     0.83333   0.77226   0.12843   0.00000  Uiso   1.00
O461   O     0.83334   0.89441   0.20490   0.00000  Uiso   1.00
O462   O     0.75725   0.83333   0.19595   0.00000  Uiso   1.00
O463   O     0.90942   0.83334   0.13739   0.00000  Uiso   1.00
O464   O     0.75725   0.83334   0.11950   0.00000  Uiso   1.00
O465   O     0.90942   0.83333   0.21383   0.00000  Uiso   1.00
O466   O     0.87287   0.70753   0.09480   0.00000  Uiso   1.00
Zn467  Zn    0.83333   0.83333   0.21771   0.00000  Uiso   1.00
Zn468  Zn    0.83333   0.83334   0.11563   0.00000  Uiso   1.00
Br469  Br    0.32120   0.11704   0.43867   0.00000  Uiso   1.00
Br470  Br    0.01136   0.21570   0.56080   0.00000  Uiso   1.00
Br471  Br    0.25163   0.22602   0.39525   0.00000  Uiso   1.00
Br472  Br    0.08194   0.10711   0.60465   0.00000  Uiso   1.00
C473   C     0.16824   0.08671   0.49999   0.00000  Uiso   1.00
C474   C     0.15916   0.02215   0.53920   0.00000  Uiso   1.00
C475   C     0.16908   0.29095   0.50166   0.00000  Uiso   1.00
C476   C     0.17015   0.04256   0.50003   0.00000  Uiso   1.00
C477   C     0.20158   0.19067   0.36070   0.00000  Uiso   1.00
C478   C     0.13158   0.14281   0.63926   0.00000  Uiso   1.00
C479   C     0.20140   0.19053   0.64627   0.00000  Uiso   1.00
C480   C     0.13145   0.14326   0.35365   0.00000  Uiso   1.00
C481   C     0.17423   0.03652   0.38599   0.00000  Uiso   1.00
C482   C     0.20371   0.05352   0.34865   0.00000  Uiso   1.00
C483   C     0.10858   0.30147   0.59917   0.00000  Uiso   1.00
C484   C     0.16737   0.24671   0.50043   0.00000  Uiso   1.00
C485   C     0.10301   0.27234   0.63858   0.00000  Uiso   1.00
C486   C     0.06728   0.16608   0.48859   0.00000  Uiso   1.00
C487   C     0.26601   0.16677   0.51137   0.00000  Uiso   1.00
C488   C     0.01344   0.15843   0.48404   0.00000  Uiso   1.00
C489   C     0.31977   0.17407   0.51584   0.00000  Uiso   1.00
C490   C     0.18354   0.02076   0.46209   0.00000  Uiso   1.00
C491   C     0.15854   0.31283   0.54074   0.00000  Uiso   1.00
C492   C     0.18281   0.31141   0.46344   0.00000  Uiso   1.00
H493   H     0.19515   0.29427   0.43526   0.00000  Uiso   1.00
H494   H     0.07427   0.29695   0.57266   0.00000  Uiso   1.00
H495   H     0.10870   0.00028   0.61271   0.00000  Uiso   1.00
H496   H     0.06602   0.27873   0.65278   0.00000  Uiso   1.00
H497   H     0.10263   0.23968   0.62675   0.00000  Uiso   1.00
H498   H     0.13639   0.27668   0.66581   0.00000  Uiso   1.00
H499   H     0.15262   0.03944   0.56921   0.00000  Uiso   1.00
H500   H     0.22897   0.20969   0.63095   0.00000  Uiso   1.00
H501   H     0.10342   0.12453   0.36890   0.00000  Uiso   1.00
H502   H     0.13749   0.05425   0.38648   0.00000  Uiso   1.00
H503   H     0.16408   0.00367   0.37740   0.00000  Uiso   1.00
H504   H     0.23862   0.03426   0.34559   0.00000  Uiso   1.00
H505   H     0.17800   0.05295   0.64903   0.00000  Uiso   1.00
H506   H     0.21664   0.08590   0.35668   0.00000  Uiso   1.00
N507   N     0.16665   0.16666   0.61907   0.00000  Uiso   1.00
N508   N     0.16668   0.16668   0.38093   0.00000  Uiso   1.00
O509   O     0.16666   0.10558   0.53821   0.00000  Uiso   1.00
O510   O     0.15585   0.29264   0.58177   0.00000  Uiso   1.00
O511   O     0.16667   0.22775   0.46179   0.00000  Uiso   1.00
O512   O     0.16666   0.10559   0.46176   0.00000  Uiso   1.00
O513   O     0.16667   0.22774   0.53824   0.00000  Uiso   1.00
O514   O     0.09058   0.16666   0.52928   0.00000  Uiso   1.00
O515   O     0.24275   0.16667   0.47072   0.00000  Uiso   1.00
O516   O     0.09058   0.16667   0.45284   0.00000  Uiso   1.00
O517   O     0.24275   0.16666   0.54716   0.00000  Uiso   1.00
O518   O     0.20621   0.04086   0.42814   0.00000  Uiso   1.00
Zn519  Zn    0.16667   0.16666   0.55104   0.00000  Uiso   1.00
Zn520  Zn    0.16667   0.16667   0.44896   0.00000  Uiso   1.00
Br521  Br    0.65453   0.11704   0.43867   0.00000  Uiso   1.00
Br522  Br    0.34469   0.21570   0.56080   0.00000  Uiso   1.00
Br523  Br    0.58496   0.22602   0.39525   0.00000  Uiso   1.00
Br524  Br    0.41527   0.10711   0.60465   0.00000  Uiso   1.00
C525   C     0.50157   0.08671   0.49999   0.00000  Uiso   1.00
C526   C     0.49249   0.02215   0.53920   0.00000  Uiso   1.00
C527   C     0.50242   0.29095   0.50166   0.00000  Uiso   1.00
C528   C     0.50348   0.04256   0.50003   0.00000  Uiso   1.00
C529   C     0.53491   0.19067   0.36070   0.00000  Uiso   1.00
C530   C     0.46491   0.14281   0.63926   0.00000  Uiso   1.00
C531   C     0.53473   0.19053   0.64627   0.00000  Uiso   1.00
C532   C     0.46479   0.14326   0.35365   0.00000  Uiso   1.00
C533   C     0.50757   0.03652   0.38599   0.00000  Uiso   1.00
C534   C     0.53704   0.05352   0.34865   0.00000  Uiso   1.00
C535   C     0.44191   0.30147   0.59917   0.00000  Uiso   1.00
C536   C     0.50070   0.24671   0.50043   0.00000  Uiso   1.00
C537   C     0.43634   0.27234   0.63858   0.00000  Uiso   1.00
C538   C     0.40062   0.16608   0.48859   0.00000  Uiso   1.00
C539   C     0.59934   0.16677   0.51137   0.00000  Uiso   1.00
C540   C     0.34677   0.15843   0.48404   0.00000  Uiso   1.00
C541   C     0.65311   0.17407   0.51584   0.00000  Uiso   1.00
C542   C     0.51687   0.02076   0.46209   0.00000  Uiso   1.00
C543   C     0.49187   0.31283   0.54074   0.00000  Uiso   1.00
C544   C     0.51615   0.31141   0.46344   0.00000  Uiso   1.00
H545   H     0.52849   0.29427   0.43526   0.00000  Uiso   1.00
H546   H     0.40760   0.29695   0.57266   0.00000  Uiso   1.00
H547   H     0.44204   0.00028   0.61271   0.00000  Uiso   1.00
H548   H     0.39935   0.27873   0.65278   0.00000  Uiso   1.00
H549   H     0.43597   0.23968   0.62675   0.00000  Uiso   1.00
H550   H     0.46972   0.27668   0.66581   0.00000  Uiso   1.00
H551   H     0.48596   0.03944   0.56921   0.00000  Uiso   1.00
H552   H     0.56230   0.20969   0.63095   0.00000  Uiso   1.00
H553   H     0.43676   0.12453   0.36890   0.00000  Uiso   1.00
H554   H     0.47083   0.05425   0.38648   0.00000  Uiso   1.00
H555   H     0.49742   0.00367   0.37740   0.00000  Uiso   1.00
H556   H     0.57195   0.03426   0.34559   0.00000  Uiso   1.00
H557   H     0.51134   0.05295   0.64903   0.00000  Uiso   1.00
H558   H     0.54998   0.08590   0.35668   0.00000  Uiso   1.00
N559   N     0.49999   0.16666   0.61907   0.00000  Uiso   1.00
N560   N     0.50001   0.16668   0.38093   0.00000  Uiso   1.00
O561   O     0.50000   0.10558   0.53821   0.00000  Uiso   1.00
O562   O     0.48918   0.29264   0.58177   0.00000  Uiso   1.00
O563   O     0.50000   0.22775   0.46179   0.00000  Uiso   1.00
O564   O     0.50000   0.10559   0.46176   0.00000  Uiso   1.00
O565   O     0.50000   0.22774   0.53824   0.00000  Uiso   1.00
O566   O     0.42392   0.16666   0.52928   0.00000  Uiso   1.00
O567   O     0.57608   0.16667   0.47072   0.00000  Uiso   1.00
O568   O     0.42392   0.16667   0.45284   0.00000  Uiso   1.00
O569   O     0.57608   0.16666   0.54716   0.00000  Uiso   1.00
O570   O     0.53954   0.04086   0.42814   0.00000  Uiso   1.00
Zn571  Zn    0.50000   0.16666   0.55104   0.00000  Uiso   1.00
Zn572  Zn    0.50000   0.16667   0.44896   0.00000  Uiso   1.00
Br573  Br    0.98786   0.11704   0.43867   0.00000  Uiso   1.00
Br574  Br    0.67803   0.21570   0.56080   0.00000  Uiso   1.00
Br575  Br    0.91830   0.22602   0.39525   0.00000  Uiso   1.00
Br576  Br    0.74861   0.10711   0.60465   0.00000  Uiso   1.00
C577   C     0.83491   0.08671   0.49999   0.00000  Uiso   1.00
C578   C     0.82582   0.02215   0.53920   0.00000  Uiso   1.00
C579   C     0.83575   0.29095   0.50166   0.00000  Uiso   1.00
C580   C     0.83682   0.04256   0.50003   0.00000  Uiso   1.00
C581   C     0.86825   0.19067   0.36070   0.00000  Uiso   1.00
C582   C     0.79825   0.14281   0.63926   0.00000  Uiso   1.00
C583   C     0.86806   0.19053   0.64627   0.00000  Uiso   1.00
C584   C     0.79812   0.14326   0.35365   0.00000  Uiso   1.00
C585   C     0.84090   0.03652   0.38599   0.00000  Uiso   1.00
C586   C     0.87037   0.05352   0.34865   0.00000  Uiso   1.00
C587   C     0.77524   0.30147   0.59917   0.00000  Uiso   1.00
C588   C     0.83403   0.24671   0.50043   0.00000  Uiso   1.00
C589   C     0.76968   0.27234   0.63858   0.00000  Uiso   1.00
C590   C     0.73395   0.16608   0.48859   0.00000  Uiso   1.00
C591   C     0.93267   0.16677   0.51137   0.00000  Uiso   1.00
C592   C     0.68011   0.15843   0.48404   0.00000  Uiso   1.00
C593   C     0.98644   0.17407   0.51584   0.00000  Uiso   1.00
C594   C     0.85021   0.02076   0.46209   0.00000  Uiso   1.00
C595   C     0.82520   0.31283   0.54074   0.00000  Uiso   1.00
C596   C     0.84948   0.31141   0.46344   0.00000  Uiso   1.00
H597   H     0.86182   0.29427   0.43526   0.00000  Uiso   1.00
H598   H     0.74094   0.29695   0.57266   0.00000  Uiso   1.00
H599   H     0.77537   0.00028   0.61271   0.00000  Uiso   1.00
H600   H     0.73268   0.27873   0.65278   0.00000  Uiso   1.00
H601   H     0.76930   0.23968   0.62675   0.00000  Uiso   1.00
H602   H     0.80305   0.27668   0.66581   0.00000  Uiso   1.00
H603   H     0.81929   0.03944   0.56921   0.00000  Uiso   1.00
H604   H     0.89564   0.20969   0.63095   0.00000  Uiso   1.00
H605   H     0.77009   0.12453   0.36890   0.00000  Uiso   1.00
H606   H     0.80416   0.05425   0.38648   0.00000  Uiso   1.00
H607   H     0.83075   0.00367   0.37740   0.00000  Uiso   1.00
H608   H     0.90529   0.03426   0.34559   0.00000  Uiso   1.00
H609   H     0.84467   0.05295   0.64903   0.00000  Uiso   1.00
H610   H     0.88331   0.08590   0.35668   0.00000  Uiso   1.00
N611   N     0.83332   0.16666   0.61907   0.00000  Uiso   1.00
N612   N     0.83335   0.16668   0.38093   0.00000  Uiso   1.00
O613   O     0.83333   0.10558   0.53821   0.00000  Uiso   1.00
O614   O     0.82251   0.29264   0.58177   0.00000  Uiso   1.00
O615   O     0.83334   0.22775   0.46179   0.00000  Uiso   1.00
O616   O     0.83333   0.10559   0.46176   0.00000  Uiso   1.00
O617   O     0.83334   0.22774   0.53824   0.00000  Uiso   1.00
O618   O     0.75725   0.16666   0.52928   0.00000  Uiso   1.00
O619   O     0.90942   0.16667   0.47072   0.00000  Uiso   1.00
O620   O     0.75725   0.16667   0.45284   0.00000  Uiso   1.00
O621   O     0.90942   0.16666   0.54716   0.00000  Uiso   1.00
O622   O     0.87287   0.04086   0.42814   0.00000  Uiso   1.00
Zn623  Zn    0.83333   0.16666   0.55104   0.00000  Uiso   1.00
Zn624  Zn    0.83333   0.16667   0.44896   0.00000  Uiso   1.00
Br625  Br    0.32120   0.45038   0.43867   0.00000  Uiso   1.00
Br626  Br    0.01136   0.54904   0.56080   0.00000  Uiso   1.00
Br627  Br    0.25163   0.55935   0.39525   0.00000  Uiso   1.00
Br628  Br    0.08194   0.44045   0.60465   0.00000  Uiso   1.00
C629   C     0.16824   0.42004   0.49999   0.00000  Uiso   1.00
C630   C     0.15916   0.35548   0.53920   0.00000  Uiso   1.00
C631   C     0.16908   0.62428   0.50166   0.00000  Uiso   1.00
C632   C     0.17015   0.37589   0.50003   0.00000  Uiso   1.00
C633   C     0.20158   0.52400   0.36070   0.00000  Uiso   1.00
C634   C     0.13158   0.47615   0.63926   0.00000  Uiso   1.00
C635   C     0.20140   0.52387   0.64627   0.00000  Uiso   1.00
C636   C     0.13145   0.47659   0.35365   0.00000  Uiso   1.00
C637   C     0.17423   0.36985   0.38599   0.00000  Uiso   1.00
C638   C     0.20371   0.38685   0.34865   0.00000  Uiso   1.00
C639   C     0.10858   0.63481   0.59917   0.00000  Uiso   1.00
C640   C     0.16737   0.58004   0.50043   0.00000  Uiso   1.00
C641   C     0.10301   0.60567   0.63858   0.00000  Uiso   1.00
C642   C     0.06728   0.49941   0.48859   0.00000  Uiso   1.00
C643   C     0.26601   0.50010   0.51137   0.00000  Uiso   1.00
C644   C     0.01344   0.49177   0.48404   0.00000  Uiso   1.00
C645   C     0.31977   0.50741   0.51584   0.00000  Uiso   1.00
C646   C     0.18354   0.35410   0.46209   0.00000  Uiso   1.00
C647   C     0.15854   0.64616   0.54074   0.00000  Uiso   1.00
C648   C     0.18281   0.64474   0.46344   0.00000  Uiso   1.00
H649   H     0.19515   0.62760   0.43526   0.00000  Uiso   1.00
H650   H     0.07427   0.63028   0.57266   0.00000  Uiso   1.00
H651   H     0.10870   0.33362   0.61271   0.00000  Uiso   1.00
H652   H     0.06602   0.61206   0.65278   0.00000  Uiso   1.00
H653   H     0.10263   0.57301   0.62675   0.00000  Uiso   1.00
H654   H     0.13639   0.61001   0.66581   0.00000  Uiso   1.00
H655   H     0.15262   0.37277   0.56921   0.00000  Uiso   1.00
H656   H     0.22897   0.54302   0.63095   0.00000  Uiso   1.00
H657   H     0.10342   0.45786   0.36890   0.00000  Uiso   1.00
H658   H     0.13749   0.38759   0.38648   0.00000  Uiso   1.00
H659   H     0.16408   0.33700   0.37740   0.00000  Uiso   1.00
H660   H     0.23862   0.36759   0.34559   0.00000  Uiso   1.00
H661   H     0.17800   0.38629   0.64903   0.00000  Uiso   1.00
H662   H     0.21664   0.41923   0.35668   0.00000  Uiso   1.00
N663   N     0.16665   0.49999   0.61907   0.00000  Uiso   1.00
N664   N     0.16668   0.50001   0.38093   0.00000  Uiso   1.00
O665   O     0.16666   0.43892   0.53821   0.00000  Uiso   1.00
O666   O     0.15585   0.62597   0.58177   0.00000  Uiso   1.00
O667   O     0.16667   0.56108   0.46179   0.00000  Uiso   1.00
O668   O     0.16666   0.43893   0.46176   0.00000  Uiso   1.00
O669   O     0.16667   0.56107   0.53824   0.00000  Uiso   1.00
O670   O     0.09058   0.50000   0.52928   0.00000  Uiso   1.00
O671   O     0.24275   0.50000   0.47072   0.00000  Uiso   1.00
O672   O     0.09058   0.50000   0.45284   0.00000  Uiso   1.00
O673   O     0.24275   0.50000   0.54716   0.00000  Uiso   1.00
O674   O     0.20621   0.37420   0.42814   0.00000  Uiso   1.00
Zn675  Zn    0.16667   0.49999   0.55104   0.00000  Uiso   1.00
Zn676  Zn    0.16667   0.50001   0.44896   0.00000  Uiso   1.00
Br677  Br    0.65453   0.45038   0.43867   0.00000  Uiso   1.00
Br678  Br    0.34469   0.54904   0.56080   0.00000  Uiso   1.00
Br679  Br    0.58496   0.55935   0.39525   0.00000  Uiso   1.00
Br680  Br    0.41527   0.44045   0.60465   0.00000  Uiso   1.00
C681   C     0.50157   0.42004   0.49999   0.00000  Uiso   1.00
C682   C     0.49249   0.35548   0.53920   0.00000  Uiso   1.00
C683   C     0.50242   0.62428   0.50166   0.00000  Uiso   1.00
C684   C     0.50348   0.37589   0.50003   0.00000  Uiso   1.00
C685   C     0.53491   0.52400   0.36070   0.00000  Uiso   1.00
C686   C     0.46491   0.47615   0.63926   0.00000  Uiso   1.00
C687   C     0.53473   0.52387   0.64627   0.00000  Uiso   1.00
C688   C     0.46479   0.47659   0.35365   0.00000  Uiso   1.00
C689   C     0.50757   0.36985   0.38599   0.00000  Uiso   1.00
C690   C     0.53704   0.38685   0.34865   0.00000  Uiso   1.00
C691   C     0.44191   0.63481   0.59917   0.00000  Uiso   1.00
C692   C     0.50070   0.58004   0.50043   0.00000  Uiso   1.00
C693   C     0.43634   0.60567   0.63858   0.00000  Uiso   1.00
C694   C     0.40062   0.49941   0.48859   0.00000  Uiso   1.00
C695   C     0.59934   0.50010   0.51137   0.00000  Uiso   1.00
C696   C     0.34677   0.49177   0.48404   0.00000  Uiso   1.00
C697   C     0.65311   0.50741   0.51584   0.00000  Uiso   1.00
C698   C     0.51687   0.35410   0.46209   0.00000  Uiso   1.00
C699   C     0.49187   0.64616   0.54074   0.00000  Uiso   1.00
C700   C     0.51615   0.64474   0.46344   0.00000  Uiso   1.00
H701   H     0.52849   0.62760   0.43526   0.00000  Uiso   1.00
H702   H     0.40760   0.63028   0.57266   0.00000  Uiso   1.00
H703   H     0.44204   0.33362   0.61271   0.00000  Uiso   1.00
H704   H     0.39935   0.61206   0.65278   0.00000  Uiso   1.00
H705   H     0.43597   0.57301   0.62675   0.00000  Uiso   1.00
H706   H     0.46972   0.61001   0.66581   0.00000  Uiso   1.00
H707   H     0.48596   0.37277   0.56921   0.00000  Uiso   1.00
H708   H     0.56230   0.54302   0.63095   0.00000  Uiso   1.00
H709   H     0.43676   0.45786   0.36890   0.00000  Uiso   1.00
H710   H     0.47083   0.38759   0.38648   0.00000  Uiso   1.00
H711   H     0.49742   0.33700   0.37740   0.00000  Uiso   1.00
H712   H     0.57195   0.36759   0.34559   0.00000  Uiso   1.00
H713   H     0.51134   0.38629   0.64903   0.00000  Uiso   1.00
H714   H     0.54998   0.41923   0.35668   0.00000  Uiso   1.00
N715   N     0.49999   0.49999   0.61907   0.00000  Uiso   1.00
N716   N     0.50001   0.50001   0.38093   0.00000  Uiso   1.00
O717   O     0.50000   0.43892   0.53821   0.00000  Uiso   1.00
O718   O     0.48918   0.62597   0.58177   0.00000  Uiso   1.00
O719   O     0.50000   0.56108   0.46179   0.00000  Uiso   1.00
O720   O     0.50000   0.43893   0.46176   0.00000  Uiso   1.00
O721   O     0.50000   0.56107   0.53824   0.00000  Uiso   1.00
O722   O     0.42392   0.50000   0.52928   0.00000  Uiso   1.00
O723   O     0.57608   0.50000   0.47072   0.00000  Uiso   1.00
O724   O     0.42392   0.50000   0.45284   0.00000  Uiso   1.00
O725   O     0.57608   0.50000   0.54716   0.00000  Uiso   1.00
O726   O     0.53954   0.37420   0.42814   0.00000  Uiso   1.00
Zn727  Zn    0.50000   0.49999   0.55104   0.00000  Uiso   1.00
Zn728  Zn    0.50000   0.50001   0.44896   0.00000  Uiso   1.00
Br729  Br    0.98786   0.45038   0.43867   0.00000  Uiso   1.00
Br730  Br    0.67803   0.54904   0.56080   0.00000  Uiso   1.00
Br731  Br    0.91830   0.55935   0.39525   0.00000  Uiso   1.00
Br732  Br    0.74861   0.44045   0.60465   0.00000  Uiso   1.00
C733   C     0.83491   0.42004   0.49999   0.00000  Uiso   1.00
C734   C     0.82582   0.35548   0.53920   0.00000  Uiso   1.00
C735   C     0.83575   0.62428   0.50166   0.00000  Uiso   1.00
C736   C     0.83682   0.37589   0.50003   0.00000  Uiso   1.00
C737   C     0.86825   0.52400   0.36070   0.00000  Uiso   1.00
C738   C     0.79825   0.47615   0.63926   0.00000  Uiso   1.00
C739   C     0.86806   0.52387   0.64627   0.00000  Uiso   1.00
C740   C     0.79812   0.47659   0.35365   0.00000  Uiso   1.00
C741   C     0.84090   0.36985   0.38599   0.00000  Uiso   1.00
C742   C     0.87037   0.38685   0.34865   0.00000  Uiso   1.00
C743   C     0.77524   0.63481   0.59917   0.00000  Uiso   1.00
C744   C     0.83403   0.58004   0.50043   0.00000  Uiso   1.00
C745   C     0.76968   0.60567   0.63858   0.00000  Uiso   1.00
C746   C     0.73395   0.49941   0.48859   0.00000  Uiso   1.00
C747   C     0.93267   0.50010   0.51137   0.00000  Uiso   1.00
C748   C     0.68011   0.49177   0.48404   0.00000  Uiso   1.00
C749   C     0.98644   0.50741   0.51584   0.00000  Uiso   1.00
C750   C     0.85021   0.35410   0.46209   0.00000  Uiso   1.00
C751   C     0.82520   0.64616   0.54074   0.00000  Uiso   1.00
C752   C     0.84948   0.64474   0.46344   0.00000  Uiso   1.00
H753   H     0.86182   0.62760   0.43526   0.00000  Uiso   1.00
H754   H     0.74094   0.63028   0.57266   0.00000  Uiso   1.00
H755   H     0.77537   0.33362   0.61271   0.00000  Uiso   1.00
H756   H     0.73268   0.61206   0.65278   0.00000  Uiso   1.00
H757   H     0.76930   0.57301   0.62675   0.00000  Uiso   1.00
H758   H     0.80305   0.61001   0.66581   0.00000  Uiso   1.00
H759   H     0.81929   0.37277   0.56921   0.00000  Uiso   1.00
H760   H     0.89564   0.54302   0.63095   0.00000  Uiso   1.00
H761   H     0.77009   0.45786   0.36890   0.00000  Uiso   1.00
H762   H     0.80416   0.38759   0.38648   0.00000  Uiso   1.00
H763   H     0.83075   0.33700   0.37740   0.00000  Uiso   1.00
H764   H     0.90529   0.36759   0.34559   0.00000  Uiso   1.00
H765   H     0.84467   0.38629   0.64903   0.00000  Uiso   1.00
H766   H     0.88331   0.41923   0.35668   0.00000  Uiso   1.00
N767   N     0.83332   0.49999   0.61907   0.00000  Uiso   1.00
N768   N     0.83335   0.50001   0.38093   0.00000  Uiso   1.00
O769   O     0.83333   0.43892   0.53821   0.00000  Uiso   1.00
O770   O     0.82251   0.62597   0.58177   0.00000  Uiso   1.00
O771   O     0.83334   0.56108   0.46179   0.00000  Uiso   1.00
O772   O     0.83333   0.43893   0.46176   0.00000  Uiso   1.00
O773   O     0.83334   0.56107   0.53824   0.00000  Uiso   1.00
O774   O     0.75725   0.50000   0.52928   0.00000  Uiso   1.00
O775   O     0.90942   0.50000   0.47072   0.00000  Uiso   1.00
O776   O     0.75725   0.50000   0.45284   0.00000  Uiso   1.00
O777   O     0.90942   0.50000   0.54716   0.00000  Uiso   1.00
O778   O     0.87287   0.37420   0.42814   0.00000  Uiso   1.00
Zn779  Zn    0.83333   0.49999   0.55104   0.00000  Uiso   1.00
Zn780  Zn    0.83333   0.50001   0.44896   0.00000  Uiso   1.00
Br781  Br    0.32120   0.78371   0.43867   0.00000  Uiso   1.00
Br782  Br    0.01136   0.88237   0.56080   0.00000  Uiso   1.00
Br783  Br    0.25163   0.89268   0.39525   0.00000  Uiso   1.00
Br784  Br    0.08194   0.77378   0.60465   0.00000  Uiso   1.00
C785   C     0.16824   0.75337   0.49999   0.00000  Uiso   1.00
C786   C     0.15916   0.68882   0.53920   0.00000  Uiso   1.00
C787   C     0.16908   0.95761   0.50166   0.00000  Uiso   1.00
C788   C     0.17015   0.70922   0.50003   0.00000  Uiso   1.00
C789   C     0.20158   0.85734   0.36070   0.00000  Uiso   1.00
C790   C     0.13158   0.80948   0.63926   0.00000  Uiso   1.00
C791   C     0.20140   0.85720   0.64627   0.00000  Uiso   1.00
C792   C     0.13145   0.80992   0.35365   0.00000  Uiso   1.00
C793   C     0.17423   0.70319   0.38599   0.00000  Uiso   1.00
C794   C     0.20371   0.72019   0.34865   0.00000  Uiso   1.00
C795   C     0.10858   0.96814   0.59917   0.00000  Uiso   1.00
C796   C     0.16737   0.91337   0.50043   0.00000  Uiso   1.00
C797   C     0.10301   0.93900   0.63858   0.00000  Uiso   1.00
C798   C     0.06728   0.83275   0.48859   0.00000  Uiso   1.00
C799   C     0.26601   0.83344   0.51137   0.00000  Uiso   1.00
C800   C     0.01344   0.82510   0.48404   0.00000  Uiso   1.00
C801   C     0.31977   0.84074   0.51584   0.00000  Uiso   1.00
C802   C     0.18354   0.68743   0.46209   0.00000  Uiso   1.00
C803   C     0.15854   0.97949   0.54074   0.00000  Uiso   1.00
C804   C     0.18281   0.97808   0.46344   0.00000  Uiso   1.00
H805   H     0.19515   0.96093   0.43526   0.00000  Uiso   1.00
H806   H     0.07427   0.96362   0.57266   0.00000  Uiso   1.00
H807   H     0.10870   0.66695   0.61271   0.00000  Uiso   1.00
H808   H     0.06602   0.94540   0.65278   0.00000  Uiso   1.00
H809   H     0.10263   0.90635   0.62675   0.00000  Uiso   1.00
H810   H     0.13639   0.94335   0.66581   0.00000  Uiso   1.00
H811   H     0.15262   0.70610   0.56921   0.00000  Uiso   1.00
H812   H     0.22897   0.87635   0.63095   0.00000  Uiso   1.00
H813   H     0.10342   0.79119   0.36890   0.00000  Uiso   1.00
H814   H     0.13749   0.72092   0.38648   0.00000  Uiso   1.00
H815   H     0.16408   0.67034   0.37740   0.00000  Uiso   1.00
H816   H     0.23862   0.70093   0.34559   0.00000  Uiso   1.00
H817   H     0.17800   0.71962   0.64903   0.00000  Uiso   1.00
H818   H     0.21664   0.75256   0.35668   0.00000  Uiso   1.00
N819   N     0.16665   0.83332   0.61907   0.00000  Uiso   1.00
N820   N     0.16668   0.83334   0.38093   0.00000  Uiso   1.00
O821   O     0.16666   0.77225   0.53821   0.00000  Uiso   1.00
O822   O     0.15585   0.95930   0.58177   0.00000  Uiso   1.00
O823   O     0.16667   0.89442   0.46179   0.00000  Uiso   1.00
O824   O     0.16666   0.77226   0.46176   0.00000  Uiso   1.00
O825   O     0.16667   0.89441   0.53824   0.00000  Uiso   1.00
O826   O     0.09058   0.83333   0.52928   0.00000  Uiso   1.00
O827   O     0.24275   0.83334   0.47072   0.00000  Uiso   1.00
O828   O     0.09058   0.83334   0.45284   0.00000  Uiso   1.00
O829   O     0.24275   0.83333   0.54716   0.00000  Uiso   1.00
O830   O     0.20621   0.70753   0.42814   0.00000  Uiso   1.00
Zn831  Zn    0.16667   0.83333   0.55104   0.00000  Uiso   1.00
Zn832  Zn    0.16667   0.83334   0.44896   0.00000  Uiso   1.00
Br833  Br    0.65453   0.78371   0.43867   0.00000  Uiso   1.00
Br834  Br    0.34469   0.88237   0.56080   0.00000  Uiso   1.00
Br835  Br    0.58496   0.89268   0.39525   0.00000  Uiso   1.00
Br836  Br    0.41527   0.77378   0.60465   0.00000  Uiso   1.00
C837   C     0.50157   0.75337   0.49999   0.00000  Uiso   1.00
C838   C     0.49249   0.68882   0.53920   0.00000  Uiso   1.00
C839   C     0.50242   0.95761   0.50166   0.00000  Uiso   1.00
C840   C     0.50348   0.70922   0.50003   0.00000  Uiso   1.00
C841   C     0.53491   0.85734   0.36070   0.00000  Uiso   1.00
C842   C     0.46491   0.80948   0.63926   0.00000  Uiso   1.00
C843   C     0.53473   0.85720   0.64627   0.00000  Uiso   1.00
C844   C     0.46479   0.80992   0.35365   0.00000  Uiso   1.00
C845   C     0.50757   0.70319   0.38599   0.00000  Uiso   1.00
C846   C     0.53704   0.72019   0.34865   0.00000  Uiso   1.00
C847   C     0.44191   0.96814   0.59917   0.00000  Uiso   1.00
C848   C     0.50070   0.91337   0.50043   0.00000  Uiso   1.00
C849   C     0.43634   0.93900   0.63858   0.00000  Uiso   1.00
C850   C     0.40062   0.83275   0.48859   0.00000  Uiso   1.00
C851   C     0.59934   0.83344   0.51137   0.00000  Uiso   1.00
C852   C     0.34677   0.82510   0.48404   0.00000  Uiso   1.00
C853   C     0.65311   0.84074   0.51584   0.00000  Uiso   1.00
C854   C     0.51687   0.68743   0.46209   0.00000  Uiso   1.00
C855   C     0.49187   0.97949   0.54074   0.00000  Uiso   1.00
C856   C     0.51615   0.97808   0.46344   0.00000  Uiso   1.00
H857   H     0.52849   0.96093   0.43526   0.00000  Uiso   1.00
H858   H     0.40760   0.96362   0.57266   0.00000  Uiso   1.00
H859   H     0.44204   0.66695   0.61271   0.00000  Uiso   1.00
H860   H     0.39935   0.94540   0.65278   0.00000  Uiso   1.00
H861   H     0.43597   0.90635   0.62675   0.00000  Uiso   1.00
H862   H     0.46972   0.94335   0.66581   0.00000  Uiso   1.00
H863   H     0.48596   0.70610   0.56921   0.00000  Uiso   1.00
H864   H     0.56230   0.87635   0.63095   0.00000  Uiso   1.00
H865   H     0.43676   0.79119   0.36890   0.00000  Uiso   1.00
H866   H     0.47083   0.72092   0.38648   0.00000  Uiso   1.00
H867   H     0.49742   0.67034   0.37740   0.00000  Uiso   1.00
H868   H     0.57195   0.70093   0.34559   0.00000  Uiso   1.00
H869   H     0.51134   0.71962   0.64903   0.00000  Uiso   1.00
H870   H     0.54998   0.75256   0.35668   0.00000  Uiso   1.00
N871   N     0.49999   0.83332   0.61907   0.00000  Uiso   1.00
N872   N     0.50001   0.83334   0.38093   0.00000  Uiso   1.00
O873   O     0.50000   0.77225   0.53821   0.00000  Uiso   1.00
O874   O     0.48918   0.95930   0.58177   0.00000  Uiso   1.00
O875   O     0.50000   0.89442   0.46179   0.00000  Uiso   1.00
O876   O     0.50000   0.77226   0.46176   0.00000  Uiso   1.00
O877   O     0.50000   0.89441   0.53824   0.00000  Uiso   1.00
O878   O     0.42392   0.83333   0.52928   0.00000  Uiso   1.00
O879   O     0.57608   0.83334   0.47072   0.00000  Uiso   1.00
O880   O     0.42392   0.83334   0.45284   0.00000  Uiso   1.00
O881   O     0.57608   0.83333   0.54716   0.00000  Uiso   1.00
O882   O     0.53954   0.70753   0.42814   0.00000  Uiso   1.00
Zn883  Zn    0.50000   0.83333   0.55104   0.00000  Uiso   1.00
Zn884  Zn    0.50000   0.83334   0.44896   0.00000  Uiso   1.00
Br885  Br    0.98786   0.78371   0.43867   0.00000  Uiso   1.00
Br886  Br    0.67803   0.88237   0.56080   0.00000  Uiso   1.00
Br887  Br    0.91830   0.89268   0.39525   0.00000  Uiso   1.00
Br888  Br    0.74861   0.77378   0.60465   0.00000  Uiso   1.00
C889   C     0.83491   0.75337   0.49999   0.00000  Uiso   1.00
C890   C     0.82582   0.68882   0.53920   0.00000  Uiso   1.00
C891   C     0.83575   0.95761   0.50166   0.00000  Uiso   1.00
C892   C     0.83682   0.70922   0.50003   0.00000  Uiso   1.00
C893   C     0.86825   0.85734   0.36070   0.00000  Uiso   1.00
C894   C     0.79825   0.80948   0.63926   0.00000  Uiso   1.00
C895   C     0.86806   0.85720   0.64627   0.00000  Uiso   1.00
C896   C     0.79812   0.80992   0.35365   0.00000  Uiso   1.00
C897   C     0.84090   0.70319   0.38599   0.00000  Uiso   1.00
C898   C     0.87037   0.72019   0.34865   0.00000  Uiso   1.00
C899   C     0.77524   0.96814   0.59917   0.00000  Uiso   1.00
C900   C     0.83403   0.91337   0.50043   0.00000  Uiso   1.00
C901   C     0.76968   0.93900   0.63858   0.00000  Uiso   1.00
C902   C     0.73395   0.83275   0.48859   0.00000  Uiso   1.00
C903   C     0.93267   0.83344   0.51137   0.00000  Uiso   1.00
C904   C     0.68011   0.82510   0.48404   0.00000  Uiso   1.00
C905   C     0.98644   0.84074   0.51584   0.00000  Uiso   1.00
C906   C     0.85021   0.68743   0.46209   0.00000  Uiso   1.00
C907   C     0.82520   0.97949   0.54074   0.00000  Uiso   1.00
C908   C     0.84948   0.97808   0.46344   0.00000  Uiso   1.00
H909   H     0.86182   0.96093   0.43526   0.00000  Uiso   1.00
H910   H     0.74094   0.96362   0.57266   0.00000  Uiso   1.00
H911   H     0.77537   0.66695   0.61271   0.00000  Uiso   1.00
H912   H     0.73268   0.94540   0.65278   0.00000  Uiso   1.00
H913   H     0.76930   0.90635   0.62675   0.00000  Uiso   1.00
H914   H     0.80305   0.94335   0.66581   0.00000  Uiso   1.00
H915   H     0.81929   0.70610   0.56921   0.00000  Uiso   1.00
H916   H     0.89564   0.87635   0.63095   0.00000  Uiso   1.00
H917   H     0.77009   0.79119   0.36890   0.00000  Uiso   1.00
H918   H     0.80416   0.72092   0.38648   0.00000  Uiso   1.00
H919   H     0.83075   0.67034   0.37740   0.00000  Uiso   1.00
H920   H     0.90529   0.70093   0.34559   0.00000  Uiso   1.00
H921   H     0.84467   0.71962   0.64903   0.00000  Uiso   1.00
H922   H     0.88331   0.75256   0.35668   0.00000  Uiso   1.00
N923   N     0.83332   0.83332   0.61907   0.00000  Uiso   1.00
N924   N     0.83335   0.83334   0.38093   0.00000  Uiso   1.00
O925   O     0.83333   0.77225   0.53821   0.00000  Uiso   1.00
O926   O     0.82251   0.95930   0.58177   0.00000  Uiso   1.00
O927   O     0.83334   0.89442   0.46179   0.00000  Uiso   1.00
O928   O     0.83333   0.77226   0.46176   0.00000  Uiso   1.00
O929   O     0.83334   0.89441   0.53824   0.00000  Uiso   1.00
O930   O     0.75725   0.83333   0.52928   0.00000  Uiso   1.00
O931   O     0.90942   0.83334   0.47072   0.00000  Uiso   1.00
O932   O     0.75725   0.83334   0.45284   0.00000  Uiso   1.00
O933   O     0.90942   0.83333   0.54716   0.00000  Uiso   1.00
O934   O     0.87287   0.70753   0.42814   0.00000  Uiso   1.00
Zn935  Zn    0.83333   0.83333   0.55104   0.00000  Uiso   1.00
Zn936  Zn    0.83333   0.83334   0.44896   0.00000  Uiso   1.00
Br937  Br    0.32120   0.11704   0.77200   0.00000  Uiso   1.00
Br938  Br    0.01136   0.21570   0.89413   0.00000  Uiso   1.00
Br939  Br    0.25163   0.22602   0.72858   0.00000  Uiso   1.00
Br940  Br    0.08194   0.10711   0.93798   0.00000  Uiso   1.00
C941   C     0.16824   0.08671   0.83333   0.00000  Uiso   1.00
C942   C     0.15916   0.02215   0.87253   0.00000  Uiso   1.00
C943   C     0.16908   0.29095   0.83500   0.00000  Uiso   1.00
C944   C     0.17015   0.04256   0.83336   0.00000  Uiso   1.00
C945   C     0.20158   0.19067   0.69403   0.00000  Uiso   1.00
C946   C     0.13158   0.14281   0.97259   0.00000  Uiso   1.00
C947   C     0.20140   0.19053   0.97960   0.00000  Uiso   1.00
C948   C     0.13145   0.14326   0.68699   0.00000  Uiso   1.00
C949   C     0.17423   0.03652   0.71932   0.00000  Uiso   1.00
C950   C     0.20371   0.05352   0.68199   0.00000  Uiso   1.00
C951   C     0.10858   0.30147   0.93250   0.00000  Uiso   1.00
C952   C     0.16737   0.24671   0.83377   0.00000  Uiso   1.00
C953   C     0.10301   0.27234   0.97192   0.00000  Uiso   1.00
C954   C     0.06728   0.16608   0.82193   0.00000  Uiso   1.00
C955   C     0.26601   0.16677   0.84470   0.00000  Uiso   1.00
C956   C     0.01344   0.15843   0.81738   0.00000  Uiso   1.00
C957   C     0.31977   0.17407   0.84917   0.00000  Uiso   1.00
C958   C     0.18354   0.02076   0.79542   0.00000  Uiso   1.00
C959   C     0.15854   0.31283   0.87408   0.00000  Uiso   1.00
C960   C     0.18281   0.31141   0.79677   0.00000  Uiso   1.00
H961   H     0.19515   0.29427   0.76860   0.00000  Uiso   1.00
H962   H     0.07427   0.29695   0.90600   0.00000  Uiso   1.00
H963   H     0.10870   0.00028   0.94604   0.00000  Uiso   1.00
H964   H     0.06602   0.27873   0.98612   0.00000  Uiso   1.00
H965   H     0.10263   0.23968   0.96008   0.00000  Uiso   1.00
H966   H     0.13639   0.27668   0.99914   0.00000  Uiso   1.00
H967   H     0.15262   0.03944   0.90255   0.00000  Uiso   1.00
H968   H     0.22897   0.20969   0.96429   0.00000  Uiso   1.00
H969   H     0.10342   0.12453   0.70224   0.00000  Uiso   1.00
H970   H     0.13749   0.05425   0.71981   0.00000  Uiso   1.00
H971   H     0.16408   0.00367   0.71073   0.00000  Uiso   1.00
H972   H     0.23862   0.03426   0.67892   0.00000  Uiso   1.00
H973   H     0.17800   0.05295   0.98237   0.00000  Uiso   1.00
H974   H     0.21664   0.08590   0.69002   0.00000  Uiso   1.00
N975   N     0.16665   0.16666   0.95240   0.00000  Uiso   1.00
N976   N     0.16668   0.16668   0.71427   0.00000  Uiso   1.00
O977   O     0.16666   0.10558   0.87154   0.00000  Uiso   1.00
O978   O     0.15585   0.29264   0.91510   0.00000  Uiso   1.00
O979   O     0.16667   0.22775   0.79513   0.00000  Uiso   1.00
O980   O     0.16666   0.10559   0.79510   0.00000  Uiso   1.00
O981   O     0.16667   0.22774   0.87157   0.00000  Uiso   1.00
O982   O     0.09058   0.16666   0.86261   0.00000  Uiso   1.00
O983   O     0.24275   0.16667   0.80405   0.00000  Uiso   1.00
O984   O     0.09058   0.16667   0.78617   0.00000  Uiso   1.00
O985   O     0.24275   0.16666   0.88050   0.00000  Uiso   1.00
O986   O     0.20621   0.04086   0.76147   0.00000  Uiso   1.00
Zn987  Zn    0.16667   0.16666   0.88437   0.00000  Uiso   1.00
Zn988  Zn    0.16667   0.16667   0.78229   0.00000  Uiso   1.00
Br989  Br    0.65453   0.11704   0.77200   0.00000  Uiso   1.00
Br990  Br    0.34469   0.21570   0.89413   0.00000  Uiso   1.00
Br991  Br    0.58496   0.22602   0.72858   0.00000  Uiso   1.00
Br992  Br    0.41527   0.10711   0.93798   0.00000  Uiso   1.00
C993   C     0.50157   0.08671   0.83333   0.00000  Uiso   1.00
C994   C     0.49249   0.02215   0.87253   0.00000  Uiso   1.00
C995   C     0.50242   0.29095   0.83500   0.00000  Uiso   1.00
C996   C     0.50348   0.04256   0.83336   0.00000  Uiso   1.00
C997   C     0.53491   0.19067   0.69403   0.00000  Uiso   1.00
C998   C     0.46491   0.14281   0.97259   0.00000  Uiso   1.00
C999   C     0.53473   0.19053   0.97960   0.00000  Uiso   1.00
C1000  C     0.46479   0.14326   0.68699   0.00000  Uiso   1.00
C1001  C     0.50757   0.03652   0.71932   0.00000  Uiso   1.00
C1002  C     0.53704   0.05352   0.68199   0.00000  Uiso   1.00
C1003  C     0.44191   0.30147   0.93250   0.00000  Uiso   1.00
C1004  C     0.50070   0.24671   0.83377   0.00000  Uiso   1.00
C1005  C     0.43634   0.27234   0.97192   0.00000  Uiso   1.00
C1006  C     0.40062   0.16608   0.82193   0.00000  Uiso   1.00
C1007  C     0.59934   0.16677   0.84470   0.00000  Uiso   1.00
C1008  C     0.34677   0.15843   0.81738   0.00000  Uiso   1.00
C1009  C     0.65311   0.17407   0.84917   0.00000  Uiso   1.00
C1010  C     0.51687   0.02076   0.79542   0.00000  Uiso   1.00
C1011  C     0.49187   0.31283   0.87408   0.00000  Uiso   1.00
C1012  C     0.51615   0.31141   0.79677   0.00000  Uiso   1.00
H1013  H     0.52849   0.29427   0.76860   0.00000  Uiso   1.00
H1014  H     0.40760   0.29695   0.90600   0.00000  Uiso   1.00
H1015  H     0.44204   0.00028   0.94604   0.00000  Uiso   1.00
H1016  H     0.39935   0.27873   0.98612   0.00000  Uiso   1.00
H1017  H     0.43597   0.23968   0.96008   0.00000  Uiso   1.00
H1018  H     0.46972   0.27668   0.99914   0.00000  Uiso   1.00
H1019  H     0.48596   0.03944   0.90255   0.00000  Uiso   1.00
H1020  H     0.56230   0.20969   0.96429   0.00000  Uiso   1.00
H1021  H     0.43676   0.12453   0.70224   0.00000  Uiso   1.00
H1022  H     0.47083   0.05425   0.71981   0.00000  Uiso   1.00
H1023  H     0.49742   0.00367   0.71073   0.00000  Uiso   1.00
H1024  H     0.57195   0.03426   0.67892   0.00000  Uiso   1.00
H1025  H     0.51134   0.05295   0.98237   0.00000  Uiso   1.00
H1026  H     0.54998   0.08590   0.69002   0.00000  Uiso   1.00
N1027  N     0.49999   0.16666   0.95240   0.00000  Uiso   1.00
N1028  N     0.50001   0.16668   0.71427   0.00000  Uiso   1.00
O1029  O     0.50000   0.10558   0.87154   0.00000  Uiso   1.00
O1030  O     0.48918   0.29264   0.91510   0.00000  Uiso   1.00
O1031  O     0.50000   0.22775   0.79513   0.00000  Uiso   1.00
O1032  O     0.50000   0.10559   0.79510   0.00000  Uiso   1.00
O1033  O     0.50000   0.22774   0.87157   0.00000  Uiso   1.00
O1034  O     0.42392   0.16666   0.86261   0.00000  Uiso   1.00
O1035  O     0.57608   0.16667   0.80405   0.00000  Uiso   1.00
O1036  O     0.42392   0.16667   0.78617   0.00000  Uiso   1.00
O1037  O     0.57608   0.16666   0.88050   0.00000  Uiso   1.00
O1038  O     0.53954   0.04086   0.76147   0.00000  Uiso   1.00
Zn1039 Zn    0.50000   0.16666   0.88437   0.00000  Uiso   1.00
Zn1040 Zn    0.50000   0.16667   0.78229   0.00000  Uiso   1.00
Br1041 Br    0.98786   0.11704   0.77200   0.00000  Uiso   1.00
Br1042 Br    0.67803   0.21570   0.89413   0.00000  Uiso   1.00
Br1043 Br    0.91830   0.22602   0.72858   0.00000  Uiso   1.00
Br1044 Br    0.74861   0.10711   0.93798   0.00000  Uiso   1.00
C1045  C     0.83491   0.08671   0.83333   0.00000  Uiso   1.00
C1046  C     0.82582   0.02215   0.87253   0.00000  Uiso   1.00
C1047  C     0.83575   0.29095   0.83500   0.00000  Uiso   1.00
C1048  C     0.83682   0.04256   0.83336   0.00000  Uiso   1.00
C1049  C     0.86825   0.19067   0.69403   0.00000  Uiso   1.00
C1050  C     0.79825   0.14281   0.97259   0.00000  Uiso   1.00
C1051  C     0.86806   0.19053   0.97960   0.00000  Uiso   1.00
C1052  C     0.79812   0.14326   0.68699   0.00000  Uiso   1.00
C1053  C     0.84090   0.03652   0.71932   0.00000  Uiso   1.00
C1054  C     0.87037   0.05352   0.68199   0.00000  Uiso   1.00
C1055  C     0.77524   0.30147   0.93250   0.00000  Uiso   1.00
C1056  C     0.83403   0.24671   0.83377   0.00000  Uiso   1.00
C1057  C     0.76968   0.27234   0.97192   0.00000  Uiso   1.00
C1058  C     0.73395   0.16608   0.82193   0.00000  Uiso   1.00
C1059  C     0.93267   0.16677   0.84470   0.00000  Uiso   1.00
C1060  C     0.68011   0.15843   0.81738   0.00000  Uiso   1.00
C1061  C     0.98644   0.17407   0.84917   0.00000  Uiso   1.00
C1062  C     0.85021   0.02076   0.79542   0.00000  Uiso   1.00
C1063  C     0.82520   0.31283   0.87408   0.00000  Uiso   1.00
C1064  C     0.84948   0.31141   0.79677   0.00000  Uiso   1.00
H1065  H     0.86182   0.29427   0.76860   0.00000  Uiso   1.00
H1066  H     0.74094   0.29695   0.90600   0.00000  Uiso   1.00
H1067  H     0.77537   0.00028   0.94604   0.00000  Uiso   1.00
H1068  H     0.73268   0.27873   0.98612   0.00000  Uiso   1.00
H1069  H     0.76930   0.23968   0.96008   0.00000  Uiso   1.00
H1070  H     0.80305   0.27668   0.99914   0.00000  Uiso   1.00
H1071  H     0.81929   0.03944   0.90255   0.00000  Uiso   1.00
H1072  H     0.89564   0.20969   0.96429   0.00000  Uiso   1.00
H1073  H     0.77009   0.12453   0.70224   0.00000  Uiso   1.00
H1074  H     0.80416   0.05425   0.71981   0.00000  Uiso   1.00
H1075  H     0.83075   0.00367   0.71073   0.00000  Uiso   1.00
H1076  H     0.90529   0.03426   0.67892   0.00000  Uiso   1.00
H1077  H     0.84467   0.05295   0.98237   0.00000  Uiso   1.00
H1078  H     0.88331   0.08590   0.69002   0.00000  Uiso   1.00
N1079  N     0.83332   0.16666   0.95240   0.00000  Uiso   1.00
N1080  N     0.83335   0.16668   0.71427   0.00000  Uiso   1.00
O1081  O     0.83333   0.10558   0.87154   0.00000  Uiso   1.00
O1082  O     0.82251   0.29264   0.91510   0.00000  Uiso   1.00
O1083  O     0.83334   0.22775   0.79513   0.00000  Uiso   1.00
O1084  O     0.83333   0.10559   0.79510   0.00000  Uiso   1.00
O1085  O     0.83334   0.22774   0.87157   0.00000  Uiso   1.00
O1086  O     0.75725   0.16666   0.86261   0.00000  Uiso   1.00
O1087  O     0.90942   0.16667   0.80405   0.00000  Uiso   1.00
O1088  O     0.75725   0.16667   0.78617   0.00000  Uiso   1.00
O1089  O     0.90942   0.16666   0.88050   0.00000  Uiso   1.00
O1090  O     0.87287   0.04086   0.76147   0.00000  Uiso   1.00
Zn1091 Zn    0.83333   0.16666   0.88437   0.00000  Uiso   1.00
Zn1092 Zn    0.83333   0.16667   0.78229   0.00000  Uiso   1.00
Br1093 Br    0.32120   0.45038   0.77200   0.00000  Uiso   1.00
Br1094 Br    0.01136   0.54904   0.89413   0.00000  Uiso   1.00
Br1095 Br    0.25163   0.55935   0.72858   0.00000  Uiso   1.00
Br1096 Br    0.08194   0.44045   0.93798   0.00000  Uiso   1.00
C1097  C     0.16824   0.42004   0.83333   0.00000  Uiso   1.00
C1098  C     0.15916   0.35548   0.87253   0.00000  Uiso   1.00
C1099  C     0.16908   0.62428   0.83500   0.00000  Uiso   1.00
C1100  C     0.17015   0.37589   0.83336   0.00000  Uiso   1.00
C1101  C     0.20158   0.52400   0.69403   0.00000  Uiso   1.00
C1102  C     0.13158   0.47615   0.97259   0.00000  Uiso   1.00
C1103  C     0.20140   0.52387   0.97960   0.00000  Uiso   1.00
C1104  C     0.13145   0.47659   0.68699   0.00000  Uiso   1.00
C1105  C     0.17423   0.36985   0.71932   0.00000  Uiso   1.00
C1106  C     0.20371   0.38685   0.68199   0.00000  Uiso   1.00
C1107  C     0.10858   0.63481   0.93250   0.00000  Uiso   1.00
C1108  C     0.16737   0.58004   0.83377   0.00000  Uiso   1.00
C1109  C     0.10301   0.60567   0.97192   0.00000  Uiso   1.00
C1110  C     0.06728   0.49941   0.82193   0.00000  Uiso   1.00
C1111  C     0.26601   0.50010   0.84470   0.00000  Uiso   1.00
C1112  C     0.01344   0.49177   0.81738   0.00000  Uiso   1.00
C1113  C     0.31977   0.50741   0.84917   0.00000  Uiso   1.00
C1114  C     0.18354   0.35410   0.79542   0.00000  Uiso   1.00
C1115  C     0.15854   0.64616   0.87408   0.00000  Uiso   1.00
C1116  C     0.18281   0.64474   0.79677   0.00000  Uiso   1.00
H1117  H     0.19515   0.62760   0.76860   0.00000  Uiso   1.00
H1118  H     0.07427   0.63028   0.90600   0.00000  Uiso   1.00
H1119  H     0.10870   0.33362   0.94604   0.00000  Uiso   1.00
H1120  H     0.06602   0.61206   0.98612   0.00000  Uiso   1.00
H1121  H     0.10263   0.57301   0.96008   0.00000  Uiso   1.00
H1122  H     0.13639   0.61001   0.99914   0.00000  Uiso   1.00
H1123  H     0.15262   0.37277   0.90255   0.00000  Uiso   1.00
H1124  H     0.22897   0.54302   0.96429   0.00000  Uiso   1.00
H1125  H     0.10342   0.45786   0.70224   0.00000  Uiso   1.00
H1126  H     0.13749   0.38759   0.71981   0.00000  Uiso   1.00
H1127  H     0.16408   0.33700   0.71073   0.00000  Uiso   1.00
H1128  H     0.23862   0.36759   0.67892   0.00000  Uiso   1.00
H1129  H     0.17800   0.38629   0.98237   0.00000  Uiso   1.00
H1130  H     0.21664   0.41923   0.69002   0.00000  Uiso   1.00
N1131  N     0.16665   0.49999   0.95240   0.00000  Uiso   1.00
N1132  N     0.16668   0.50001   0.71427   0.00000  Uiso   1.00
O1133  O     0.16666   0.43892   0.87154   0.00000  Uiso   1.00
O1134  O     0.15585   0.62597   0.91510   0.00000  Uiso   1.00
O1135  O     0.16667   0.56108   0.79513   0.00000  Uiso   1.00
O1136  O     0.16666   0.43893   0.79510   0.00000  Uiso   1.00
O1137  O     0.16667   0.56107   0.87157   0.00000  Uiso   1.00
O1138  O     0.09058   0.50000   0.86261   0.00000  Uiso   1.00
O1139  O     0.24275   0.50000   0.80405   0.00000  Uiso   1.00
O1140  O     0.09058   0.50000   0.78617   0.00000  Uiso   1.00
O1141  O     0.24275   0.50000   0.88050   0.00000  Uiso   1.00
O1142  O     0.20621   0.37420   0.76147   0.00000  Uiso   1.00
Zn1143 Zn    0.16667   0.49999   0.88437   0.00000  Uiso   1.00
Zn1144 Zn    0.16667   0.50001   0.78229   0.00000  Uiso   1.00
Br1145 Br    0.65453   0.45038   0.77200   0.00000  Uiso   1.00
Br1146 Br    0.34469   0.54904   0.89413   0.00000  Uiso   1.00
Br1147 Br    0.58496   0.55935   0.72858   0.00000  Uiso   1.00
Br1148 Br    0.41527   0.44045   0.93798   0.00000  Uiso   1.00
C1149  C     0.50157   0.42004   0.83333   0.00000  Uiso   1.00
C1150  C     0.49249   0.35548   0.87253   0.00000  Uiso   1.00
C1151  C     0.50242   0.62428   0.83500   0.00000  Uiso   1.00
C1152  C     0.50348   0.37589   0.83336   0.00000  Uiso   1.00
C1153  C     0.53491   0.52400   0.69403   0.00000  Uiso   1.00
C1154  C     0.46491   0.47615   0.97259   0.00000  Uiso   1.00
C1155  C     0.53473   0.52387   0.97960   0.00000  Uiso   1.00
C1156  C     0.46479   0.47659   0.68699   0.00000  Uiso   1.00
C1157  C     0.50757   0.36985   0.71932   0.00000  Uiso   1.00
C1158  C     0.53704   0.38685   0.68199   0.00000  Uiso   1.00
C1159  C     0.44191   0.63481   0.93250   0.00000  Uiso   1.00
C1160  C     0.50070   0.58004   0.83377   0.00000  Uiso   1.00
C1161  C     0.43634   0.60567   0.97192   0.00000  Uiso   1.00
C1162  C     0.40062   0.49941   0.82193   0.00000  Uiso   1.00
C1163  C     0.59934   0.50010   0.84470   0.00000  Uiso   1.00
C1164  C     0.34677   0.49177   0.81738   0.00000  Uiso   1.00
C1165  C     0.65311   0.50741   0.84917   0.00000  Uiso   1.00
C1166  C     0.51687   0.35410   0.79542   0.00000  Uiso   1.00
C1167  C     0.49187   0.64616   0.87408   0.00000  Uiso   1.00
C1168  C     0.51615   0.64474   0.79677   0.00000  Uiso   1.00
H1169  H     0.52849   0.62760   0.76860   0.00000  Uiso   1.00
H1170  H     0.40760   0.63028   0.90600   0.00000  Uiso   1.00
H1171  H     0.44204   0.33362   0.94604   0.00000  Uiso   1.00
H1172  H     0.39935   0.61206   0.98612   0.00000  Uiso   1.00
H1173  H     0.43597   0.57301   0.96008   0.00000  Uiso   1.00
H1174  H     0.46972   0.61001   0.99914   0.00000  Uiso   1.00
H1175  H     0.48596   0.37277   0.90255   0.00000  Uiso   1.00
H1176  H     0.56230   0.54302   0.96429   0.00000  Uiso   1.00
H1177  H     0.43676   0.45786   0.70224   0.00000  Uiso   1.00
H1178  H     0.47083   0.38759   0.71981   0.00000  Uiso   1.00
H1179  H     0.49742   0.33700   0.71073   0.00000  Uiso   1.00
H1180  H     0.57195   0.36759   0.67892   0.00000  Uiso   1.00
H1181  H     0.51134   0.38629   0.98237   0.00000  Uiso   1.00
H1182  H     0.54998   0.41923   0.69002   0.00000  Uiso   1.00
N1183  N     0.49999   0.49999   0.95240   0.00000  Uiso   1.00
N1184  N     0.50001   0.50001   0.71427   0.00000  Uiso   1.00
O1185  O     0.50000   0.43892   0.87154   0.00000  Uiso   1.00
O1186  O     0.48918   0.62597   0.91510   0.00000  Uiso   1.00
O1187  O     0.50000   0.56108   0.79513   0.00000  Uiso   1.00
O1188  O     0.50000   0.43893   0.79510   0.00000  Uiso   1.00
O1189  O     0.50000   0.56107   0.87157   0.00000  Uiso   1.00
O1190  O     0.42392   0.50000   0.86261   0.00000  Uiso   1.00
O1191  O     0.57608   0.50000   0.80405   0.00000  Uiso   1.00
O1192  O     0.42392   0.50000   0.78617   0.00000  Uiso   1.00
O1193  O     0.57608   0.50000   0.88050   0.00000  Uiso   1.00
O1194  O     0.53954   0.37420   0.76147   0.00000  Uiso   1.00
Zn1195 Zn    0.50000   0.49999   0.88437   0.00000  Uiso   1.00
Zn1196 Zn    0.50000   0.50001   0.78229   0.00000  Uiso   1.00
Br1197 Br    0.98786   0.45038   0.77200   0.00000  Uiso   1.00
Br1198 Br    0.67803   0.54904   0.89413   0.00000  Uiso   1.00
Br1199 Br    0.91830   0.55935   0.72858   0.00000  Uiso   1.00
Br1200 Br    0.74861   0.44045   0.93798   0.00000  Uiso   1.00
C1201  C     0.83491   0.42004   0.83333   0.00000  Uiso   1.00
C1202  C     0.82582   0.35548   0.87253   0.00000  Uiso   1.00
C1203  C     0.83575   0.62428   0.83500   0.00000  Uiso   1.00
C1204  C     0.83682   0.37589   0.83336   0.00000  Uiso   1.00
C1205  C     0.86825   0.52400   0.69403   0.00000  Uiso   1.00
C1206  C     0.79825   0.47615   0.97259   0.00000  Uiso   1.00
C1207  C     0.86806   0.52387   0.97960   0.00000  Uiso   1.00
C1208  C     0.79812   0.47659   0.68699   0.00000  Uiso   1.00
C1209  C     0.84090   0.36985   0.71932   0.00000  Uiso   1.00
C1210  C     0.87037   0.38685   0.68199   0.00000  Uiso   1.00
C1211  C     0.77524   0.63481   0.93250   0.00000  Uiso   1.00
C1212  C     0.83403   0.58004   0.83377   0.00000  Uiso   1.00
C1213  C     0.76968   0.60567   0.97192   0.00000  Uiso   1.00
C1214  C     0.73395   0.49941   0.82193   0.00000  Uiso   1.00
C1215  C     0.93267   0.50010   0.84470   0.00000  Uiso   1.00
C1216  C     0.68011   0.49177   0.81738   0.00000  Uiso   1.00
C1217  C     0.98644   0.50741   0.84917   0.00000  Uiso   1.00
C1218  C     0.85021   0.35410   0.79542   0.00000  Uiso   1.00
C1219  C     0.82520   0.64616   0.87408   0.00000  Uiso   1.00
C1220  C     0.84948   0.64474   0.79677   0.00000  Uiso   1.00
H1221  H     0.86182   0.62760   0.76860   0.00000  Uiso   1.00
H1222  H     0.74094   0.63028   0.90600   0.00000  Uiso   1.00
H1223  H     0.77537   0.33362   0.94604   0.00000  Uiso   1.00
H1224  H     0.73268   0.61206   0.98612   0.00000  Uiso   1.00
H1225  H     0.76930   0.57301   0.96008   0.00000  Uiso   1.00
H1226  H     0.80305   0.61001   0.99914   0.00000  Uiso   1.00
H1227  H     0.81929   0.37277   0.90255   0.00000  Uiso   1.00
H1228  H     0.89564   0.54302   0.96429   0.00000  Uiso   1.00
H1229  H     0.77009   0.45786   0.70224   0.00000  Uiso   1.00
H1230  H     0.80416   0.38759   0.71981   0.00000  Uiso   1.00
H1231  H     0.83075   0.33700   0.71073   0.00000  Uiso   1.00
H1232  H     0.90529   0.36759   0.67892   0.00000  Uiso   1.00
H1233  H     0.84467   0.38629   0.98237   0.00000  Uiso   1.00
H1234  H     0.88331   0.41923   0.69002   0.00000  Uiso   1.00
N1235  N     0.83332   0.49999   0.95240   0.00000  Uiso   1.00
N1236  N     0.83335   0.50001   0.71427   0.00000  Uiso   1.00
O1237  O     0.83333   0.43892   0.87154   0.00000  Uiso   1.00
O1238  O     0.82251   0.62597   0.91510   0.00000  Uiso   1.00
O1239  O     0.83334   0.56108   0.79513   0.00000  Uiso   1.00
O1240  O     0.83333   0.43893   0.79510   0.00000  Uiso   1.00
O1241  O     0.83334   0.56107   0.87157   0.00000  Uiso   1.00
O1242  O     0.75725   0.50000   0.86261   0.00000  Uiso   1.00
O1243  O     0.90942   0.50000   0.80405   0.00000  Uiso   1.00
O1244  O     0.75725   0.50000   0.78617   0.00000  Uiso   1.00
O1245  O     0.90942   0.50000   0.88050   0.00000  Uiso   1.00
O1246  O     0.87287   0.37420   0.76147   0.00000  Uiso   1.00
Zn1247 Zn    0.83333   0.49999   0.88437   0.00000  Uiso   1.00
Zn1248 Zn    0.83333   0.50001   0.78229   0.00000  Uiso   1.00
Br1249 Br    0.32120   0.78371   0.77200   0.00000  Uiso   1.00
Br1250 Br    0.01136   0.88237   0.89413   0.00000  Uiso   1.00
Br1251 Br    0.25163   0.89268   0.72858   0.00000  Uiso   1.00
Br1252 Br    0.08194   0.77378   0.93798   0.00000  Uiso   1.00
C1253  C     0.16824   0.75337   0.83333   0.00000  Uiso   1.00
C1254  C     0.15916   0.68882   0.87253   0.00000  Uiso   1.00
C1255  C     0.16908   0.95761   0.83500   0.00000  Uiso   1.00
C1256  C     0.17015   0.70922   0.83336   0.00000  Uiso   1.00
C1257  C     0.20158   0.85734   0.69403   0.00000  Uiso   1.00
C1258  C     0.13158   0.80948   0.97259   0.00000  Uiso   1.00
C1259  C     0.20140   0.85720   0.97960   0.00000  Uiso   1.00
C1260  C     0.13145   0.80992   0.68699   0.00000  Uiso   1.00
C1261  C     0.17423   0.70319   0.71932   0.00000  Uiso   1.00
C1262  C     0.20371   0.72019   0.68199   0.00000  Uiso   1.00
C1263  C     0.10858   0.96814   0.93250   0.00000  Uiso   1.00
C1264  C     0.16737   0.91337   0.83377   0.00000  Uiso   1.00
C1265  C     0.10301   0.93900   0.97192   0.00000  Uiso   1.00
C1266  C     0.06728   0.83275   0.82193   0.00000  Uiso   1.00
C1267  C     0.26601   0.83344   0.84470   0.00000  Uiso   1.00
C1268  C     0.01344   0.82510   0.81738   0.00000  Uiso   1.00
C1269  C     0.31977   0.84074   0.84917   0.00000  Uiso   1.00
C1270  C     0.18354   0.68743   0.79542   0.00000  Uiso   1.00
C1271  C     0.15854   0.97949   0.87408   0.00000  Uiso   1.00
C1272  C     0.18281   0.97808   0.79677   0.00000  Uiso   1.00
H1273  H     0.19515   0.96093   0.76860   0.00000  Uiso   1.00
H1274  H     0.07427   0.96362   0.90600   0.00000  Uiso   1.00
H1275  H     0.10870   0.66695   0.94604   0.00000  Uiso   1.00
H1276  H     0.06602   0.94540   0.98612   0.00000  Uiso   1.00
H1277  H     0.10263   0.90635   0.96008   0.00000  Uiso   1.00
H1278  H     0.13639   0.94335   0.99914   0.00000  Uiso   1.00
H1279  H     0.15262   0.70610   0.90255   0.00000  Uiso   1.00
H1280  H     0.22897   0.87635   0.96429   0.00000  Uiso   1.00
H1281  H     0.10342   0.79119   0.70224   0.00000  Uiso   1.00
H1282  H     0.13749   0.72092   0.71981   0.00000  Uiso   1.00
H1283  H     0.16408   0.67034   0.71073   0.00000  Uiso   1.00
H1284  H     0.23862   0.70093   0.67892   0.00000  Uiso   1.00
H1285  H     0.17800   0.71962   0.98237   0.00000  Uiso   1.00
H1286  H     0.21664   0.75256   0.69002   0.00000  Uiso   1.00
N1287  N     0.16665   0.83332   0.95240   0.00000  Uiso   1.00
N1288  N     0.16668   0.83334   0.71427   0.00000  Uiso   1.00
O1289  O     0.16666   0.77225   0.87154   0.00000  Uiso   1.00
O1290  O     0.15585   0.95930   0.91510   0.00000  Uiso   1.00
O1291  O     0.16667   0.89442   0.79513   0.00000  Uiso   1.00
O1292  O     0.16666   0.77226   0.79510   0.00000  Uiso   1.00
O1293  O     0.16667   0.89441   0.87157   0.00000  Uiso   1.00
O1294  O     0.09058   0.83333   0.86261   0.00000  Uiso   1.00
O1295  O     0.24275   0.83334   0.80405   0.00000  Uiso   1.00
O1296  O     0.09058   0.83334   0.78617   0.00000  Uiso   1.00
O1297  O     0.24275   0.83333   0.88050   0.00000  Uiso   1.00
O1298  O     0.20621   0.70753   0.76147   0.00000  Uiso   1.00
Zn1299 Zn    0.16667   0.83333   0.88437   0.00000  Uiso   1.00
Zn1300 Zn    0.16667   0.83334   0.78229   0.00000  Uiso   1.00
Br1301 Br    0.65453   0.78371   0.77200   0.00000  Uiso   1.00
Br1302 Br    0.34469   0.88237   0.89413   0.00000  Uiso   1.00
Br1303 Br    0.58496   0.89268   0.72858   0.00000  Uiso   1.00
Br1304 Br    0.41527   0.77378   0.93798   0.00000  Uiso   1.00
C1305  C     0.50157   0.75337   0.83333   0.00000  Uiso   1.00
C1306  C     0.49249   0.68882   0.87253   0.00000  Uiso   1.00
C1307  C     0.50242   0.95761   0.83500   0.00000  Uiso   1.00
C1308  C     0.50348   0.70922   0.83336   0.00000  Uiso   1.00
C1309  C     0.53491   0.85734   0.69403   0.00000  Uiso   1.00
C1310  C     0.46491   0.80948   0.97259   0.00000  Uiso   1.00
C1311  C     0.53473   0.85720   0.97960   0.00000  Uiso   1.00
C1312  C     0.46479   0.80992   0.68699   0.00000  Uiso   1.00
C1313  C     0.50757   0.70319   0.71932   0.00000  Uiso   1.00
C1314  C     0.53704   0.72019   0.68199   0.00000  Uiso   1.00
C1315  C     0.44191   0.96814   0.93250   0.00000  Uiso   1.00
C1316  C     0.50070   0.91337   0.83377   0.00000  Uiso   1.00
C1317  C     0.43634   0.93900   0.97192   0.00000  Uiso   1.00
C1318  C     0.40062   0.83275   0.82193   0.00000  Uiso   1.00
C1319  C     0.59934   0.83344   0.84470   0.00000  Uiso   1.00
C1320  C     0.34677   0.82510   0.81738   0.00000  Uiso   1.00
C1321  C     0.65311   0.84074   0.84917   0.00000  Uiso   1.00
C1322  C     0.51687   0.68743   0.79542   0.00000  Uiso   1.00
C1323  C     0.49187   0.97949   0.87408   0.00000  Uiso   1.00
C1324  C     0.51615   0.97808   0.79677   0.00000  Uiso   1.00
H1325  H     0.52849   0.96093   0.76860   0.00000  Uiso   1.00
H1326  H     0.40760   0.96362   0.90600   0.00000  Uiso   1.00
H1327  H     0.44204   0.66695   0.94604   0.00000  Uiso   1.00
H1328  H     0.39935   0.94540   0.98612   0.00000  Uiso   1.00
H1329  H     0.43597   0.90635   0.96008   0.00000  Uiso   1.00
H1330  H     0.46972   0.94335   0.99914   0.00000  Uiso   1.00
H1331  H     0.48596   0.70610   0.90255   0.00000  Uiso   1.00
H1332  H     0.56230   0.87635   0.96429   0.00000  Uiso   1.00
H1333  H     0.43676   0.79119   0.70224   0.00000  Uiso   1.00
H1334  H     0.47083   0.72092   0.71981   0.00000  Uiso   1.00
H1335  H     0.49742   0.67034   0.71073   0.00000  Uiso   1.00
H1336  H     0.57195   0.70093   0.67892   0.00000  Uiso   1.00
H1337  H     0.51134   0.71962   0.98237   0.00000  Uiso   1.00
H1338  H     0.54998   0.75256   0.69002   0.00000  Uiso   1.00
N1339  N     0.49999   0.83332   0.95240   0.00000  Uiso   1.00
N1340  N     0.50001   0.83334   0.71427   0.00000  Uiso   1.00
O1341  O     0.50000   0.77225   0.87154   0.00000  Uiso   1.00
O1342  O     0.48918   0.95930   0.91510   0.00000  Uiso   1.00
O1343  O     0.50000   0.89442   0.79513   0.00000  Uiso   1.00
O1344  O     0.50000   0.77226   0.79510   0.00000  Uiso   1.00
O1345  O     0.50000   0.89441   0.87157   0.00000  Uiso   1.00
O1346  O     0.42392   0.83333   0.86261   0.00000  Uiso   1.00
O1347  O     0.57608   0.83334   0.80405   0.00000  Uiso   1.00
O1348  O     0.42392   0.83334   0.78617   0.00000  Uiso   1.00
O1349  O     0.57608   0.83333   0.88050   0.00000  Uiso   1.00
O1350  O     0.53954   0.70753   0.76147   0.00000  Uiso   1.00
Zn1351 Zn    0.50000   0.83333   0.88437   0.00000  Uiso   1.00
Zn1352 Zn    0.50000   0.83334   0.78229   0.00000  Uiso   1.00
Br1353 Br    0.98786   0.78371   0.77200   0.00000  Uiso   1.00
Br1354 Br    0.67803   0.88237   0.89413   0.00000  Uiso   1.00
Br1355 Br    0.91830   0.89268   0.72858   0.00000  Uiso   1.00
Br1356 Br    0.74861   0.77378   0.93798   0.00000  Uiso   1.00
C1357  C     0.83491   0.75337   0.83333   0.00000  Uiso   1.00
C1358  C     0.82582   0.68882   0.87253   0.00000  Uiso   1.00
C1359  C     0.83575   0.95761   0.83500   0.00000  Uiso   1.00
C1360  C     0.83682   0.70922   0.83336   0.00000  Uiso   1.00
C1361  C     0.86825   0.85734   0.69403   0.00000  Uiso   1.00
C1362  C     0.79825   0.80948   0.97259   0.00000  Uiso   1.00
C1363  C     0.86806   0.85720   0.97960   0.00000  Uiso   1.00
C1364  C     0.79812   0.80992   0.68699   0.00000  Uiso   1.00
C1365  C     0.84090   0.70319   0.71932   0.00000  Uiso   1.00
C1366  C     0.87037   0.72019   0.68199   0.00000  Uiso   1.00
C1367  C     0.77524   0.96814   0.93250   0.00000  Uiso   1.00
C1368  C     0.83403   0.91337   0.83377   0.00000  Uiso   1.00
C1369  C     0.76968   0.93900   0.97192   0.00000  Uiso   1.00
C1370  C     0.73395   0.83275   0.82193   0.00000  Uiso   1.00
C1371  C     0.93267   0.83344   0.84470   0.00000  Uiso   1.00
C1372  C     0.68011   0.82510   0.81738   0.00000  Uiso   1.00
C1373  C     0.98644   0.84074   0.84917   0.00000  Uiso   1.00
C1374  C     0.85021   0.68743   0.79542   0.00000  Uiso   1.00
C1375  C     0.82520   0.97949   0.87408   0.00000  Uiso   1.00
C1376  C     0.84948   0.97808   0.79677   0.00000  Uiso   1.00
H1377  H     0.86182   0.96093   0.76860   0.00000  Uiso   1.00
H1378  H     0.74094   0.96362   0.90600   0.00000  Uiso   1.00
H1379  H     0.77537   0.66695   0.94604   0.00000  Uiso   1.00
H1380  H     0.73268   0.94540   0.98612   0.00000  Uiso   1.00
H1381  H     0.76930   0.90635   0.96008   0.00000  Uiso   1.00
H1382  H     0.80305   0.94335   0.99914   0.00000  Uiso   1.00
H1383  H     0.81929   0.70610   0.90255   0.00000  Uiso   1.00
H1384  H     0.89564   0.87635   0.96429   0.00000  Uiso   1.00
H1385  H     0.77009   0.79119   0.70224   0.00000  Uiso   1.00
H1386  H     0.80416   0.72092   0.71981   0.00000  Uiso   1.00
H1387  H     0.83075   0.67034   0.71073   0.00000  Uiso   1.00
H1388  H     0.90529   0.70093   0.67892   0.00000  Uiso   1.00
H1389  H     0.84467   0.71962   0.98237   0.00000  Uiso   1.00
H1390  H     0.88331   0.75256   0.69002   0.00000  Uiso   1.00
N1391  N     0.83332   0.83332   0.95240   0.00000  Uiso   1.00
N1392  N     0.83335   0.83334   0.71427   0.00000  Uiso   1.00
O1393  O     0.83333   0.77225   0.87154   0.00000  Uiso   1.00
O1394  O     0.82251   0.95930   0.91510   0.00000  Uiso   1.00
O1395  O     0.83334   0.89442   0.79513   0.00000  Uiso   1.00
O1396  O     0.83333   0.77226   0.79510   0.00000  Uiso   1.00
O1397  O     0.83334   0.89441   0.87157   0.00000  Uiso   1.00
O1398  O     0.75725   0.83333   0.86261   0.00000  Uiso   1.00
O1399  O     0.90942   0.83334   0.80405   0.00000  Uiso   1.00
O1400  O     0.75725   0.83334   0.78617   0.00000  Uiso   1.00
O1401  O     0.90942   0.83333   0.88050   0.00000  Uiso   1.00
O1402  O     0.87287   0.70753   0.76147   0.00000  Uiso   1.00
Zn1403 Zn    0.83333   0.83333   0.88437   0.00000  Uiso   1.00
Zn1404 Zn    0.83333   0.83334   0.78229   0.00000  Uiso   1.00
loop_
_geom_bond_atom_site_label_1
_geom_bond_atom_site_label_2
_geom_bond_distance
_geom_bond_site_symmetry_2
_ccdc_geom_bond_type
Br1    C72     1.942   .     S
Br2    C125    1.936   1_455 S
Br3    C9      1.910   .     S
Br4    C10     1.911   .     S
C5     C8      1.426   .     S
C5     O44     1.284   .     A
C5     O41     1.288   .     A
C6     H31     1.079   .     S
C6     C8      1.395   .     A
C6     C335    1.378   1_545 S
C7     C23     1.410   .     A
C7     C16     1.428   .     S
C7     C24     1.395   .     A
C8     C22     1.404   .     A
C9     N40     1.378   .     A
C9     C947    1.414   1_554 S
C10    N39     1.378   .     A
C10    C480    1.414   .     S
C11    N39     1.359   .     A
C11    H32     1.082   .     S
C11    C477    1.414   .     S
C12    N40     1.359   .     A
C12    H33     1.082   .     S
C12    C946    1.414   1_554 S
C13    H34     1.112   .     S
C13    C14     1.521   .     S
C13    H35     1.111   .     S
C13    O50     1.412   .     S
C14    H38     1.110   .     S
C14    H36     1.111   .     S
C14    H973    1.108   1_554 S
C15    C17     1.522   .     S
C15    H26     1.114   .     S
C15    O42     1.412   .     S
C15    H183    1.110   .     S
C16    O45     1.280   .     A
C16    O43     1.293   .     A
C17    H29     1.109   .     S
C17    H30     1.110   .     S
C17    H28     1.110   .     S
C18    O46     1.277   .     A
C18    C20     1.398   .     S
C18    O48     1.282   .     A
C19    O49     1.282   .     A
C19    C21     1.394   .     S
C19    O47     1.275   .     A
C20    Br105   1.942   1_455 S
C20    C125    1.339   1_455 S
C21    C72     1.339   .     S
C21    Br54    1.936   .     S
C22    O50     1.386   .     S
C22    C336    1.379   1_545 S
C23    O42     1.390   .     S
C23    C162    1.378   .     S
C24    H25     1.081   .     S
C24    C178    1.379   .     S
H27    C327    1.110   1_545 S
H37    C482    1.108   .     S
N39    Zn51    2.015   .     S
N40    Zn52    2.015   .     S
O41    Zn51    2.006   .     S
O43    Zn52    2.006   .     S
O44    Zn52    2.009   .     S
O45    Zn51    2.009   .     S
O46    Zn51    1.986   .     S
O47    Zn52    1.986   .     S
O48    Zn52    1.979   .     S
O49    Zn51    1.979   .     S
Br53   C124    1.942   .     S
Br55   C61     1.910   .     S
Br56   C62     1.911   .     S
C57    C60     1.426   .     S
C57    O96     1.284   .     A
C57    O93     1.288   .     A
C58    H83     1.079   .     S
C58    C60     1.395   .     A
C58    C387    1.378   1_545 S
C59    C75     1.410   .     A
C59    C68     1.428   .     S
C59    C76     1.395   .     A
C60    C74     1.404   .     A
C61    N92     1.378   .     A
C61    C999    1.414   1_554 S
C62    N91     1.378   .     A
C62    C532    1.414   .     S
C63    N91     1.359   .     A
C63    H84     1.082   .     S
C63    C529    1.414   .     S
C64    N92     1.359   .     A
C64    H85     1.082   .     S
C64    C998    1.414   1_554 S
C65    H86     1.112   .     S
C65    C66     1.521   .     S
C65    H87     1.111   .     S
C65    O102    1.412   .     S
C66    H90     1.110   .     S
C66    H88     1.111   .     S
C66    H1025   1.108   1_554 S
C67    C69     1.522   .     S
C67    H78     1.114   .     S
C67    O94     1.412   .     S
C67    H235    1.110   .     S
C68    O97     1.280   .     A
C68    O95     1.293   .     A
C69    H81     1.109   .     S
C69    H82     1.110   .     S
C69    H80     1.110   .     S
C70    O98     1.277   .     A
C70    C72     1.398   .     S
C70    O100    1.282   .     A
C71    O101    1.282   .     A
C71    C73     1.394   .     S
C71    O99     1.275   .     A
C73    C124    1.339   .     S
C73    Br106   1.936   .     S
C74    O102    1.386   .     S
C74    C388    1.379   1_545 S
C75    O94     1.390   .     S
C75    C214    1.378   .     S
C76    H77     1.081   .     S
C76    C230    1.379   .     S
H79    C379    1.110   1_545 S
H89    C534    1.108   .     S
N91    Zn103   2.015   .     S
N92    Zn104   2.015   .     S
O93    Zn103   2.006   .     S
O95    Zn104   2.006   .     S
O96    Zn104   2.009   .     S
O97    Zn103   2.009   .     S
O98    Zn103   1.986   .     S
O99    Zn104   1.986   .     S
O100   Zn104   1.979   .     S
O101   Zn103   1.979   .     S
Br105  C20     1.942   1_655 S
Br107  C113    1.910   .     S
Br108  C114    1.911   .     S
C109   C112    1.426   .     S
C109   O148    1.284   .     A
C109   O145    1.288   .     A
C110   H135    1.079   .     S
C110   C112    1.395   .     A
C110   C439    1.378   1_545 S
C111   C127    1.410   .     A
C111   C120    1.428   .     S
C111   C128    1.395   .     A
C112   C126    1.404   .     A
C113   N144    1.378   .     A
C113   C1051   1.414   1_554 S
C114   N143    1.378   .     A
C114   C584    1.414   .     S
C115   N143    1.359   .     A
C115   H136    1.082   .     S
C115   C581    1.414   .     S
C116   N144    1.359   .     A
C116   H137    1.082   .     S
C116   C1050   1.414   1_554 S
C117   H138    1.112   .     S
C117   C118    1.521   .     S
C117   H139    1.111   .     S
C117   O154    1.412   .     S
C118   H142    1.110   .     S
C118   H140    1.111   .     S
C118   H1077   1.108   1_554 S
C119   C121    1.522   .     S
C119   H130    1.114   .     S
C119   O146    1.412   .     S
C119   H287    1.110   .     S
C120   O149    1.280   .     A
C120   O147    1.293   .     A
C121   H133    1.109   .     S
C121   H134    1.110   .     S
C121   H132    1.110   .     S
C122   O150    1.277   .     A
C122   C124    1.398   .     S
C122   O152    1.282   .     A
C123   O153    1.282   .     A
C123   C125    1.394   .     S
C123   O151    1.275   .     A
C125   C20     1.339   1_655 S
C125   Br2     1.936   1_655 S
C126   O154    1.386   .     S
C126   C440    1.379   1_545 S
C127   O146    1.390   .     S
C127   C266    1.378   .     S
C128   H129    1.081   .     S
C128   C282    1.379   .     S
H131   C431    1.110   1_545 S
H141   C586    1.108   .     S
N143   Zn155   2.015   .     S
N144   Zn156   2.015   .     S
O145   Zn155   2.006   .     S
O147   Zn156   2.006   .     S
O148   Zn156   2.009   .     S
O149   Zn155   2.009   .     S
O150   Zn155   1.986   .     S
O151   Zn156   1.986   .     S
O152   Zn156   1.979   .     S
O153   Zn155   1.979   .     S
Br157  C228    1.942   .     S
Br158  C281    1.936   1_455 S
Br159  C165    1.910   .     S
Br160  C166    1.911   .     S
C161   C164    1.426   .     S
C161   O200    1.284   .     A
C161   O197    1.288   .     A
C162   H187    1.079   .     S
C162   C164    1.395   .     A
C163   C179    1.410   .     A
C163   C172    1.428   .     S
C163   C180    1.395   .     A
C164   C178    1.404   .     A
C165   N196    1.378   .     A
C165   C1103   1.414   1_554 S
C166   N195    1.378   .     A
C166   C636    1.414   .     S
C167   N195    1.359   .     A
C167   H188    1.082   .     S
C167   C633    1.414   .     S
C168   N196    1.359   .     A
C168   H189    1.082   .     S
C168   C1102   1.414   1_554 S
C169   H190    1.112   .     S
C169   C170    1.521   .     S
C169   H191    1.111   .     S
C169   O206    1.412   .     S
C170   H194    1.110   .     S
C170   H192    1.111   .     S
C170   H1129   1.108   1_554 S
C171   C173    1.522   .     S
C171   H182    1.114   .     S
C171   O198    1.412   .     S
C171   H339    1.110   .     S
C172   O201    1.280   .     A
C172   O199    1.293   .     A
C173   H185    1.109   .     S
C173   H186    1.110   .     S
C173   H184    1.110   .     S
C174   O202    1.277   .     A
C174   C176    1.398   .     S
C174   O204    1.282   .     A
C175   O205    1.282   .     A
C175   C177    1.394   .     S
C175   O203    1.275   .     A
C176   Br261   1.942   1_455 S
C176   C281    1.339   1_455 S
C177   C228    1.339   .     S
C177   Br210   1.936   .     S
C178   O206    1.386   .     S
C179   O198    1.390   .     S
C179   C318    1.378   .     S
C180   H181    1.081   .     S
C180   C334    1.379   .     S
H193   C638    1.108   .     S
N195   Zn207   2.015   .     S
N196   Zn208   2.015   .     S
O197   Zn207   2.006   .     S
O199   Zn208   2.006   .     S
O200   Zn208   2.009   .     S
O201   Zn207   2.009   .     S
O202   Zn207   1.986   .     S
O203   Zn208   1.986   .     S
O204   Zn208   1.979   .     S
O205   Zn207   1.979   .     S
Br209  C280    1.942   .     S
Br211  C217    1.910   .     S
Br212  C218    1.911   .     S
C213   C216    1.426   .     S
C213   O252    1.284   .     A
C213   O249    1.288   .     A
C214   H239    1.079   .     S
C214   C216    1.395   .     A
C215   C231    1.410   .     A
C215   C224    1.428   .     S
C215   C232    1.395   .     A
C216   C230    1.404   .     A
C217   N248    1.378   .     A
C217   C1155   1.414   1_554 S
C218   N247    1.378   .     A
C218   C688    1.414   .     S
C219   N247    1.359   .     A
C219   H240    1.082   .     S
C219   C685    1.414   .     S
C220   N248    1.359   .     A
C220   H241    1.082   .     S
C220   C1154   1.414   1_554 S
C221   H242    1.112   .     S
C221   C222    1.521   .     S
C221   H243    1.111   .     S
C221   O258    1.412   .     S
C222   H246    1.110   .     S
C222   H244    1.111   .     S
C222   H1181   1.108   1_554 S
C223   C225    1.522   .     S
C223   H234    1.114   .     S
C223   O250    1.412   .     S
C223   H391    1.110   .     S
C224   O253    1.280   .     A
C224   O251    1.293   .     A
C225   H237    1.109   .     S
C225   H238    1.110   .     S
C225   H236    1.110   .     S
C226   O254    1.277   .     A
C226   C228    1.398   .     S
C226   O256    1.282   .     A
C227   O257    1.282   .     A
C227   C229    1.394   .     S
C227   O255    1.275   .     A
C229   C280    1.339   .     S
C229   Br262   1.936   .     S
C230   O258    1.386   .     S
C231   O250    1.390   .     S
C231   C370    1.378   .     S
C232   H233    1.081   .     S
C232   C386    1.379   .     S
H245   C690    1.108   .     S
N247   Zn259   2.015   .     S
N248   Zn260   2.015   .     S
O249   Zn259   2.006   .     S
O251   Zn260   2.006   .     S
O252   Zn260   2.009   .     S
O253   Zn259   2.009   .     S
O254   Zn259   1.986   .     S
O255   Zn260   1.986   .     S
O256   Zn260   1.979   .     S
O257   Zn259   1.979   .     S
Br261  C176    1.942   1_655 S
Br263  C269    1.910   .     S
Br264  C270    1.911   .     S
C265   C268    1.426   .     S
C265   O304    1.284   .     A
C265   O301    1.288   .     A
C266   H291    1.079   .     S
C266   C268    1.395   .     A
C267   C283    1.410   .     A
C267   C276    1.428   .     S
C267   C284    1.395   .     A
C268   C282    1.404   .     A
C269   N300    1.378   .     A
C269   C1207   1.414   1_554 S
C270   N299    1.378   .     A
C270   C740    1.414   .     S
C271   N299    1.359   .     A
C271   H292    1.082   .     S
C271   C737    1.414   .     S
C272   N300    1.359   .     A
C272   H293    1.082   .     S
C272   C1206   1.414   1_554 S
C273   H294    1.112   .     S
C273   C274    1.521   .     S
C273   H295    1.111   .     S
C273   O310    1.412   .     S
C274   H298    1.110   .     S
C274   H296    1.111   .     S
C274   H1233   1.108   1_554 S
C275   C277    1.522   .     S
C275   H286    1.114   .     S
C275   O302    1.412   .     S
C275   H443    1.110   .     S
C276   O305    1.280   .     A
C276   O303    1.293   .     A
C277   H289    1.109   .     S
C277   H290    1.110   .     S
C277   H288    1.110   .     S
C278   O306    1.277   .     A
C278   C280    1.398   .     S
C278   O308    1.282   .     A
C279   O309    1.282   .     A
C279   C281    1.394   .     S
C279   O307    1.275   .     A
C281   C176    1.339   1_655 S
C281   Br158   1.936   1_655 S
C282   O310    1.386   .     S
C283   O302    1.390   .     S
C283   C422    1.378   .     S
C284   H285    1.081   .     S
C284   C438    1.379   .     S
H297   C742    1.108   .     S
N299   Zn311   2.015   .     S
N300   Zn312   2.015   .     S
O301   Zn311   2.006   .     S
O303   Zn312   2.006   .     S
O304   Zn312   2.009   .     S
O305   Zn311   2.009   .     S
O306   Zn311   1.986   .     S
O307   Zn312   1.986   .     S
O308   Zn312   1.979   .     S
O309   Zn311   1.979   .     S
Br313  C384    1.942   .     S
Br314  C437    1.936   1_455 S
Br315  C321    1.910   .     S
Br316  C322    1.911   .     S
C317   C320    1.426   .     S
C317   O356    1.284   .     A
C317   O353    1.288   .     A
C318   H343    1.079   .     S
C318   C320    1.395   .     A
C319   C335    1.410   .     A
C319   C328    1.428   .     S
C319   C336    1.395   .     A
C320   C334    1.404   .     A
C321   N352    1.378   .     A
C321   C1259   1.414   1_554 S
C322   N351    1.378   .     A
C322   C792    1.414   .     S
C323   N351    1.359   .     A
C323   H344    1.082   .     S
C323   C789    1.414   .     S
C324   N352    1.359   .     A
C324   H345    1.082   .     S
C324   C1258   1.414   1_554 S
C325   H346    1.112   .     S
C325   C326    1.521   .     S
C325   H347    1.111   .     S
C325   O362    1.412   .     S
C326   H350    1.110   .     S
C326   H348    1.111   .     S
C326   H1285   1.108   1_554 S
C327   C329    1.522   .     S
C327   H338    1.114   .     S
C327   O354    1.412   .     S
C327   H27     1.110   1_565 S
C328   O357    1.280   .     A
C328   O355    1.293   .     A
C329   H341    1.109   .     S
C329   H342    1.110   .     S
C329   H340    1.110   .     S
C330   O358    1.277   .     A
C330   C332    1.398   .     S
C330   O360    1.282   .     A
C331   O361    1.282   .     A
C331   C333    1.394   .     S
C331   O359    1.275   .     A
C332   Br417   1.942   1_455 S
C332   C437    1.339   1_455 S
C333   C384    1.339   .     S
C333   Br366   1.936   .     S
C334   O362    1.386   .     S
C335   O354    1.390   .     S
C335   C6      1.378   1_565 S
C336   H337    1.081   .     S
C336   C22     1.379   1_565 S
H349   C794    1.108   .     S
N351   Zn363   2.015   .     S
N352   Zn364   2.015   .     S
O353   Zn363   2.006   .     S
O355   Zn364   2.006   .     S
O356   Zn364   2.009   .     S
O357   Zn363   2.009   .     S
O358   Zn363   1.986   .     S
O359   Zn364   1.986   .     S
O360   Zn364   1.979   .     S
O361   Zn363   1.979   .     S
Br365  C436    1.942   .     S
Br367  C373    1.910   .     S
Br368  C374    1.911   .     S
C369   C372    1.426   .     S
C369   O408    1.284   .     A
C369   O405    1.288   .     A
C370   H395    1.079   .     S
C370   C372    1.395   .     A
C371   C387    1.410   .     A
C371   C380    1.428   .     S
C371   C388    1.395   .     A
C372   C386    1.404   .     A
C373   N404    1.378   .     A
C373   C1311   1.414   1_554 S
C374   N403    1.378   .     A
C374   C844    1.414   .     S
C375   N403    1.359   .     A
C375   H396    1.082   .     S
C375   C841    1.414   .     S
C376   N404    1.359   .     A
C376   H397    1.082   .     S
C376   C1310   1.414   1_554 S
C377   H398    1.112   .     S
C377   C378    1.521   .     S
C377   H399    1.111   .     S
C377   O414    1.412   .     S
C378   H402    1.110   .     S
C378   H400    1.111   .     S
C378   H1337   1.108   1_554 S
C379   C381    1.522   .     S
C379   H390    1.114   .     S
C379   O406    1.412   .     S
C379   H79     1.110   1_565 S
C380   O409    1.280   .     A
C380   O407    1.293   .     A
C381   H393    1.109   .     S
C381   H394    1.110   .     S
C381   H392    1.110   .     S
C382   O410    1.277   .     A
C382   C384    1.398   .     S
C382   O412    1.282   .     A
C383   O413    1.282   .     A
C383   C385    1.394   .     S
C383   O411    1.275   .     A
C385   C436    1.339   .     S
C385   Br418   1.936   .     S
C386   O414    1.386   .     S
C387   O406    1.390   .     S
C387   C58     1.378   1_565 S
C388   H389    1.081   .     S
C388   C74     1.379   1_565 S
H401   C846    1.108   .     S
N403   Zn415   2.015   .     S
N404   Zn416   2.015   .     S
O405   Zn415   2.006   .     S
O407   Zn416   2.006   .     S
O408   Zn416   2.009   .     S
O409   Zn415   2.009   .     S
O410   Zn415   1.986   .     S
O411   Zn416   1.986   .     S
O412   Zn416   1.979   .     S
O413   Zn415   1.979   .     S
Br417  C332    1.942   1_655 S
Br419  C425    1.910   .     S
Br420  C426    1.911   .     S
C421   C424    1.426   .     S
C421   O460    1.284   .     A
C421   O457    1.288   .     A
C422   H447    1.079   .     S
C422   C424    1.395   .     A
C423   C439    1.410   .     A
C423   C432    1.428   .     S
C423   C440    1.395   .     A
C424   C438    1.404   .     A
C425   N456    1.378   .     A
C425   C1363   1.414   1_554 S
C426   N455    1.378   .     A
C426   C896    1.414   .     S
C427   N455    1.359   .     A
C427   H448    1.082   .     S
C427   C893    1.414   .     S
C428   N456    1.359   .     A
C428   H449    1.082   .     S
C428   C1362   1.414   1_554 S
C429   H450    1.112   .     S
C429   C430    1.521   .     S
C429   H451    1.111   .     S
C429   O466    1.412   .     S
C430   H454    1.110   .     S
C430   H452    1.111   .     S
C430   H1389   1.108   1_554 S
C431   C433    1.522   .     S
C431   H442    1.114   .     S
C431   O458    1.412   .     S
C431   H131    1.110   1_565 S
C432   O461    1.280   .     A
C432   O459    1.293   .     A
C433   H445    1.109   .     S
C433   H446    1.110   .     S
C433   H444    1.110   .     S
C434   O462    1.277   .     A
C434   C436    1.398   .     S
C434   O464    1.282   .     A
C435   O465    1.282   .     A
C435   C437    1.394   .     S
C435   O463    1.275   .     A
C437   C332    1.339   1_655 S
C437   Br314   1.936   1_655 S
C438   O466    1.386   .     S
C439   O458    1.390   .     S
C439   C110    1.378   1_565 S
C440   H441    1.081   .     S
C440   C126    1.379   1_565 S
H453   C898    1.108   .     S
N455   Zn467   2.015   .     S
N456   Zn468   2.015   .     S
O457   Zn467   2.006   .     S
O459   Zn468   2.006   .     S
O460   Zn468   2.009   .     S
O461   Zn467   2.009   .     S
O462   Zn467   1.986   .     S
O463   Zn468   1.986   .     S
O464   Zn468   1.979   .     S
O465   Zn467   1.979   .     S
Br469  C540    1.942   .     S
Br470  C593    1.936   1_455 S
Br471  C477    1.910   .     S
Br472  C478    1.911   .     S
C473   C476    1.426   .     S
C473   O512    1.284   .     A
C473   O509    1.288   .     A
C474   H499    1.079   .     S
C474   C476    1.395   .     A
C474   C803    1.378   1_545 S
C475   C491    1.410   .     A
C475   C484    1.428   .     S
C475   C492    1.395   .     A
C476   C490    1.404   .     A
C477   N508    1.378   .     A
C478   N507    1.378   .     A
C478   C948    1.414   .     S
C479   N507    1.359   .     A
C479   H500    1.082   .     S
C479   C945    1.414   .     S
C480   N508    1.359   .     A
C480   H501    1.082   .     S
C481   H502    1.112   .     S
C481   C482    1.521   .     S
C481   H503    1.111   .     S
C481   O518    1.412   .     S
C482   H506    1.110   .     S
C482   H504    1.111   .     S
C483   C485    1.522   .     S
C483   H494    1.114   .     S
C483   O510    1.412   .     S
C483   H651    1.110   .     S
C484   O513    1.280   .     A
C484   O511    1.293   .     A
C485   H497    1.109   .     S
C485   H498    1.110   .     S
C485   H496    1.110   .     S
C486   O514    1.277   .     A
C486   C488    1.398   .     S
C486   O516    1.282   .     A
C487   O517    1.282   .     A
C487   C489    1.394   .     S
C487   O515    1.275   .     A
C488   Br573   1.942   1_455 S
C488   C593    1.339   1_455 S
C489   C540    1.339   .     S
C489   Br522   1.936   .     S
C490   O518    1.386   .     S
C490   C804    1.379   1_545 S
C491   O510    1.390   .     S
C491   C630    1.378   .     S
C492   H493    1.081   .     S
C492   C646    1.379   .     S
H495   C795    1.110   1_545 S
H505   C950    1.108   .     S
N507   Zn519   2.015   .     S
N508   Zn520   2.015   .     S
O509   Zn519   2.006   .     S
O511   Zn520   2.006   .     S
O512   Zn520   2.009   .     S
O513   Zn519   2.009   .     S
O514   Zn519   1.986   .     S
O515   Zn520   1.986   .     S
O516   Zn520   1.979   .     S
O517   Zn519   1.979   .     S
Br521  C592    1.942   .     S
Br523  C529    1.910   .     S
Br524  C530    1.911   .     S
C525   C528    1.426   .     S
C525   O564    1.284   .     A
C525   O561    1.288   .     A
C526   H551    1.079   .     S
C526   C528    1.395   .     A
C526   C855    1.378   1_545 S
C527   C543    1.410   .     A
C527   C536    1.428   .     S
C527   C544    1.395   .     A
C528   C542    1.404   .     A
C529   N560    1.378   .     A
C530   N559    1.378   .     A
C530   C1000   1.414   .     S
C531   N559    1.359   .     A
C531   H552    1.082   .     S
C531   C997    1.414   .     S
C532   N560    1.359   .     A
C532   H553    1.082   .     S
C533   H554    1.112   .     S
C533   C534    1.521   .     S
C533   H555    1.111   .     S
C533   O570    1.412   .     S
C534   H558    1.110   .     S
C534   H556    1.111   .     S
C535   C537    1.522   .     S
C535   H546    1.114   .     S
C535   O562    1.412   .     S
C535   H703    1.110   .     S
C536   O565    1.280   .     A
C536   O563    1.293   .     A
C537   H549    1.109   .     S
C537   H550    1.110   .     S
C537   H548    1.110   .     S
C538   O566    1.277   .     A
C538   C540    1.398   .     S
C538   O568    1.282   .     A
C539   O569    1.282   .     A
C539   C541    1.394   .     S
C539   O567    1.275   .     A
C541   C592    1.339   .     S
C541   Br574   1.936   .     S
C542   O570    1.386   .     S
C542   C856    1.379   1_545 S
C543   O562    1.390   .     S
C543   C682    1.378   .     S
C544   H545    1.081   .     S
C544   C698    1.379   .     S
H547   C847    1.110   1_545 S
H557   C1002   1.108   .     S
N559   Zn571   2.015   .     S
N560   Zn572   2.015   .     S
O561   Zn571   2.006   .     S
O563   Zn572   2.006   .     S
O564   Zn572   2.009   .     S
O565   Zn571   2.009   .     S
O566   Zn571   1.986   .     S
O567   Zn572   1.986   .     S
O568   Zn572   1.979   .     S
O569   Zn571   1.979   .     S
Br573  C488    1.942   1_655 S
Br575  C581    1.910   .     S
Br576  C582    1.911   .     S
C577   C580    1.426   .     S
C577   O616    1.284   .     A
C577   O613    1.288   .     A
C578   H603    1.079   .     S
C578   C580    1.395   .     A
C578   C907    1.378   1_545 S
C579   C595    1.410   .     A
C579   C588    1.428   .     S
C579   C596    1.395   .     A
C580   C594    1.404   .     A
C581   N612    1.378   .     A
C582   N611    1.378   .     A
C582   C1052   1.414   .     S
C583   N611    1.359   .     A
C583   H604    1.082   .     S
C583   C1049   1.414   .     S
C584   N612    1.359   .     A
C584   H605    1.082   .     S
C585   H606    1.112   .     S
C585   C586    1.521   .     S
C585   H607    1.111   .     S
C585   O622    1.412   .     S
C586   H610    1.110   .     S
C586   H608    1.111   .     S
C587   C589    1.522   .     S
C587   H598    1.114   .     S
C587   O614    1.412   .     S
C587   H755    1.110   .     S
C588   O617    1.280   .     A
C588   O615    1.293   .     A
C589   H601    1.109   .     S
C589   H602    1.110   .     S
C589   H600    1.110   .     S
C590   O618    1.277   .     A
C590   C592    1.398   .     S
C590   O620    1.282   .     A
C591   O621    1.282   .     A
C591   C593    1.394   .     S
C591   O619    1.275   .     A
C593   C488    1.339   1_655 S
C593   Br470   1.936   1_655 S
C594   O622    1.386   .     S
C594   C908    1.379   1_545 S
C595   O614    1.390   .     S
C595   C734    1.378   .     S
C596   H597    1.081   .     S
C596   C750    1.379   .     S
H599   C899    1.110   1_545 S
H609   C1054   1.108   .     S
N611   Zn623   2.015   .     S
N612   Zn624   2.015   .     S
O613   Zn623   2.006   .     S
O615   Zn624   2.006   .     S
O616   Zn624   2.009   .     S
O617   Zn623   2.009   .     S
O618   Zn623   1.986   .     S
O619   Zn624   1.986   .     S
O620   Zn624   1.979   .     S
O621   Zn623   1.979   .     S
Br625  C696    1.942   .     S
Br626  C749    1.936   1_455 S
Br627  C633    1.910   .     S
Br628  C634    1.911   .     S
C629   C632    1.426   .     S
C629   O668    1.284   .     A
C629   O665    1.288   .     A
C630   H655    1.079   .     S
C630   C632    1.395   .     A
C631   C647    1.410   .     A
C631   C640    1.428   .     S
C631   C648    1.395   .     A
C632   C646    1.404   .     A
C633   N664    1.378   .     A
C634   N663    1.378   .     A
C634   C1104   1.414   .     S
C635   N663    1.359   .     A
C635   H656    1.082   .     S
C635   C1101   1.414   .     S
C636   N664    1.359   .     A
C636   H657    1.082   .     S
C637   H658    1.112   .     S
C637   C638    1.521   .     S
C637   H659    1.111   .     S
C637   O674    1.412   .     S
C638   H662    1.110   .     S
C638   H660    1.111   .     S
C639   C641    1.522   .     S
C639   H650    1.114   .     S
C639   O666    1.412   .     S
C639   H807    1.110   .     S
C640   O669    1.280   .     A
C640   O667    1.293   .     A
C641   H653    1.109   .     S
C641   H654    1.110   .     S
C641   H652    1.110   .     S
C642   O670    1.277   .     A
C642   C644    1.398   .     S
C642   O672    1.282   .     A
C643   O673    1.282   .     A
C643   C645    1.394   .     S
C643   O671    1.275   .     A
C644   Br729   1.942   1_455 S
C644   C749    1.339   1_455 S
C645   C696    1.339   .     S
C645   Br678   1.936   .     S
C646   O674    1.386   .     S
C647   O666    1.390   .     S
C647   C786    1.378   .     S
C648   H649    1.081   .     S
C648   C802    1.379   .     S
H661   C1106   1.108   .     S
N663   Zn675   2.015   .     S
N664   Zn676   2.015   .     S
O665   Zn675   2.006   .     S
O667   Zn676   2.006   .     S
O668   Zn676   2.009   .     S
O669   Zn675   2.009   .     S
O670   Zn675   1.986   .     S
O671   Zn676   1.986   .     S
O672   Zn676   1.979   .     S
O673   Zn675   1.979   .     S
Br677  C748    1.942   .     S
Br679  C685    1.910   .     S
Br680  C686    1.911   .     S
C681   C684    1.426   .     S
C681   O720    1.284   .     A
C681   O717    1.288   .     A
C682   H707    1.079   .     S
C682   C684    1.395   .     A
C683   C699    1.410   .     A
C683   C692    1.428   .     S
C683   C700    1.395   .     A
C684   C698    1.404   .     A
C685   N716    1.378   .     A
C686   N715    1.378   .     A
C686   C1156   1.414   .     S
C687   N715    1.359   .     A
C687   H708    1.082   .     S
C687   C1153   1.414   .     S
C688   N716    1.359   .     A
C688   H709    1.082   .     S
C689   H710    1.112   .     S
C689   C690    1.521   .     S
C689   H711    1.111   .     S
C689   O726    1.412   .     S
C690   H714    1.110   .     S
C690   H712    1.111   .     S
C691   C693    1.522   .     S
C691   H702    1.114   .     S
C691   O718    1.412   .     S
C691   H859    1.110   .     S
C692   O721    1.280   .     A
C692   O719    1.293   .     A
C693   H705    1.109   .     S
C693   H706    1.110   .     S
C693   H704    1.110   .     S
C694   O722    1.277   .     A
C694   C696    1.398   .     S
C694   O724    1.282   .     A
C695   O725    1.282   .     A
C695   C697    1.394   .     S
C695   O723    1.275   .     A
C697   C748    1.339   .     S
C697   Br730   1.936   .     S
C698   O726    1.386   .     S
C699   O718    1.390   .     S
C699   C838    1.378   .     S
C700   H701    1.081   .     S
C700   C854    1.379   .     S
H713   C1158   1.108   .     S
N715   Zn727   2.015   .     S
N716   Zn728   2.015   .     S
O717   Zn727   2.006   .     S
O719   Zn728   2.006   .     S
O720   Zn728   2.009   .     S
O721   Zn727   2.009   .     S
O722   Zn727   1.986   .     S
O723   Zn728   1.986   .     S
O724   Zn728   1.979   .     S
O725   Zn727   1.979   .     S
Br729  C644    1.942   1_655 S
Br731  C737    1.910   .     S
Br732  C738    1.911   .     S
C733   C736    1.426   .     S
C733   O772    1.284   .     A
C733   O769    1.288   .     A
C734   H759    1.079   .     S
C734   C736    1.395   .     A
C735   C751    1.410   .     A
C735   C744    1.428   .     S
C735   C752    1.395   .     A
C736   C750    1.404   .     A
C737   N768    1.378   .     A
C738   N767    1.378   .     A
C738   C1208   1.414   .     S
C739   N767    1.359   .     A
C739   H760    1.082   .     S
C739   C1205   1.414   .     S
C740   N768    1.359   .     A
C740   H761    1.082   .     S
C741   H762    1.112   .     S
C741   C742    1.521   .     S
C741   H763    1.111   .     S
C741   O778    1.412   .     S
C742   H766    1.110   .     S
C742   H764    1.111   .     S
C743   C745    1.522   .     S
C743   H754    1.114   .     S
C743   O770    1.412   .     S
C743   H911    1.110   .     S
C744   O773    1.280   .     A
C744   O771    1.293   .     A
C745   H757    1.109   .     S
C745   H758    1.110   .     S
C745   H756    1.110   .     S
C746   O774    1.277   .     A
C746   C748    1.398   .     S
C746   O776    1.282   .     A
C747   O777    1.282   .     A
C747   C749    1.394   .     S
C747   O775    1.275   .     A
C749   C644    1.339   1_655 S
C749   Br626   1.936   1_655 S
C750   O778    1.386   .     S
C751   O770    1.390   .     S
C751   C890    1.378   .     S
C752   H753    1.081   .     S
C752   C906    1.379   .     S
H765   C1210   1.108   .     S
N767   Zn779   2.015   .     S
N768   Zn780   2.015   .     S
O769   Zn779   2.006   .     S
O771   Zn780   2.006   .     S
O772   Zn780   2.009   .     S
O773   Zn779   2.009   .     S
O774   Zn779   1.986   .     S
O775   Zn780   1.986   .     S
O776   Zn780   1.979   .     S
O777   Zn779   1.979   .     S
Br781  C852    1.942   .     S
Br782  C905    1.936   1_455 S
Br783  C789    1.910   .     S
Br784  C790    1.911   .     S
C785   C788    1.426   .     S
C785   O824    1.284   .     A
C785   O821    1.288   .     A
C786   H811    1.079   .     S
C786   C788    1.395   .     A
C787   C803    1.410   .     A
C787   C796    1.428   .     S
C787   C804    1.395   .     A
C788   C802    1.404   .     A
C789   N820    1.378   .     A
C790   N819    1.378   .     A
C790   C1260   1.414   .     S
C791   N819    1.359   .     A
C791   H812    1.082   .     S
C791   C1257   1.414   .     S
C792   N820    1.359   .     A
C792   H813    1.082   .     S
C793   H814    1.112   .     S
C793   C794    1.521   .     S
C793   H815    1.111   .     S
C793   O830    1.412   .     S
C794   H818    1.110   .     S
C794   H816    1.111   .     S
C795   C797    1.522   .     S
C795   H806    1.114   .     S
C795   O822    1.412   .     S
C795   H495    1.110   1_565 S
C796   O825    1.280   .     A
C796   O823    1.293   .     A
C797   H809    1.109   .     S
C797   H810    1.110   .     S
C797   H808    1.110   .     S
C798   O826    1.277   .     A
C798   C800    1.398   .     S
C798   O828    1.282   .     A
C799   O829    1.282   .     A
C799   C801    1.394   .     S
C799   O827    1.275   .     A
C800   Br885   1.942   1_455 S
C800   C905    1.339   1_455 S
C801   C852    1.339   .     S
C801   Br834   1.936   .     S
C802   O830    1.386   .     S
C803   O822    1.390   .     S
C803   C474    1.378   1_565 S
C804   H805    1.081   .     S
C804   C490    1.379   1_565 S
H817   C1262   1.108   .     S
N819   Zn831   2.015   .     S
N820   Zn832   2.015   .     S
O821   Zn831   2.006   .     S
O823   Zn832   2.006   .     S
O824   Zn832   2.009   .     S
O825   Zn831   2.009   .     S
O826   Zn831   1.986   .     S
O827   Zn832   1.986   .     S
O828   Zn832   1.979   .     S
O829   Zn831   1.979   .     S
Br833  C904    1.942   .     S
Br835  C841    1.910   .     S
Br836  C842    1.911   .     S
C837   C840    1.426   .     S
C837   O876    1.284   .     A
C837   O873    1.288   .     A
C838   H863    1.079   .     S
C838   C840    1.395   .     A
C839   C855    1.410   .     A
C839   C848    1.428   .     S
C839   C856    1.395   .     A
C840   C854    1.404   .     A
C841   N872    1.378   .     A
C842   N871    1.378   .     A
C842   C1312   1.414   .     S
C843   N871    1.359   .     A
C843   H864    1.082   .     S
C843   C1309   1.414   .     S
C844   N872    1.359   .     A
C844   H865    1.082   .     S
C845   H866    1.112   .     S
C845   C846    1.521   .     S
C845   H867    1.111   .     S
C845   O882    1.412   .     S
C846   H870    1.110   .     S
C846   H868    1.111   .     S
C847   C849    1.522   .     S
C847   H858    1.114   .     S
C847   O874    1.412   .     S
C847   H547    1.110   1_565 S
C848   O877    1.280   .     A
C848   O875    1.293   .     A
C849   H861    1.109   .     S
C849   H862    1.110   .     S
C849   H860    1.110   .     S
C850   O878    1.277   .     A
C850   C852    1.398   .     S
C850   O880    1.282   .     A
C851   O881    1.282   .     A
C851   C853    1.394   .     S
C851   O879    1.275   .     A
C853   C904    1.339   .     S
C853   Br886   1.936   .     S
C854   O882    1.386   .     S
C855   O874    1.390   .     S
C855   C526    1.378   1_565 S
C856   H857    1.081   .     S
C856   C542    1.379   1_565 S
H869   C1314   1.108   .     S
N871   Zn883   2.015   .     S
N872   Zn884   2.015   .     S
O873   Zn883   2.006   .     S
O875   Zn884   2.006   .     S
O876   Zn884   2.009   .     S
O877   Zn883   2.009   .     S
O878   Zn883   1.986   .     S
O879   Zn884   1.986   .     S
O880   Zn884   1.979   .     S
O881   Zn883   1.979   .     S
Br885  C800    1.942   1_655 S
Br887  C893    1.910   .     S
Br888  C894    1.911   .     S
C889   C892    1.426   .     S
C889   O928    1.284   .     A
C889   O925    1.288   .     A
C890   H915    1.079   .     S
C890   C892    1.395   .     A
C891   C907    1.410   .     A
C891   C900    1.428   .     S
C891   C908    1.395   .     A
C892   C906    1.404   .     A
C893   N924    1.378   .     A
C894   N923    1.378   .     A
C894   C1364   1.414   .     S
C895   N923    1.359   .     A
C895   H916    1.082   .     S
C895   C1361   1.414   .     S
C896   N924    1.359   .     A
C896   H917    1.082   .     S
C897   H918    1.112   .     S
C897   C898    1.521   .     S
C897   H919    1.111   .     S
C897   O934    1.412   .     S
C898   H922    1.110   .     S
C898   H920    1.111   .     S
C899   C901    1.522   .     S
C899   H910    1.114   .     S
C899   O926    1.412   .     S
C899   H599    1.110   1_565 S
C900   O929    1.280   .     A
C900   O927    1.293   .     A
C901   H913    1.109   .     S
C901   H914    1.110   .     S
C901   H912    1.110   .     S
C902   O930    1.277   .     A
C902   C904    1.398   .     S
C902   O932    1.282   .     A
C903   O933    1.282   .     A
C903   C905    1.394   .     S
C903   O931    1.275   .     A
C905   C800    1.339   1_655 S
C905   Br782   1.936   1_655 S
C906   O934    1.386   .     S
C907   O926    1.390   .     S
C907   C578    1.378   1_565 S
C908   H909    1.081   .     S
C908   C594    1.379   1_565 S
H921   C1366   1.108   .     S
N923   Zn935   2.015   .     S
N924   Zn936   2.015   .     S
O925   Zn935   2.006   .     S
O927   Zn936   2.006   .     S
O928   Zn936   2.009   .     S
O929   Zn935   2.009   .     S
O930   Zn935   1.986   .     S
O931   Zn936   1.986   .     S
O932   Zn936   1.979   .     S
O933   Zn935   1.979   .     S
Br937  C1008   1.942   .     S
Br938  C1061   1.936   1_455 S
Br939  C945    1.910   .     S
Br940  C946    1.911   .     S
C941   C944    1.426   .     S
C941   O980    1.284   .     A
C941   O977    1.288   .     A
C942   H967    1.079   .     S
C942   C944    1.395   .     A
C942   C1271   1.378   1_545 S
C943   C959    1.410   .     A
C943   C952    1.428   .     S
C943   C960    1.395   .     A
C944   C958    1.404   .     A
C945   N976    1.378   .     A
C946   N975    1.378   .     A
C946   C12     1.414   1_556 S
C947   N975    1.359   .     A
C947   H968    1.082   .     S
C947   C9      1.414   1_556 S
C948   N976    1.359   .     A
C948   H969    1.082   .     S
C949   H970    1.112   .     S
C949   C950    1.521   .     S
C949   H971    1.111   .     S
C949   O986    1.412   .     S
C950   H974    1.110   .     S
C950   H972    1.111   .     S
C951   C953    1.522   .     S
C951   H962    1.114   .     S
C951   O978    1.412   .     S
C951   H1119   1.110   .     S
C952   O981    1.280   .     A
C952   O979    1.293   .     A
C953   H965    1.109   .     S
C953   H966    1.110   .     S
C953   H964    1.110   .     S
C954   O982    1.277   .     A
C954   C956    1.398   .     S
C954   O984    1.282   .     A
C955   O985    1.282   .     A
C955   C957    1.394   .     S
C955   O983    1.275   .     A
C956   Br1041  1.942   1_455 S
C956   C1061   1.339   1_455 S
C957   C1008   1.339   .     S
C957   Br990   1.936   .     S
C958   O986    1.386   .     S
C958   C1272   1.379   1_545 S
C959   O978    1.390   .     S
C959   C1098   1.378   .     S
C960   H961    1.081   .     S
C960   C1114   1.379   .     S
H963   C1263   1.110   1_545 S
H973   C14     1.108   1_556 S
N975   Zn987   2.015   .     S
N976   Zn988   2.015   .     S
O977   Zn987   2.006   .     S
O979   Zn988   2.006   .     S
O980   Zn988   2.009   .     S
O981   Zn987   2.009   .     S
O982   Zn987   1.986   .     S
O983   Zn988   1.986   .     S
O984   Zn988   1.979   .     S
O985   Zn987   1.979   .     S
Br989  C1060   1.942   .     S
Br991  C997    1.910   .     S
Br992  C998    1.911   .     S
C993   C996    1.426   .     S
C993   O1032   1.284   .     A
C993   O1029   1.288   .     A
C994   H1019   1.079   .     S
C994   C996    1.395   .     A
C994   C1323   1.378   1_545 S
C995   C1011   1.410   .     A
C995   C1004   1.428   .     S
C995   C1012   1.395   .     A
C996   C1010   1.404   .     A
C997   N1028   1.378   .     A
C998   N1027   1.378   .     A
C998   C64     1.414   1_556 S
C999   N1027   1.359   .     A
C999   H1020   1.082   .     S
C999   C61     1.414   1_556 S
C1000  N1028   1.359   .     A
C1000  H1021   1.082   .     S
C1001  H1022   1.112   .     S
C1001  C1002   1.521   .     S
C1001  H1023   1.111   .     S
C1001  O1038   1.412   .     S
C1002  H1026   1.110   .     S
C1002  H1024   1.111   .     S
C1003  C1005   1.522   .     S
C1003  H1014   1.114   .     S
C1003  O1030   1.412   .     S
C1003  H1171   1.110   .     S
C1004  O1033   1.280   .     A
C1004  O1031   1.293   .     A
C1005  H1017   1.109   .     S
C1005  H1018   1.110   .     S
C1005  H1016   1.110   .     S
C1006  O1034   1.277   .     A
C1006  C1008   1.398   .     S
C1006  O1036   1.282   .     A
C1007  O1037   1.282   .     A
C1007  C1009   1.394   .     S
C1007  O1035   1.275   .     A
C1009  C1060   1.339   .     S
C1009  Br1042  1.936   .     S
C1010  O1038   1.386   .     S
C1010  C1324   1.379   1_545 S
C1011  O1030   1.390   .     S
C1011  C1150   1.378   .     S
C1012  H1013   1.081   .     S
C1012  C1166   1.379   .     S
H1015  C1315   1.110   1_545 S
H1025  C66     1.108   1_556 S
N1027  Zn1039  2.015   .     S
N1028  Zn1040  2.015   .     S
O1029  Zn1039  2.006   .     S
O1031  Zn1040  2.006   .     S
O1032  Zn1040  2.009   .     S
O1033  Zn1039  2.009   .     S
O1034  Zn1039  1.986   .     S
O1035  Zn1040  1.986   .     S
O1036  Zn1040  1.979   .     S
O1037  Zn1039  1.979   .     S
Br1041 C956    1.942   1_655 S
Br1043 C1049   1.910   .     S
Br1044 C1050   1.911   .     S
C1045  C1048   1.426   .     S
C1045  O1084   1.284   .     A
C1045  O1081   1.288   .     A
C1046  H1071   1.079   .     S
C1046  C1048   1.395   .     A
C1046  C1375   1.378   1_545 S
C1047  C1063   1.410   .     A
C1047  C1056   1.428   .     S
C1047  C1064   1.395   .     A
C1048  C1062   1.404   .     A
C1049  N1080   1.378   .     A
C1050  N1079   1.378   .     A
C1050  C116    1.414   1_556 S
C1051  N1079   1.359   .     A
C1051  H1072   1.082   .     S
C1051  C113    1.414   1_556 S
C1052  N1080   1.359   .     A
C1052  H1073   1.082   .     S
C1053  H1074   1.112   .     S
C1053  C1054   1.521   .     S
C1053  H1075   1.111   .     S
C1053  O1090   1.412   .     S
C1054  H1078   1.110   .     S
C1054  H1076   1.111   .     S
C1055  C1057   1.522   .     S
C1055  H1066   1.114   .     S
C1055  O1082   1.412   .     S
C1055  H1223   1.110   .     S
C1056  O1085   1.280   .     A
C1056  O1083   1.293   .     A
C1057  H1069   1.109   .     S
C1057  H1070   1.110   .     S
C1057  H1068   1.110   .     S
C1058  O1086   1.277   .     A
C1058  C1060   1.398   .     S
C1058  O1088   1.282   .     A
C1059  O1089   1.282   .     A
C1059  C1061   1.394   .     S
C1059  O1087   1.275   .     A
C1061  C956    1.339   1_655 S
C1061  Br938   1.936   1_655 S
C1062  O1090   1.386   .     S
C1062  C1376   1.379   1_545 S
C1063  O1082   1.390   .     S
C1063  C1202   1.378   .     S
C1064  H1065   1.081   .     S
C1064  C1218   1.379   .     S
H1067  C1367   1.110   1_545 S
H1077  C118    1.108   1_556 S
N1079  Zn1091  2.015   .     S
N1080  Zn1092  2.015   .     S
O1081  Zn1091  2.006   .     S
O1083  Zn1092  2.006   .     S
O1084  Zn1092  2.009   .     S
O1085  Zn1091  2.009   .     S
O1086  Zn1091  1.986   .     S
O1087  Zn1092  1.986   .     S
O1088  Zn1092  1.979   .     S
O1089  Zn1091  1.979   .     S
Br1093 C1164   1.942   .     S
Br1094 C1217   1.936   1_455 S
Br1095 C1101   1.910   .     S
Br1096 C1102   1.911   .     S
C1097  C1100   1.426   .     S
C1097  O1136   1.284   .     A
C1097  O1133   1.288   .     A
C1098  H1123   1.079   .     S
C1098  C1100   1.395   .     A
C1099  C1115   1.410   .     A
C1099  C1108   1.428   .     S
C1099  C1116   1.395   .     A
C1100  C1114   1.404   .     A
C1101  N1132   1.378   .     A
C1102  N1131   1.378   .     A
C1102  C168    1.414   1_556 S
C1103  N1131   1.359   .     A
C1103  H1124   1.082   .     S
C1103  C165    1.414   1_556 S
C1104  N1132   1.359   .     A
C1104  H1125   1.082   .     S
C1105  H1126   1.112   .     S
C1105  C1106   1.521   .     S
C1105  H1127   1.111   .     S
C1105  O1142   1.412   .     S
C1106  H1130   1.110   .     S
C1106  H1128   1.111   .     S
C1107  C1109   1.522   .     S
C1107  H1118   1.114   .     S
C1107  O1134   1.412   .     S
C1107  H1275   1.110   .     S
C1108  O1137   1.280   .     A
C1108  O1135   1.293   .     A
C1109  H1121   1.109   .     S
C1109  H1122   1.110   .     S
C1109  H1120   1.110   .     S
C1110  O1138   1.277   .     A
C1110  C1112   1.398   .     S
C1110  O1140   1.282   .     A
C1111  O1141   1.282   .     A
C1111  C1113   1.394   .     S
C1111  O1139   1.275   .     A
C1112  Br1197  1.942   1_455 S
C1112  C1217   1.339   1_455 S
C1113  C1164   1.339   .     S
C1113  Br1146  1.936   .     S
C1114  O1142   1.386   .     S
C1115  O1134   1.390   .     S
C1115  C1254   1.378   .     S
C1116  H1117   1.081   .     S
C1116  C1270   1.379   .     S
H1129  C170    1.108   1_556 S
N1131  Zn1143  2.015   .     S
N1132  Zn1144  2.015   .     S
O1133  Zn1143  2.006   .     S
O1135  Zn1144  2.006   .     S
O1136  Zn1144  2.009   .     S
O1137  Zn1143  2.009   .     S
O1138  Zn1143  1.986   .     S
O1139  Zn1144  1.986   .     S
O1140  Zn1144  1.979   .     S
O1141  Zn1143  1.979   .     S
Br1145 C1216   1.942   .     S
Br1147 C1153   1.910   .     S
Br1148 C1154   1.911   .     S
C1149  C1152   1.426   .     S
C1149  O1188   1.284   .     A
C1149  O1185   1.288   .     A
C1150  H1175   1.079   .     S
C1150  C1152   1.395   .     A
C1151  C1167   1.410   .     A
C1151  C1160   1.428   .     S
C1151  C1168   1.395   .     A
C1152  C1166   1.404   .     A
C1153  N1184   1.378   .     A
C1154  N1183   1.378   .     A
C1154  C220    1.414   1_556 S
C1155  N1183   1.359   .     A
C1155  H1176   1.082   .     S
C1155  C217    1.414   1_556 S
C1156  N1184   1.359   .     A
C1156  H1177   1.082   .     S
C1157  H1178   1.112   .     S
C1157  C1158   1.521   .     S
C1157  H1179   1.111   .     S
C1157  O1194   1.412   .     S
C1158  H1182   1.110   .     S
C1158  H1180   1.111   .     S
C1159  C1161   1.522   .     S
C1159  H1170   1.114   .     S
C1159  O1186   1.412   .     S
C1159  H1327   1.110   .     S
C1160  O1189   1.280   .     A
C1160  O1187   1.293   .     A
C1161  H1173   1.109   .     S
C1161  H1174   1.110   .     S
C1161  H1172   1.110   .     S
C1162  O1190   1.277   .     A
C1162  C1164   1.398   .     S
C1162  O1192   1.282   .     A
C1163  O1193   1.282   .     A
C1163  C1165   1.394   .     S
C1163  O1191   1.275   .     A
C1165  C1216   1.339   .     S
C1165  Br1198  1.936   .     S
C1166  O1194   1.386   .     S
C1167  O1186   1.390   .     S
C1167  C1306   1.378   .     S
C1168  H1169   1.081   .     S
C1168  C1322   1.379   .     S
H1181  C222    1.108   1_556 S
N1183  Zn1195  2.015   .     S
N1184  Zn1196  2.015   .     S
O1185  Zn1195  2.006   .     S
O1187  Zn1196  2.006   .     S
O1188  Zn1196  2.009   .     S
O1189  Zn1195  2.009   .     S
O1190  Zn1195  1.986   .     S
O1191  Zn1196  1.986   .     S
O1192  Zn1196  1.979   .     S
O1193  Zn1195  1.979   .     S
Br1197 C1112   1.942   1_655 S
Br1199 C1205   1.910   .     S
Br1200 C1206   1.911   .     S
C1201  C1204   1.426   .     S
C1201  O1240   1.284   .     A
C1201  O1237   1.288   .     A
C1202  H1227   1.079   .     S
C1202  C1204   1.395   .     A
C1203  C1219   1.410   .     A
C1203  C1212   1.428   .     S
C1203  C1220   1.395   .     A
C1204  C1218   1.404   .     A
C1205  N1236   1.378   .     A
C1206  N1235   1.378   .     A
C1206  C272    1.414   1_556 S
C1207  N1235   1.359   .     A
C1207  H1228   1.082   .     S
C1207  C269    1.414   1_556 S
C1208  N1236   1.359   .     A
C1208  H1229   1.082   .     S
C1209  H1230   1.112   .     S
C1209  C1210   1.521   .     S
C1209  H1231   1.111   .     S
C1209  O1246   1.412   .     S
C1210  H1234   1.110   .     S
C1210  H1232   1.111   .     S
C1211  C1213   1.522   .     S
C1211  H1222   1.114   .     S
C1211  O1238   1.412   .     S
C1211  H1379   1.110   .     S
C1212  O1241   1.280   .     A
C1212  O1239   1.293   .     A
C1213  H1225   1.109   .     S
C1213  H1226   1.110   .     S
C1213  H1224   1.110   .     S
C1214  O1242   1.277   .     A
C1214  C1216   1.398   .     S
C1214  O1244   1.282   .     A
C1215  O1245   1.282   .     A
C1215  C1217   1.394   .     S
C1215  O1243   1.275   .     A
C1217  C1112   1.339   1_655 S
C1217  Br1094  1.936   1_655 S
C1218  O1246   1.386   .     S
C1219  O1238   1.390   .     S
C1219  C1358   1.378   .     S
C1220  H1221   1.081   .     S
C1220  C1374   1.379   .     S
H1233  C274    1.108   1_556 S
N1235  Zn1247  2.015   .     S
N1236  Zn1248  2.015   .     S
O1237  Zn1247  2.006   .     S
O1239  Zn1248  2.006   .     S
O1240  Zn1248  2.009   .     S
O1241  Zn1247  2.009   .     S
O1242  Zn1247  1.986   .     S
O1243  Zn1248  1.986   .     S
O1244  Zn1248  1.979   .     S
O1245  Zn1247  1.979   .     S
Br1249 C1320   1.942   .     S
Br1250 C1373   1.936   1_455 S
Br1251 C1257   1.910   .     S
Br1252 C1258   1.911   .     S
C1253  C1256   1.426   .     S
C1253  O1292   1.284   .     A
C1253  O1289   1.288   .     A
C1254  H1279   1.079   .     S
C1254  C1256   1.395   .     A
C1255  C1271   1.410   .     A
C1255  C1264   1.428   .     S
C1255  C1272   1.395   .     A
C1256  C1270   1.404   .     A
C1257  N1288   1.378   .     A
C1258  N1287   1.378   .     A
C1258  C324    1.414   1_556 S
C1259  N1287   1.359   .     A
C1259  H1280   1.082   .     S
C1259  C321    1.414   1_556 S
C1260  N1288   1.359   .     A
C1260  H1281   1.082   .     S
C1261  H1282   1.112   .     S
C1261  C1262   1.521   .     S
C1261  H1283   1.111   .     S
C1261  O1298   1.412   .     S
C1262  H1286   1.110   .     S
C1262  H1284   1.111   .     S
C1263  C1265   1.522   .     S
C1263  H1274   1.114   .     S
C1263  O1290   1.412   .     S
C1263  H963    1.110   1_565 S
C1264  O1293   1.280   .     A
C1264  O1291   1.293   .     A
C1265  H1277   1.109   .     S
C1265  H1278   1.110   .     S
C1265  H1276   1.110   .     S
C1266  O1294   1.277   .     A
C1266  C1268   1.398   .     S
C1266  O1296   1.282   .     A
C1267  O1297   1.282   .     A
C1267  C1269   1.394   .     S
C1267  O1295   1.275   .     A
C1268  Br1353  1.942   1_455 S
C1268  C1373   1.339   1_455 S
C1269  C1320   1.339   .     S
C1269  Br1302  1.936   .     S
C1270  O1298   1.386   .     S
C1271  O1290   1.390   .     S
C1271  C942    1.378   1_565 S
C1272  H1273   1.081   .     S
C1272  C958    1.379   1_565 S
H1285  C326    1.108   1_556 S
N1287  Zn1299  2.015   .     S
N1288  Zn1300  2.015   .     S
O1289  Zn1299  2.006   .     S
O1291  Zn1300  2.006   .     S
O1292  Zn1300  2.009   .     S
O1293  Zn1299  2.009   .     S
O1294  Zn1299  1.986   .     S
O1295  Zn1300  1.986   .     S
O1296  Zn1300  1.979   .     S
O1297  Zn1299  1.979   .     S
Br1301 C1372   1.942   .     S
Br1303 C1309   1.910   .     S
Br1304 C1310   1.911   .     S
C1305  C1308   1.426   .     S
C1305  O1344   1.284   .     A
C1305  O1341   1.288   .     A
C1306  H1331   1.079   .     S
C1306  C1308   1.395   .     A
C1307  C1323   1.410   .     A
C1307  C1316   1.428   .     S
C1307  C1324   1.395   .     A
C1308  C1322   1.404   .     A
C1309  N1340   1.378   .     A
C1310  N1339   1.378   .     A
C1310  C376    1.414   1_556 S
C1311  N1339   1.359   .     A
C1311  H1332   1.082   .     S
C1311  C373    1.414   1_556 S
C1312  N1340   1.359   .     A
C1312  H1333   1.082   .     S
C1313  H1334   1.112   .     S
C1313  C1314   1.521   .     S
C1313  H1335   1.111   .     S
C1313  O1350   1.412   .     S
C1314  H1338   1.110   .     S
C1314  H1336   1.111   .     S
C1315  C1317   1.522   .     S
C1315  H1326   1.114   .     S
C1315  O1342   1.412   .     S
C1315  H1015   1.110   1_565 S
C1316  O1345   1.280   .     A
C1316  O1343   1.293   .     A
C1317  H1329   1.109   .     S
C1317  H1330   1.110   .     S
C1317  H1328   1.110   .     S
C1318  O1346   1.277   .     A
C1318  C1320   1.398   .     S
C1318  O1348   1.282   .     A
C1319  O1349   1.282   .     A
C1319  C1321   1.394   .     S
C1319  O1347   1.275   .     A
C1321  C1372   1.339   .     S
C1321  Br1354  1.936   .     S
C1322  O1350   1.386   .     S
C1323  O1342   1.390   .     S
C1323  C994    1.378   1_565 S
C1324  H1325   1.081   .     S
C1324  C1010   1.379   1_565 S
H1337  C378    1.108   1_556 S
N1339  Zn1351  2.015   .     S
N1340  Zn1352  2.015   .     S
O1341  Zn1351  2.006   .     S
O1343  Zn1352  2.006   .     S
O1344  Zn1352  2.009   .     S
O1345  Zn1351  2.009   .     S
O1346  Zn1351  1.986   .     S
O1347  Zn1352  1.986   .     S
O1348  Zn1352  1.979   .     S
O1349  Zn1351  1.979   .     S
Br1353 C1268   1.942   1_655 S
Br1355 C1361   1.910   .     S
Br1356 C1362   1.911   .     S
C1357  C1360   1.426   .     S
C1357  O1396   1.284   .     A
C1357  O1393   1.288   .     A
C1358  H1383   1.079   .     S
C1358  C1360   1.395   .     A
C1359  C1375   1.410   .     A
C1359  C1368   1.428   .     S
C1359  C1376   1.395   .     A
C1360  C1374   1.404   .     A
C1361  N1392   1.378   .     A
C1362  N1391   1.378   .     A
C1362  C428    1.414   1_556 S
C1363  N1391   1.359   .     A
C1363  H1384   1.082   .     S
C1363  C425    1.414   1_556 S
C1364  N1392   1.359   .     A
C1364  H1385   1.082   .     S
C1365  H1386   1.112   .     S
C1365  C1366   1.521   .     S
C1365  H1387   1.111   .     S
C1365  O1402   1.412   .     S
C1366  H1390   1.110   .     S
C1366  H1388   1.111   .     S
C1367  C1369   1.522   .     S
C1367  H1378   1.114   .     S
C1367  O1394   1.412   .     S
C1367  H1067   1.110   1_565 S
C1368  O1397   1.280   .     A
C1368  O1395   1.293   .     A
C1369  H1381   1.109   .     S
C1369  H1382   1.110   .     S
C1369  H1380   1.110   .     S
C1370  O1398   1.277   .     A
C1370  C1372   1.398   .     S
C1370  O1400   1.282   .     A
C1371  O1401   1.282   .     A
C1371  C1373   1.394   .     S
C1371  O1399   1.275   .     A
C1373  C1268   1.339   1_655 S
C1373  Br1250  1.936   1_655 S
C1374  O1402   1.386   .     S
C1375  O1394   1.390   .     S
C1375  C1046   1.378   1_565 S
C1376  H1377   1.081   .     S
C1376  C1062   1.379   1_565 S
H1389  C430    1.108   1_556 S
N1391  Zn1403  2.015   .     S
N1392  Zn1404  2.015   .     S
O1393  Zn1403  2.006   .     S
O1395  Zn1404  2.006   .     S
O1396  Zn1404  2.009   .     S
O1397  Zn1403  2.009   .     S
O1398  Zn1403  1.986   .     S
O1399  Zn1404  1.986   .     S
O1400  Zn1404  1.979   .     S
O1401  Zn1403  1.979   .     S
