data_str_m2_o1_o16_pcu_sym.102
_audit_creation_date              2020-01-03
_audit_creation_method            'Materials Studio'
_symmetry_space_group_name_H-M    'P1'
_symmetry_Int_Tables_number       1
_symmetry_cell_setting            triclinic
loop_
_symmetry_equiv_pos_as_xyz
  x,y,z
_cell_length_a                    28.5327
_cell_length_b                    32.5016
_cell_length_c                    27.0107
_cell_angle_alpha                 90.2034
_cell_angle_beta                  72.4303
_cell_angle_gamma                 90.0492
loop_
_atom_site_label
_atom_site_type_symbol
_atom_site_fract_x
_atom_site_fract_y
_atom_site_fract_z
_atom_site_U_iso_or_equiv
_atom_site_adp_type
_atom_site_occupancy
C1     C     0.16666   0.24598   0.25010   0.00000  Uiso   1.00
C2     C     0.12462   0.16719   0.40749   0.00000  Uiso   1.00
C3     C     0.20902   0.31209   0.25088   0.00000  Uiso   1.00
C4     C     0.14036   0.16530   0.35015   0.00000  Uiso   1.00
C5     C     0.20901   0.02133   0.25083   0.00000  Uiso   1.00
C6     C     0.16662   0.04274   0.25011   0.00000  Uiso   1.00
C7     C     0.12421   0.02124   0.24951   0.00000  Uiso   1.00
C8     C     0.12421   0.31201   0.24957   0.00000  Uiso   1.00
C9     C     0.16663   0.29060   0.25020   0.00000  Uiso   1.00
C10    C     0.29928   0.19190   0.28283   0.00000  Uiso   1.00
C11    C     0.01554   0.19180   0.28284   0.00000  Uiso   1.00
C12    C     0.14761   0.17167   0.48804   0.00000  Uiso   1.00
C13    C     0.03414   0.14150   0.21714   0.00000  Uiso   1.00
C14    C     0.31784   0.14150   0.21716   0.00000  Uiso   1.00
C15    C     0.16664   0.08735   0.25001   0.00000  Uiso   1.00
C16    C     0.19293   0.16631   0.15004   0.00000  Uiso   1.00
C17    C     0.26635   0.14324   0.01199   0.00000  Uiso   1.00
C18    C     0.20803   0.16365   0.09332   0.00000  Uiso   1.00
C19    C     0.07867   0.18478   0.43337   0.00000  Uiso   1.00
C20    C     0.06845   0.19803   0.48433   0.00000  Uiso   1.00
C21    C     0.10327   0.19400   0.01056   0.00000  Uiso   1.00
C22    C     0.15777   0.15763   0.43597   0.00000  Uiso   1.00
C23    C     0.18301   0.16385   0.01456   0.00000  Uiso   1.00
C24    C     0.22974   0.14723   0.48726   0.00000  Uiso   1.00
C25    C     0.23800   0.13226   0.43697   0.00000  Uiso   1.00
C26    C     0.20124   0.13489   0.41332   0.00000  Uiso   1.00
C27    C     0.17233   0.16938   0.06820   0.00000  Uiso   1.00
C28    C     0.25578   0.15222   0.06467   0.00000  Uiso   1.00
Cu29   Cu    0.11978   0.16666   0.25000   0.00000  Uiso   1.00
Cu30   Cu    0.21355   0.16667   0.25000   0.00000  Uiso   1.00
F31    F     0.26680   0.21744   0.31573   0.00000  Uiso   1.00
F32    F     0.28071   0.11287   0.41156   0.00000  Uiso   1.00
F33    F     0.04502   0.19265   0.40821   0.00000  Uiso   1.00
F34    F     0.09423   0.21530   0.05571   0.00000  Uiso   1.00
F35    F     0.02565   0.21809   0.00733   0.00000  Uiso   1.00
H36    H     0.24216   0.03737   0.25135   0.00000  Uiso   1.00
H37    H     0.09106   0.29597   0.24907   0.00000  Uiso   1.00
H38    H     0.02689   0.21194   0.30907   0.00000  Uiso   1.00
H39    H     0.06032   0.12130   0.19085   0.00000  Uiso   1.00
H40    H     0.30657   0.12136   0.19087   0.00000  Uiso   1.00
H41    H     0.30264   0.13182   0.49114   0.00000  Uiso   1.00
H42    H     0.13529   0.17504   0.09195   0.00000  Uiso   1.00
H43    H     0.20760   0.11865   0.37693   0.00000  Uiso   1.00
H44    H     0.24216   0.29611   0.25144   0.00000  Uiso   1.00
H45    H     0.28394   0.14767   0.08349   0.00000  Uiso   1.00
H46    H     0.09107   0.03722   0.24895   0.00000  Uiso   1.00
N47    N     0.04931   0.16666   0.24999   0.00000  Uiso   1.00
N48    N     0.28402   0.16669   0.25000   0.00000  Uiso   1.00
O49    O     0.12708   0.22678   0.25001   0.00000  Uiso   1.00
O50    O     0.20627   0.22679   0.25001   0.00000  Uiso   1.00
O51    O     0.10775   0.16665   0.32549   0.00000  Uiso   1.00
O52    O     0.18694   0.16666   0.32549   0.00000  Uiso   1.00
O53    O     0.12706   0.10654   0.25000   0.00000  Uiso   1.00
O54    O     0.20625   0.10655   0.25000   0.00000  Uiso   1.00
O55    O     0.14640   0.16667   0.17451   0.00000  Uiso   1.00
O56    O     0.22559   0.16668   0.17451   0.00000  Uiso   1.00
C57    C     0.49999   0.24598   0.25010   0.00000  Uiso   1.00
C58    C     0.45795   0.16719   0.40749   0.00000  Uiso   1.00
C59    C     0.54235   0.31209   0.25088   0.00000  Uiso   1.00
C60    C     0.47370   0.16530   0.35015   0.00000  Uiso   1.00
C61    C     0.54235   0.02133   0.25083   0.00000  Uiso   1.00
C62    C     0.49995   0.04274   0.25011   0.00000  Uiso   1.00
C63    C     0.45755   0.02124   0.24951   0.00000  Uiso   1.00
C64    C     0.45755   0.31201   0.24957   0.00000  Uiso   1.00
C65    C     0.49996   0.29060   0.25020   0.00000  Uiso   1.00
C66    C     0.63261   0.19190   0.28283   0.00000  Uiso   1.00
C67    C     0.34888   0.19180   0.28284   0.00000  Uiso   1.00
C68    C     0.48094   0.17167   0.48804   0.00000  Uiso   1.00
C69    C     0.36747   0.14150   0.21714   0.00000  Uiso   1.00
C70    C     0.65117   0.14150   0.21716   0.00000  Uiso   1.00
C71    C     0.49997   0.08735   0.25001   0.00000  Uiso   1.00
C72    C     0.52627   0.16631   0.15004   0.00000  Uiso   1.00
C73    C     0.59969   0.14324   0.01199   0.00000  Uiso   1.00
C74    C     0.54136   0.16365   0.09332   0.00000  Uiso   1.00
C75    C     0.41201   0.18478   0.43337   0.00000  Uiso   1.00
C76    C     0.40178   0.19803   0.48433   0.00000  Uiso   1.00
C77    C     0.43660   0.19400   0.01056   0.00000  Uiso   1.00
C78    C     0.49111   0.15763   0.43597   0.00000  Uiso   1.00
C79    C     0.51634   0.16385   0.01456   0.00000  Uiso   1.00
C80    C     0.56307   0.14723   0.48726   0.00000  Uiso   1.00
C81    C     0.57133   0.13226   0.43697   0.00000  Uiso   1.00
C82    C     0.53457   0.13489   0.41332   0.00000  Uiso   1.00
C83    C     0.50567   0.16938   0.06820   0.00000  Uiso   1.00
C84    C     0.58911   0.15222   0.06467   0.00000  Uiso   1.00
Cu85   Cu    0.45311   0.16666   0.25000   0.00000  Uiso   1.00
Cu86   Cu    0.54689   0.16667   0.25000   0.00000  Uiso   1.00
F87    F     0.60014   0.21744   0.31573   0.00000  Uiso   1.00
F88    F     0.61404   0.11287   0.41156   0.00000  Uiso   1.00
F89    F     0.37835   0.19265   0.40821   0.00000  Uiso   1.00
F90    F     0.42757   0.21530   0.05571   0.00000  Uiso   1.00
F91    F     0.35899   0.21809   0.00733   0.00000  Uiso   1.00
H92    H     0.57549   0.03737   0.25135   0.00000  Uiso   1.00
H93    H     0.42440   0.29597   0.24907   0.00000  Uiso   1.00
H94    H     0.36023   0.21194   0.30907   0.00000  Uiso   1.00
H95    H     0.39365   0.12130   0.19085   0.00000  Uiso   1.00
H96    H     0.63990   0.12136   0.19087   0.00000  Uiso   1.00
H97    H     0.63598   0.13182   0.49114   0.00000  Uiso   1.00
H98    H     0.46862   0.17504   0.09195   0.00000  Uiso   1.00
H99    H     0.54094   0.11865   0.37693   0.00000  Uiso   1.00
H100   H     0.57549   0.29611   0.25144   0.00000  Uiso   1.00
H101   H     0.61727   0.14767   0.08349   0.00000  Uiso   1.00
H102   H     0.42441   0.03722   0.24895   0.00000  Uiso   1.00
N103   N     0.38265   0.16666   0.24999   0.00000  Uiso   1.00
N104   N     0.61735   0.16669   0.25000   0.00000  Uiso   1.00
O105   O     0.46042   0.22678   0.25001   0.00000  Uiso   1.00
O106   O     0.53961   0.22679   0.25001   0.00000  Uiso   1.00
O107   O     0.44108   0.16665   0.32549   0.00000  Uiso   1.00
O108   O     0.52027   0.16666   0.32549   0.00000  Uiso   1.00
O109   O     0.46039   0.10654   0.25000   0.00000  Uiso   1.00
O110   O     0.53958   0.10655   0.25000   0.00000  Uiso   1.00
O111   O     0.47973   0.16667   0.17451   0.00000  Uiso   1.00
O112   O     0.55892   0.16668   0.17451   0.00000  Uiso   1.00
C113   C     0.83333   0.24598   0.25010   0.00000  Uiso   1.00
C114   C     0.79129   0.16719   0.40749   0.00000  Uiso   1.00
C115   C     0.87568   0.31209   0.25088   0.00000  Uiso   1.00
C116   C     0.80703   0.16530   0.35015   0.00000  Uiso   1.00
C117   C     0.87568   0.02133   0.25083   0.00000  Uiso   1.00
C118   C     0.83329   0.04274   0.25011   0.00000  Uiso   1.00
C119   C     0.79088   0.02124   0.24951   0.00000  Uiso   1.00
C120   C     0.79088   0.31201   0.24957   0.00000  Uiso   1.00
C121   C     0.83330   0.29060   0.25020   0.00000  Uiso   1.00
C122   C     0.96595   0.19190   0.28283   0.00000  Uiso   1.00
C123   C     0.68221   0.19180   0.28284   0.00000  Uiso   1.00
C124   C     0.81428   0.17167   0.48804   0.00000  Uiso   1.00
C125   C     0.70080   0.14150   0.21714   0.00000  Uiso   1.00
C126   C     0.98450   0.14150   0.21716   0.00000  Uiso   1.00
C127   C     0.83331   0.08735   0.25001   0.00000  Uiso   1.00
C128   C     0.85960   0.16631   0.15004   0.00000  Uiso   1.00
C129   C     0.93302   0.14324   0.01199   0.00000  Uiso   1.00
C130   C     0.87470   0.16365   0.09332   0.00000  Uiso   1.00
C131   C     0.74534   0.18478   0.43337   0.00000  Uiso   1.00
C132   C     0.73511   0.19803   0.48433   0.00000  Uiso   1.00
C133   C     0.76994   0.19400   0.01056   0.00000  Uiso   1.00
C134   C     0.82444   0.15763   0.43597   0.00000  Uiso   1.00
C135   C     0.84967   0.16385   0.01456   0.00000  Uiso   1.00
C136   C     0.89640   0.14723   0.48726   0.00000  Uiso   1.00
C137   C     0.90467   0.13226   0.43697   0.00000  Uiso   1.00
C138   C     0.86790   0.13489   0.41332   0.00000  Uiso   1.00
C139   C     0.83900   0.16938   0.06820   0.00000  Uiso   1.00
C140   C     0.92245   0.15222   0.06467   0.00000  Uiso   1.00
Cu141  Cu    0.78645   0.16666   0.25000   0.00000  Uiso   1.00
Cu142  Cu    0.88022   0.16667   0.25000   0.00000  Uiso   1.00
F143   F     0.93347   0.21744   0.31573   0.00000  Uiso   1.00
F144   F     0.94737   0.11287   0.41156   0.00000  Uiso   1.00
F145   F     0.71168   0.19265   0.40821   0.00000  Uiso   1.00
F146   F     0.76090   0.21530   0.05571   0.00000  Uiso   1.00
F147   F     0.69232   0.21809   0.00733   0.00000  Uiso   1.00
H148   H     0.90882   0.03737   0.25135   0.00000  Uiso   1.00
H149   H     0.75773   0.29597   0.24907   0.00000  Uiso   1.00
H150   H     0.69356   0.21194   0.30907   0.00000  Uiso   1.00
H151   H     0.72698   0.12130   0.19085   0.00000  Uiso   1.00
H152   H     0.97324   0.12136   0.19087   0.00000  Uiso   1.00
H153   H     0.96931   0.13182   0.49114   0.00000  Uiso   1.00
H154   H     0.80195   0.17504   0.09195   0.00000  Uiso   1.00
H155   H     0.87427   0.11865   0.37693   0.00000  Uiso   1.00
H156   H     0.90882   0.29611   0.25144   0.00000  Uiso   1.00
H157   H     0.95060   0.14767   0.08349   0.00000  Uiso   1.00
H158   H     0.75774   0.03722   0.24895   0.00000  Uiso   1.00
N159   N     0.71598   0.16666   0.24999   0.00000  Uiso   1.00
N160   N     0.95069   0.16669   0.25000   0.00000  Uiso   1.00
O161   O     0.79375   0.22678   0.25001   0.00000  Uiso   1.00
O162   O     0.87294   0.22679   0.25001   0.00000  Uiso   1.00
O163   O     0.77441   0.16665   0.32549   0.00000  Uiso   1.00
O164   O     0.85360   0.16666   0.32549   0.00000  Uiso   1.00
O165   O     0.79373   0.10654   0.25000   0.00000  Uiso   1.00
O166   O     0.87292   0.10655   0.25000   0.00000  Uiso   1.00
O167   O     0.81306   0.16667   0.17451   0.00000  Uiso   1.00
O168   O     0.89225   0.16668   0.17451   0.00000  Uiso   1.00
C169   C     0.16666   0.57932   0.25010   0.00000  Uiso   1.00
C170   C     0.12462   0.50052   0.40749   0.00000  Uiso   1.00
C171   C     0.20902   0.64543   0.25088   0.00000  Uiso   1.00
C172   C     0.14036   0.49863   0.35015   0.00000  Uiso   1.00
C173   C     0.20901   0.35466   0.25083   0.00000  Uiso   1.00
C174   C     0.16662   0.37607   0.25011   0.00000  Uiso   1.00
C175   C     0.12421   0.35458   0.24951   0.00000  Uiso   1.00
C176   C     0.12421   0.64534   0.24957   0.00000  Uiso   1.00
C177   C     0.16663   0.62393   0.25020   0.00000  Uiso   1.00
C178   C     0.29928   0.52523   0.28283   0.00000  Uiso   1.00
C179   C     0.01554   0.52513   0.28284   0.00000  Uiso   1.00
C180   C     0.14761   0.50500   0.48804   0.00000  Uiso   1.00
C181   C     0.03414   0.47483   0.21714   0.00000  Uiso   1.00
C182   C     0.31784   0.47484   0.21716   0.00000  Uiso   1.00
C183   C     0.16664   0.42068   0.25001   0.00000  Uiso   1.00
C184   C     0.19293   0.49964   0.15004   0.00000  Uiso   1.00
C185   C     0.26635   0.47657   0.01199   0.00000  Uiso   1.00
C186   C     0.20803   0.49698   0.09332   0.00000  Uiso   1.00
C187   C     0.07867   0.51811   0.43337   0.00000  Uiso   1.00
C188   C     0.06845   0.53137   0.48433   0.00000  Uiso   1.00
C189   C     0.10327   0.52733   0.01056   0.00000  Uiso   1.00
C190   C     0.15777   0.49096   0.43597   0.00000  Uiso   1.00
C191   C     0.18301   0.49718   0.01456   0.00000  Uiso   1.00
C192   C     0.22974   0.48056   0.48726   0.00000  Uiso   1.00
C193   C     0.23800   0.46559   0.43697   0.00000  Uiso   1.00
C194   C     0.20124   0.46822   0.41332   0.00000  Uiso   1.00
C195   C     0.17233   0.50272   0.06820   0.00000  Uiso   1.00
C196   C     0.25578   0.48555   0.06467   0.00000  Uiso   1.00
Cu197  Cu    0.11978   0.49999   0.25000   0.00000  Uiso   1.00
Cu198  Cu    0.21355   0.50001   0.25000   0.00000  Uiso   1.00
F199   F     0.26680   0.55077   0.31573   0.00000  Uiso   1.00
F200   F     0.28071   0.44620   0.41156   0.00000  Uiso   1.00
F201   F     0.04502   0.52598   0.40821   0.00000  Uiso   1.00
F202   F     0.09423   0.54863   0.05571   0.00000  Uiso   1.00
F203   F     0.02565   0.55142   0.00733   0.00000  Uiso   1.00
H204   H     0.24216   0.37070   0.25135   0.00000  Uiso   1.00
H205   H     0.09106   0.62930   0.24907   0.00000  Uiso   1.00
H206   H     0.02689   0.54528   0.30907   0.00000  Uiso   1.00
H207   H     0.06032   0.45463   0.19085   0.00000  Uiso   1.00
H208   H     0.30657   0.45469   0.19087   0.00000  Uiso   1.00
H209   H     0.30264   0.46515   0.49114   0.00000  Uiso   1.00
H210   H     0.13529   0.50837   0.09195   0.00000  Uiso   1.00
H211   H     0.20760   0.45199   0.37693   0.00000  Uiso   1.00
H212   H     0.24216   0.62945   0.25144   0.00000  Uiso   1.00
H213   H     0.28394   0.48101   0.08349   0.00000  Uiso   1.00
H214   H     0.09107   0.37055   0.24895   0.00000  Uiso   1.00
N215   N     0.04931   0.49999   0.24999   0.00000  Uiso   1.00
N216   N     0.28402   0.50002   0.25000   0.00000  Uiso   1.00
O217   O     0.12708   0.56011   0.25001   0.00000  Uiso   1.00
O218   O     0.20627   0.56012   0.25001   0.00000  Uiso   1.00
O219   O     0.10775   0.49998   0.32549   0.00000  Uiso   1.00
O220   O     0.18694   0.49999   0.32549   0.00000  Uiso   1.00
O221   O     0.12706   0.43988   0.25000   0.00000  Uiso   1.00
O222   O     0.20625   0.43989   0.25000   0.00000  Uiso   1.00
O223   O     0.14640   0.50001   0.17451   0.00000  Uiso   1.00
O224   O     0.22559   0.50002   0.17451   0.00000  Uiso   1.00
C225   C     0.49999   0.57932   0.25010   0.00000  Uiso   1.00
C226   C     0.45795   0.50052   0.40749   0.00000  Uiso   1.00
C227   C     0.54235   0.64543   0.25088   0.00000  Uiso   1.00
C228   C     0.47370   0.49863   0.35015   0.00000  Uiso   1.00
C229   C     0.54235   0.35466   0.25083   0.00000  Uiso   1.00
C230   C     0.49995   0.37607   0.25011   0.00000  Uiso   1.00
C231   C     0.45755   0.35458   0.24951   0.00000  Uiso   1.00
C232   C     0.45755   0.64534   0.24957   0.00000  Uiso   1.00
C233   C     0.49996   0.62393   0.25020   0.00000  Uiso   1.00
C234   C     0.63261   0.52523   0.28283   0.00000  Uiso   1.00
C235   C     0.34888   0.52513   0.28284   0.00000  Uiso   1.00
C236   C     0.48094   0.50500   0.48804   0.00000  Uiso   1.00
C237   C     0.36747   0.47483   0.21714   0.00000  Uiso   1.00
C238   C     0.65117   0.47484   0.21716   0.00000  Uiso   1.00
C239   C     0.49997   0.42068   0.25001   0.00000  Uiso   1.00
C240   C     0.52627   0.49964   0.15004   0.00000  Uiso   1.00
C241   C     0.59969   0.47657   0.01199   0.00000  Uiso   1.00
C242   C     0.54136   0.49698   0.09332   0.00000  Uiso   1.00
C243   C     0.41201   0.51811   0.43337   0.00000  Uiso   1.00
C244   C     0.40178   0.53137   0.48433   0.00000  Uiso   1.00
C245   C     0.43660   0.52733   0.01056   0.00000  Uiso   1.00
C246   C     0.49111   0.49096   0.43597   0.00000  Uiso   1.00
C247   C     0.51634   0.49718   0.01456   0.00000  Uiso   1.00
C248   C     0.56307   0.48056   0.48726   0.00000  Uiso   1.00
C249   C     0.57133   0.46559   0.43697   0.00000  Uiso   1.00
C250   C     0.53457   0.46822   0.41332   0.00000  Uiso   1.00
C251   C     0.50567   0.50272   0.06820   0.00000  Uiso   1.00
C252   C     0.58911   0.48555   0.06467   0.00000  Uiso   1.00
Cu253  Cu    0.45311   0.49999   0.25000   0.00000  Uiso   1.00
Cu254  Cu    0.54689   0.50001   0.25000   0.00000  Uiso   1.00
F255   F     0.60014   0.55077   0.31573   0.00000  Uiso   1.00
F256   F     0.61404   0.44620   0.41156   0.00000  Uiso   1.00
F257   F     0.37835   0.52598   0.40821   0.00000  Uiso   1.00
F258   F     0.42757   0.54863   0.05571   0.00000  Uiso   1.00
F259   F     0.35899   0.55142   0.00733   0.00000  Uiso   1.00
H260   H     0.57549   0.37070   0.25135   0.00000  Uiso   1.00
H261   H     0.42440   0.62930   0.24907   0.00000  Uiso   1.00
H262   H     0.36023   0.54528   0.30907   0.00000  Uiso   1.00
H263   H     0.39365   0.45463   0.19085   0.00000  Uiso   1.00
H264   H     0.63990   0.45469   0.19087   0.00000  Uiso   1.00
H265   H     0.63598   0.46515   0.49114   0.00000  Uiso   1.00
H266   H     0.46862   0.50837   0.09195   0.00000  Uiso   1.00
H267   H     0.54094   0.45199   0.37693   0.00000  Uiso   1.00
H268   H     0.57549   0.62945   0.25144   0.00000  Uiso   1.00
H269   H     0.61727   0.48101   0.08349   0.00000  Uiso   1.00
H270   H     0.42441   0.37055   0.24895   0.00000  Uiso   1.00
N271   N     0.38265   0.49999   0.24999   0.00000  Uiso   1.00
N272   N     0.61735   0.50002   0.25000   0.00000  Uiso   1.00
O273   O     0.46042   0.56011   0.25001   0.00000  Uiso   1.00
O274   O     0.53961   0.56012   0.25001   0.00000  Uiso   1.00
O275   O     0.44108   0.49998   0.32549   0.00000  Uiso   1.00
O276   O     0.52027   0.49999   0.32549   0.00000  Uiso   1.00
O277   O     0.46039   0.43988   0.25000   0.00000  Uiso   1.00
O278   O     0.53958   0.43989   0.25000   0.00000  Uiso   1.00
O279   O     0.47973   0.50001   0.17451   0.00000  Uiso   1.00
O280   O     0.55892   0.50002   0.17451   0.00000  Uiso   1.00
C281   C     0.83333   0.57932   0.25010   0.00000  Uiso   1.00
C282   C     0.79129   0.50052   0.40749   0.00000  Uiso   1.00
C283   C     0.87568   0.64543   0.25088   0.00000  Uiso   1.00
C284   C     0.80703   0.49863   0.35015   0.00000  Uiso   1.00
C285   C     0.87568   0.35466   0.25083   0.00000  Uiso   1.00
C286   C     0.83329   0.37607   0.25011   0.00000  Uiso   1.00
C287   C     0.79088   0.35458   0.24951   0.00000  Uiso   1.00
C288   C     0.79088   0.64534   0.24957   0.00000  Uiso   1.00
C289   C     0.83330   0.62393   0.25020   0.00000  Uiso   1.00
C290   C     0.96595   0.52523   0.28283   0.00000  Uiso   1.00
C291   C     0.68221   0.52513   0.28284   0.00000  Uiso   1.00
C292   C     0.81428   0.50500   0.48804   0.00000  Uiso   1.00
C293   C     0.70080   0.47483   0.21714   0.00000  Uiso   1.00
C294   C     0.98450   0.47484   0.21716   0.00000  Uiso   1.00
C295   C     0.83331   0.42068   0.25001   0.00000  Uiso   1.00
C296   C     0.85960   0.49964   0.15004   0.00000  Uiso   1.00
C297   C     0.93302   0.47657   0.01199   0.00000  Uiso   1.00
C298   C     0.87470   0.49698   0.09332   0.00000  Uiso   1.00
C299   C     0.74534   0.51811   0.43337   0.00000  Uiso   1.00
C300   C     0.73511   0.53137   0.48433   0.00000  Uiso   1.00
C301   C     0.76994   0.52733   0.01056   0.00000  Uiso   1.00
C302   C     0.82444   0.49096   0.43597   0.00000  Uiso   1.00
C303   C     0.84967   0.49718   0.01456   0.00000  Uiso   1.00
C304   C     0.89640   0.48056   0.48726   0.00000  Uiso   1.00
C305   C     0.90467   0.46559   0.43697   0.00000  Uiso   1.00
C306   C     0.86790   0.46822   0.41332   0.00000  Uiso   1.00
C307   C     0.83900   0.50272   0.06820   0.00000  Uiso   1.00
C308   C     0.92245   0.48555   0.06467   0.00000  Uiso   1.00
Cu309  Cu    0.78645   0.49999   0.25000   0.00000  Uiso   1.00
Cu310  Cu    0.88022   0.50001   0.25000   0.00000  Uiso   1.00
F311   F     0.93347   0.55077   0.31573   0.00000  Uiso   1.00
F312   F     0.94737   0.44620   0.41156   0.00000  Uiso   1.00
F313   F     0.71168   0.52598   0.40821   0.00000  Uiso   1.00
F314   F     0.76090   0.54863   0.05571   0.00000  Uiso   1.00
F315   F     0.69232   0.55142   0.00733   0.00000  Uiso   1.00
H316   H     0.90882   0.37070   0.25135   0.00000  Uiso   1.00
H317   H     0.75773   0.62930   0.24907   0.00000  Uiso   1.00
H318   H     0.69356   0.54528   0.30907   0.00000  Uiso   1.00
H319   H     0.72698   0.45463   0.19085   0.00000  Uiso   1.00
H320   H     0.97324   0.45469   0.19087   0.00000  Uiso   1.00
H321   H     0.96931   0.46515   0.49114   0.00000  Uiso   1.00
H322   H     0.80195   0.50837   0.09195   0.00000  Uiso   1.00
H323   H     0.87427   0.45199   0.37693   0.00000  Uiso   1.00
H324   H     0.90882   0.62945   0.25144   0.00000  Uiso   1.00
H325   H     0.95060   0.48101   0.08349   0.00000  Uiso   1.00
H326   H     0.75774   0.37055   0.24895   0.00000  Uiso   1.00
N327   N     0.71598   0.49999   0.24999   0.00000  Uiso   1.00
N328   N     0.95069   0.50002   0.25000   0.00000  Uiso   1.00
O329   O     0.79375   0.56011   0.25001   0.00000  Uiso   1.00
O330   O     0.87294   0.56012   0.25001   0.00000  Uiso   1.00
O331   O     0.77441   0.49998   0.32549   0.00000  Uiso   1.00
O332   O     0.85360   0.49999   0.32549   0.00000  Uiso   1.00
O333   O     0.79373   0.43988   0.25000   0.00000  Uiso   1.00
O334   O     0.87292   0.43989   0.25000   0.00000  Uiso   1.00
O335   O     0.81306   0.50001   0.17451   0.00000  Uiso   1.00
O336   O     0.89225   0.50002   0.17451   0.00000  Uiso   1.00
C337   C     0.16666   0.91265   0.25010   0.00000  Uiso   1.00
C338   C     0.12462   0.83385   0.40749   0.00000  Uiso   1.00
C339   C     0.20902   0.97876   0.25088   0.00000  Uiso   1.00
C340   C     0.14036   0.83197   0.35015   0.00000  Uiso   1.00
C341   C     0.20901   0.68799   0.25083   0.00000  Uiso   1.00
C342   C     0.16662   0.70940   0.25011   0.00000  Uiso   1.00
C343   C     0.12421   0.68791   0.24951   0.00000  Uiso   1.00
C344   C     0.12421   0.97868   0.24957   0.00000  Uiso   1.00
C345   C     0.16663   0.95726   0.25020   0.00000  Uiso   1.00
C346   C     0.29928   0.85857   0.28283   0.00000  Uiso   1.00
C347   C     0.01554   0.85846   0.28284   0.00000  Uiso   1.00
C348   C     0.14761   0.83834   0.48804   0.00000  Uiso   1.00
C349   C     0.03414   0.80816   0.21714   0.00000  Uiso   1.00
C350   C     0.31784   0.80817   0.21716   0.00000  Uiso   1.00
C351   C     0.16664   0.75402   0.25001   0.00000  Uiso   1.00
C352   C     0.19293   0.83298   0.15004   0.00000  Uiso   1.00
C353   C     0.26635   0.80990   0.01199   0.00000  Uiso   1.00
C354   C     0.20803   0.83032   0.09332   0.00000  Uiso   1.00
C355   C     0.07867   0.85145   0.43337   0.00000  Uiso   1.00
C356   C     0.06845   0.86470   0.48433   0.00000  Uiso   1.00
C357   C     0.10327   0.86066   0.01056   0.00000  Uiso   1.00
C358   C     0.15777   0.82429   0.43597   0.00000  Uiso   1.00
C359   C     0.18301   0.83052   0.01456   0.00000  Uiso   1.00
C360   C     0.22974   0.81390   0.48726   0.00000  Uiso   1.00
C361   C     0.23800   0.79892   0.43697   0.00000  Uiso   1.00
C362   C     0.20124   0.80155   0.41332   0.00000  Uiso   1.00
C363   C     0.17233   0.83605   0.06820   0.00000  Uiso   1.00
C364   C     0.25578   0.81888   0.06467   0.00000  Uiso   1.00
Cu365  Cu    0.11978   0.83333   0.25000   0.00000  Uiso   1.00
Cu366  Cu    0.21355   0.83334   0.25000   0.00000  Uiso   1.00
F367   F     0.26680   0.88410   0.31573   0.00000  Uiso   1.00
F368   F     0.28071   0.77954   0.41156   0.00000  Uiso   1.00
F369   F     0.04502   0.85931   0.40821   0.00000  Uiso   1.00
F370   F     0.09423   0.88197   0.05571   0.00000  Uiso   1.00
F371   F     0.02565   0.88476   0.00733   0.00000  Uiso   1.00
H372   H     0.24216   0.70404   0.25135   0.00000  Uiso   1.00
H373   H     0.09106   0.96264   0.24907   0.00000  Uiso   1.00
H374   H     0.02689   0.87861   0.30907   0.00000  Uiso   1.00
H375   H     0.06032   0.78797   0.19085   0.00000  Uiso   1.00
H376   H     0.30657   0.78802   0.19087   0.00000  Uiso   1.00
H377   H     0.30264   0.79848   0.49114   0.00000  Uiso   1.00
H378   H     0.13529   0.84171   0.09195   0.00000  Uiso   1.00
H379   H     0.20760   0.78532   0.37693   0.00000  Uiso   1.00
H380   H     0.24216   0.96278   0.25144   0.00000  Uiso   1.00
H381   H     0.28394   0.81434   0.08349   0.00000  Uiso   1.00
H382   H     0.09107   0.70389   0.24895   0.00000  Uiso   1.00
N383   N     0.04931   0.83332   0.24999   0.00000  Uiso   1.00
N384   N     0.28402   0.83335   0.25000   0.00000  Uiso   1.00
O385   O     0.12708   0.89345   0.25001   0.00000  Uiso   1.00
O386   O     0.20627   0.89346   0.25001   0.00000  Uiso   1.00
O387   O     0.10775   0.83332   0.32549   0.00000  Uiso   1.00
O388   O     0.18694   0.83333   0.32549   0.00000  Uiso   1.00
O389   O     0.12706   0.77321   0.25000   0.00000  Uiso   1.00
O390   O     0.20625   0.77322   0.25000   0.00000  Uiso   1.00
O391   O     0.14640   0.83334   0.17451   0.00000  Uiso   1.00
O392   O     0.22559   0.83335   0.17451   0.00000  Uiso   1.00
C393   C     0.49999   0.91265   0.25010   0.00000  Uiso   1.00
C394   C     0.45795   0.83385   0.40749   0.00000  Uiso   1.00
C395   C     0.54235   0.97876   0.25088   0.00000  Uiso   1.00
C396   C     0.47370   0.83197   0.35015   0.00000  Uiso   1.00
C397   C     0.54235   0.68799   0.25083   0.00000  Uiso   1.00
C398   C     0.49995   0.70940   0.25011   0.00000  Uiso   1.00
C399   C     0.45755   0.68791   0.24951   0.00000  Uiso   1.00
C400   C     0.45755   0.97868   0.24957   0.00000  Uiso   1.00
C401   C     0.49996   0.95726   0.25020   0.00000  Uiso   1.00
C402   C     0.63261   0.85857   0.28283   0.00000  Uiso   1.00
C403   C     0.34888   0.85846   0.28284   0.00000  Uiso   1.00
C404   C     0.48094   0.83834   0.48804   0.00000  Uiso   1.00
C405   C     0.36747   0.80816   0.21714   0.00000  Uiso   1.00
C406   C     0.65117   0.80817   0.21716   0.00000  Uiso   1.00
C407   C     0.49997   0.75402   0.25001   0.00000  Uiso   1.00
C408   C     0.52627   0.83298   0.15004   0.00000  Uiso   1.00
C409   C     0.59969   0.80990   0.01199   0.00000  Uiso   1.00
C410   C     0.54136   0.83032   0.09332   0.00000  Uiso   1.00
C411   C     0.41201   0.85145   0.43337   0.00000  Uiso   1.00
C412   C     0.40178   0.86470   0.48433   0.00000  Uiso   1.00
C413   C     0.43660   0.86066   0.01056   0.00000  Uiso   1.00
C414   C     0.49111   0.82429   0.43597   0.00000  Uiso   1.00
C415   C     0.51634   0.83052   0.01456   0.00000  Uiso   1.00
C416   C     0.56307   0.81390   0.48726   0.00000  Uiso   1.00
C417   C     0.57133   0.79892   0.43697   0.00000  Uiso   1.00
C418   C     0.53457   0.80155   0.41332   0.00000  Uiso   1.00
C419   C     0.50567   0.83605   0.06820   0.00000  Uiso   1.00
C420   C     0.58911   0.81888   0.06467   0.00000  Uiso   1.00
Cu421  Cu    0.45311   0.83333   0.25000   0.00000  Uiso   1.00
Cu422  Cu    0.54689   0.83334   0.25000   0.00000  Uiso   1.00
F423   F     0.60014   0.88410   0.31573   0.00000  Uiso   1.00
F424   F     0.61404   0.77954   0.41156   0.00000  Uiso   1.00
F425   F     0.37835   0.85931   0.40821   0.00000  Uiso   1.00
F426   F     0.42757   0.88197   0.05571   0.00000  Uiso   1.00
F427   F     0.35899   0.88476   0.00733   0.00000  Uiso   1.00
H428   H     0.57549   0.70404   0.25135   0.00000  Uiso   1.00
H429   H     0.42440   0.96264   0.24907   0.00000  Uiso   1.00
H430   H     0.36023   0.87861   0.30907   0.00000  Uiso   1.00
H431   H     0.39365   0.78797   0.19085   0.00000  Uiso   1.00
H432   H     0.63990   0.78802   0.19087   0.00000  Uiso   1.00
H433   H     0.63598   0.79848   0.49114   0.00000  Uiso   1.00
H434   H     0.46862   0.84171   0.09195   0.00000  Uiso   1.00
H435   H     0.54094   0.78532   0.37693   0.00000  Uiso   1.00
H436   H     0.57549   0.96278   0.25144   0.00000  Uiso   1.00
H437   H     0.61727   0.81434   0.08349   0.00000  Uiso   1.00
H438   H     0.42441   0.70389   0.24895   0.00000  Uiso   1.00
N439   N     0.38265   0.83332   0.24999   0.00000  Uiso   1.00
N440   N     0.61735   0.83335   0.25000   0.00000  Uiso   1.00
O441   O     0.46042   0.89345   0.25001   0.00000  Uiso   1.00
O442   O     0.53961   0.89346   0.25001   0.00000  Uiso   1.00
O443   O     0.44108   0.83332   0.32549   0.00000  Uiso   1.00
O444   O     0.52027   0.83333   0.32549   0.00000  Uiso   1.00
O445   O     0.46039   0.77321   0.25000   0.00000  Uiso   1.00
O446   O     0.53958   0.77322   0.25000   0.00000  Uiso   1.00
O447   O     0.47973   0.83334   0.17451   0.00000  Uiso   1.00
O448   O     0.55892   0.83335   0.17451   0.00000  Uiso   1.00
C449   C     0.83333   0.91265   0.25010   0.00000  Uiso   1.00
C450   C     0.79129   0.83385   0.40749   0.00000  Uiso   1.00
C451   C     0.87568   0.97876   0.25088   0.00000  Uiso   1.00
C452   C     0.80703   0.83197   0.35015   0.00000  Uiso   1.00
C453   C     0.87568   0.68799   0.25083   0.00000  Uiso   1.00
C454   C     0.83329   0.70940   0.25011   0.00000  Uiso   1.00
C455   C     0.79088   0.68791   0.24951   0.00000  Uiso   1.00
C456   C     0.79088   0.97868   0.24957   0.00000  Uiso   1.00
C457   C     0.83330   0.95726   0.25020   0.00000  Uiso   1.00
C458   C     0.96595   0.85857   0.28283   0.00000  Uiso   1.00
C459   C     0.68221   0.85846   0.28284   0.00000  Uiso   1.00
C460   C     0.81428   0.83834   0.48804   0.00000  Uiso   1.00
C461   C     0.70080   0.80816   0.21714   0.00000  Uiso   1.00
C462   C     0.98450   0.80817   0.21716   0.00000  Uiso   1.00
C463   C     0.83331   0.75402   0.25001   0.00000  Uiso   1.00
C464   C     0.85960   0.83298   0.15004   0.00000  Uiso   1.00
C465   C     0.93302   0.80990   0.01199   0.00000  Uiso   1.00
C466   C     0.87470   0.83032   0.09332   0.00000  Uiso   1.00
C467   C     0.74534   0.85145   0.43337   0.00000  Uiso   1.00
C468   C     0.73511   0.86470   0.48433   0.00000  Uiso   1.00
C469   C     0.76994   0.86066   0.01056   0.00000  Uiso   1.00
C470   C     0.82444   0.82429   0.43597   0.00000  Uiso   1.00
C471   C     0.84967   0.83052   0.01456   0.00000  Uiso   1.00
C472   C     0.89640   0.81390   0.48726   0.00000  Uiso   1.00
C473   C     0.90467   0.79892   0.43697   0.00000  Uiso   1.00
C474   C     0.86790   0.80155   0.41332   0.00000  Uiso   1.00
C475   C     0.83900   0.83605   0.06820   0.00000  Uiso   1.00
C476   C     0.92245   0.81888   0.06467   0.00000  Uiso   1.00
Cu477  Cu    0.78645   0.83333   0.25000   0.00000  Uiso   1.00
Cu478  Cu    0.88022   0.83334   0.25000   0.00000  Uiso   1.00
F479   F     0.93347   0.88410   0.31573   0.00000  Uiso   1.00
F480   F     0.94737   0.77954   0.41156   0.00000  Uiso   1.00
F481   F     0.71168   0.85931   0.40821   0.00000  Uiso   1.00
F482   F     0.76090   0.88197   0.05571   0.00000  Uiso   1.00
F483   F     0.69232   0.88476   0.00733   0.00000  Uiso   1.00
H484   H     0.90882   0.70404   0.25135   0.00000  Uiso   1.00
H485   H     0.75773   0.96264   0.24907   0.00000  Uiso   1.00
H486   H     0.69356   0.87861   0.30907   0.00000  Uiso   1.00
H487   H     0.72698   0.78797   0.19085   0.00000  Uiso   1.00
H488   H     0.97324   0.78802   0.19087   0.00000  Uiso   1.00
H489   H     0.96931   0.79848   0.49114   0.00000  Uiso   1.00
H490   H     0.80195   0.84171   0.09195   0.00000  Uiso   1.00
H491   H     0.87427   0.78532   0.37693   0.00000  Uiso   1.00
H492   H     0.90882   0.96278   0.25144   0.00000  Uiso   1.00
H493   H     0.95060   0.81434   0.08349   0.00000  Uiso   1.00
H494   H     0.75774   0.70389   0.24895   0.00000  Uiso   1.00
N495   N     0.71598   0.83332   0.24999   0.00000  Uiso   1.00
N496   N     0.95069   0.83335   0.25000   0.00000  Uiso   1.00
O497   O     0.79375   0.89345   0.25001   0.00000  Uiso   1.00
O498   O     0.87294   0.89346   0.25001   0.00000  Uiso   1.00
O499   O     0.77441   0.83332   0.32549   0.00000  Uiso   1.00
O500   O     0.85360   0.83333   0.32549   0.00000  Uiso   1.00
O501   O     0.79373   0.77321   0.25000   0.00000  Uiso   1.00
O502   O     0.87292   0.77322   0.25000   0.00000  Uiso   1.00
O503   O     0.81306   0.83334   0.17451   0.00000  Uiso   1.00
O504   O     0.89225   0.83335   0.17451   0.00000  Uiso   1.00
C505   C     0.16666   0.24598   0.75010   0.00000  Uiso   1.00
C506   C     0.12462   0.16719   0.90749   0.00000  Uiso   1.00
C507   C     0.20902   0.31209   0.75088   0.00000  Uiso   1.00
C508   C     0.14036   0.16530   0.85015   0.00000  Uiso   1.00
C509   C     0.20901   0.02133   0.75083   0.00000  Uiso   1.00
C510   C     0.16662   0.04274   0.75011   0.00000  Uiso   1.00
C511   C     0.12421   0.02124   0.74951   0.00000  Uiso   1.00
C512   C     0.12421   0.31201   0.74957   0.00000  Uiso   1.00
C513   C     0.16663   0.29060   0.75020   0.00000  Uiso   1.00
C514   C     0.29928   0.19190   0.78283   0.00000  Uiso   1.00
C515   C     0.01554   0.19180   0.78284   0.00000  Uiso   1.00
C516   C     0.14761   0.17167   0.98804   0.00000  Uiso   1.00
C517   C     0.03414   0.14150   0.71714   0.00000  Uiso   1.00
C518   C     0.31784   0.14150   0.71716   0.00000  Uiso   1.00
C519   C     0.16664   0.08735   0.75001   0.00000  Uiso   1.00
C520   C     0.19293   0.16631   0.65004   0.00000  Uiso   1.00
C521   C     0.26635   0.14324   0.51199   0.00000  Uiso   1.00
C522   C     0.20803   0.16365   0.59332   0.00000  Uiso   1.00
C523   C     0.07867   0.18478   0.93337   0.00000  Uiso   1.00
C524   C     0.06845   0.19803   0.98433   0.00000  Uiso   1.00
C525   C     0.10327   0.19400   0.51056   0.00000  Uiso   1.00
C526   C     0.15777   0.15763   0.93597   0.00000  Uiso   1.00
C527   C     0.18301   0.16385   0.51456   0.00000  Uiso   1.00
C528   C     0.22974   0.14723   0.98726   0.00000  Uiso   1.00
C529   C     0.23800   0.13226   0.93697   0.00000  Uiso   1.00
C530   C     0.20124   0.13489   0.91332   0.00000  Uiso   1.00
C531   C     0.17233   0.16938   0.56820   0.00000  Uiso   1.00
C532   C     0.25578   0.15222   0.56467   0.00000  Uiso   1.00
Cu533  Cu    0.11978   0.16666   0.75000   0.00000  Uiso   1.00
Cu534  Cu    0.21355   0.16667   0.75000   0.00000  Uiso   1.00
F535   F     0.26680   0.21744   0.81573   0.00000  Uiso   1.00
F536   F     0.28071   0.11287   0.91156   0.00000  Uiso   1.00
F537   F     0.04502   0.19265   0.90821   0.00000  Uiso   1.00
F538   F     0.09423   0.21530   0.55571   0.00000  Uiso   1.00
F539   F     0.02565   0.21809   0.50733   0.00000  Uiso   1.00
H540   H     0.24216   0.03737   0.75135   0.00000  Uiso   1.00
H541   H     0.09106   0.29597   0.74907   0.00000  Uiso   1.00
H542   H     0.02689   0.21194   0.80907   0.00000  Uiso   1.00
H543   H     0.06032   0.12130   0.69085   0.00000  Uiso   1.00
H544   H     0.30657   0.12136   0.69087   0.00000  Uiso   1.00
H545   H     0.30264   0.13182   0.99114   0.00000  Uiso   1.00
H546   H     0.13529   0.17504   0.59195   0.00000  Uiso   1.00
H547   H     0.20760   0.11865   0.87693   0.00000  Uiso   1.00
H548   H     0.24216   0.29611   0.75144   0.00000  Uiso   1.00
H549   H     0.28394   0.14767   0.58349   0.00000  Uiso   1.00
H550   H     0.09107   0.03722   0.74895   0.00000  Uiso   1.00
N551   N     0.04931   0.16666   0.74999   0.00000  Uiso   1.00
N552   N     0.28402   0.16669   0.75000   0.00000  Uiso   1.00
O553   O     0.12708   0.22678   0.75001   0.00000  Uiso   1.00
O554   O     0.20627   0.22679   0.75001   0.00000  Uiso   1.00
O555   O     0.10775   0.16665   0.82549   0.00000  Uiso   1.00
O556   O     0.18694   0.16666   0.82549   0.00000  Uiso   1.00
O557   O     0.12706   0.10654   0.75000   0.00000  Uiso   1.00
O558   O     0.20625   0.10655   0.75000   0.00000  Uiso   1.00
O559   O     0.14640   0.16667   0.67451   0.00000  Uiso   1.00
O560   O     0.22559   0.16668   0.67451   0.00000  Uiso   1.00
C561   C     0.49999   0.24598   0.75010   0.00000  Uiso   1.00
C562   C     0.45795   0.16719   0.90749   0.00000  Uiso   1.00
C563   C     0.54235   0.31209   0.75088   0.00000  Uiso   1.00
C564   C     0.47370   0.16530   0.85015   0.00000  Uiso   1.00
C565   C     0.54235   0.02133   0.75083   0.00000  Uiso   1.00
C566   C     0.49995   0.04274   0.75011   0.00000  Uiso   1.00
C567   C     0.45755   0.02124   0.74951   0.00000  Uiso   1.00
C568   C     0.45755   0.31201   0.74957   0.00000  Uiso   1.00
C569   C     0.49996   0.29060   0.75020   0.00000  Uiso   1.00
C570   C     0.63261   0.19190   0.78283   0.00000  Uiso   1.00
C571   C     0.34888   0.19180   0.78284   0.00000  Uiso   1.00
C572   C     0.48094   0.17167   0.98804   0.00000  Uiso   1.00
C573   C     0.36747   0.14150   0.71714   0.00000  Uiso   1.00
C574   C     0.65117   0.14150   0.71716   0.00000  Uiso   1.00
C575   C     0.49997   0.08735   0.75001   0.00000  Uiso   1.00
C576   C     0.52627   0.16631   0.65004   0.00000  Uiso   1.00
C577   C     0.59969   0.14324   0.51199   0.00000  Uiso   1.00
C578   C     0.54136   0.16365   0.59332   0.00000  Uiso   1.00
C579   C     0.41201   0.18478   0.93337   0.00000  Uiso   1.00
C580   C     0.40178   0.19803   0.98433   0.00000  Uiso   1.00
C581   C     0.43660   0.19400   0.51056   0.00000  Uiso   1.00
C582   C     0.49111   0.15763   0.93597   0.00000  Uiso   1.00
C583   C     0.51634   0.16385   0.51456   0.00000  Uiso   1.00
C584   C     0.56307   0.14723   0.98726   0.00000  Uiso   1.00
C585   C     0.57133   0.13226   0.93697   0.00000  Uiso   1.00
C586   C     0.53457   0.13489   0.91332   0.00000  Uiso   1.00
C587   C     0.50567   0.16938   0.56820   0.00000  Uiso   1.00
C588   C     0.58911   0.15222   0.56467   0.00000  Uiso   1.00
Cu589  Cu    0.45311   0.16666   0.75000   0.00000  Uiso   1.00
Cu590  Cu    0.54689   0.16667   0.75000   0.00000  Uiso   1.00
F591   F     0.60014   0.21744   0.81573   0.00000  Uiso   1.00
F592   F     0.61404   0.11287   0.91156   0.00000  Uiso   1.00
F593   F     0.37835   0.19265   0.90821   0.00000  Uiso   1.00
F594   F     0.42757   0.21530   0.55571   0.00000  Uiso   1.00
F595   F     0.35899   0.21809   0.50733   0.00000  Uiso   1.00
H596   H     0.57549   0.03737   0.75135   0.00000  Uiso   1.00
H597   H     0.42440   0.29597   0.74907   0.00000  Uiso   1.00
H598   H     0.36023   0.21194   0.80907   0.00000  Uiso   1.00
H599   H     0.39365   0.12130   0.69085   0.00000  Uiso   1.00
H600   H     0.63990   0.12136   0.69087   0.00000  Uiso   1.00
H601   H     0.63598   0.13182   0.99114   0.00000  Uiso   1.00
H602   H     0.46862   0.17504   0.59195   0.00000  Uiso   1.00
H603   H     0.54094   0.11865   0.87693   0.00000  Uiso   1.00
H604   H     0.57549   0.29611   0.75144   0.00000  Uiso   1.00
H605   H     0.61727   0.14767   0.58349   0.00000  Uiso   1.00
H606   H     0.42441   0.03722   0.74895   0.00000  Uiso   1.00
N607   N     0.38265   0.16666   0.74999   0.00000  Uiso   1.00
N608   N     0.61735   0.16669   0.75000   0.00000  Uiso   1.00
O609   O     0.46042   0.22678   0.75001   0.00000  Uiso   1.00
O610   O     0.53961   0.22679   0.75001   0.00000  Uiso   1.00
O611   O     0.44108   0.16665   0.82549   0.00000  Uiso   1.00
O612   O     0.52027   0.16666   0.82549   0.00000  Uiso   1.00
O613   O     0.46039   0.10654   0.75000   0.00000  Uiso   1.00
O614   O     0.53958   0.10655   0.75000   0.00000  Uiso   1.00
O615   O     0.47973   0.16667   0.67451   0.00000  Uiso   1.00
O616   O     0.55892   0.16668   0.67451   0.00000  Uiso   1.00
C617   C     0.83333   0.24598   0.75010   0.00000  Uiso   1.00
C618   C     0.79129   0.16719   0.90749   0.00000  Uiso   1.00
C619   C     0.87568   0.31209   0.75088   0.00000  Uiso   1.00
C620   C     0.80703   0.16530   0.85015   0.00000  Uiso   1.00
C621   C     0.87568   0.02133   0.75083   0.00000  Uiso   1.00
C622   C     0.83329   0.04274   0.75011   0.00000  Uiso   1.00
C623   C     0.79088   0.02124   0.74951   0.00000  Uiso   1.00
C624   C     0.79088   0.31201   0.74957   0.00000  Uiso   1.00
C625   C     0.83330   0.29060   0.75020   0.00000  Uiso   1.00
C626   C     0.96595   0.19190   0.78283   0.00000  Uiso   1.00
C627   C     0.68221   0.19180   0.78284   0.00000  Uiso   1.00
C628   C     0.81428   0.17167   0.98804   0.00000  Uiso   1.00
C629   C     0.70080   0.14150   0.71714   0.00000  Uiso   1.00
C630   C     0.98450   0.14150   0.71716   0.00000  Uiso   1.00
C631   C     0.83331   0.08735   0.75001   0.00000  Uiso   1.00
C632   C     0.85960   0.16631   0.65004   0.00000  Uiso   1.00
C633   C     0.93302   0.14324   0.51199   0.00000  Uiso   1.00
C634   C     0.87470   0.16365   0.59332   0.00000  Uiso   1.00
C635   C     0.74534   0.18478   0.93337   0.00000  Uiso   1.00
C636   C     0.73511   0.19803   0.98433   0.00000  Uiso   1.00
C637   C     0.76994   0.19400   0.51056   0.00000  Uiso   1.00
C638   C     0.82444   0.15763   0.93597   0.00000  Uiso   1.00
C639   C     0.84967   0.16385   0.51456   0.00000  Uiso   1.00
C640   C     0.89640   0.14723   0.98726   0.00000  Uiso   1.00
C641   C     0.90467   0.13226   0.93697   0.00000  Uiso   1.00
C642   C     0.86790   0.13489   0.91332   0.00000  Uiso   1.00
C643   C     0.83900   0.16938   0.56820   0.00000  Uiso   1.00
C644   C     0.92245   0.15222   0.56467   0.00000  Uiso   1.00
Cu645  Cu    0.78645   0.16666   0.75000   0.00000  Uiso   1.00
Cu646  Cu    0.88022   0.16667   0.75000   0.00000  Uiso   1.00
F647   F     0.93347   0.21744   0.81573   0.00000  Uiso   1.00
F648   F     0.94737   0.11287   0.91156   0.00000  Uiso   1.00
F649   F     0.71168   0.19265   0.90821   0.00000  Uiso   1.00
F650   F     0.76090   0.21530   0.55571   0.00000  Uiso   1.00
F651   F     0.69232   0.21809   0.50733   0.00000  Uiso   1.00
H652   H     0.90882   0.03737   0.75135   0.00000  Uiso   1.00
H653   H     0.75773   0.29597   0.74907   0.00000  Uiso   1.00
H654   H     0.69356   0.21194   0.80907   0.00000  Uiso   1.00
H655   H     0.72698   0.12130   0.69085   0.00000  Uiso   1.00
H656   H     0.97324   0.12136   0.69087   0.00000  Uiso   1.00
H657   H     0.96931   0.13182   0.99114   0.00000  Uiso   1.00
H658   H     0.80195   0.17504   0.59195   0.00000  Uiso   1.00
H659   H     0.87427   0.11865   0.87693   0.00000  Uiso   1.00
H660   H     0.90882   0.29611   0.75144   0.00000  Uiso   1.00
H661   H     0.95060   0.14767   0.58349   0.00000  Uiso   1.00
H662   H     0.75774   0.03722   0.74895   0.00000  Uiso   1.00
N663   N     0.71598   0.16666   0.74999   0.00000  Uiso   1.00
N664   N     0.95069   0.16669   0.75000   0.00000  Uiso   1.00
O665   O     0.79375   0.22678   0.75001   0.00000  Uiso   1.00
O666   O     0.87294   0.22679   0.75001   0.00000  Uiso   1.00
O667   O     0.77441   0.16665   0.82549   0.00000  Uiso   1.00
O668   O     0.85360   0.16666   0.82549   0.00000  Uiso   1.00
O669   O     0.79373   0.10654   0.75000   0.00000  Uiso   1.00
O670   O     0.87292   0.10655   0.75000   0.00000  Uiso   1.00
O671   O     0.81306   0.16667   0.67451   0.00000  Uiso   1.00
O672   O     0.89225   0.16668   0.67451   0.00000  Uiso   1.00
C673   C     0.16666   0.57932   0.75010   0.00000  Uiso   1.00
C674   C     0.12462   0.50052   0.90749   0.00000  Uiso   1.00
C675   C     0.20902   0.64543   0.75088   0.00000  Uiso   1.00
C676   C     0.14036   0.49863   0.85015   0.00000  Uiso   1.00
C677   C     0.20901   0.35466   0.75083   0.00000  Uiso   1.00
C678   C     0.16662   0.37607   0.75011   0.00000  Uiso   1.00
C679   C     0.12421   0.35458   0.74951   0.00000  Uiso   1.00
C680   C     0.12421   0.64534   0.74957   0.00000  Uiso   1.00
C681   C     0.16663   0.62393   0.75020   0.00000  Uiso   1.00
C682   C     0.29928   0.52523   0.78283   0.00000  Uiso   1.00
C683   C     0.01554   0.52513   0.78284   0.00000  Uiso   1.00
C684   C     0.14761   0.50500   0.98804   0.00000  Uiso   1.00
C685   C     0.03414   0.47483   0.71714   0.00000  Uiso   1.00
C686   C     0.31784   0.47484   0.71716   0.00000  Uiso   1.00
C687   C     0.16664   0.42068   0.75001   0.00000  Uiso   1.00
C688   C     0.19293   0.49964   0.65004   0.00000  Uiso   1.00
C689   C     0.26635   0.47657   0.51199   0.00000  Uiso   1.00
C690   C     0.20803   0.49698   0.59332   0.00000  Uiso   1.00
C691   C     0.07867   0.51811   0.93337   0.00000  Uiso   1.00
C692   C     0.06845   0.53137   0.98433   0.00000  Uiso   1.00
C693   C     0.10327   0.52733   0.51056   0.00000  Uiso   1.00
C694   C     0.15777   0.49096   0.93597   0.00000  Uiso   1.00
C695   C     0.18301   0.49718   0.51456   0.00000  Uiso   1.00
C696   C     0.22974   0.48056   0.98726   0.00000  Uiso   1.00
C697   C     0.23800   0.46559   0.93697   0.00000  Uiso   1.00
C698   C     0.20124   0.46822   0.91332   0.00000  Uiso   1.00
C699   C     0.17233   0.50272   0.56820   0.00000  Uiso   1.00
C700   C     0.25578   0.48555   0.56467   0.00000  Uiso   1.00
Cu701  Cu    0.11978   0.49999   0.75000   0.00000  Uiso   1.00
Cu702  Cu    0.21355   0.50001   0.75000   0.00000  Uiso   1.00
F703   F     0.26680   0.55077   0.81573   0.00000  Uiso   1.00
F704   F     0.28071   0.44620   0.91156   0.00000  Uiso   1.00
F705   F     0.04502   0.52598   0.90821   0.00000  Uiso   1.00
F706   F     0.09423   0.54863   0.55571   0.00000  Uiso   1.00
F707   F     0.02565   0.55142   0.50733   0.00000  Uiso   1.00
H708   H     0.24216   0.37070   0.75135   0.00000  Uiso   1.00
H709   H     0.09106   0.62930   0.74907   0.00000  Uiso   1.00
H710   H     0.02689   0.54528   0.80907   0.00000  Uiso   1.00
H711   H     0.06032   0.45463   0.69085   0.00000  Uiso   1.00
H712   H     0.30657   0.45469   0.69087   0.00000  Uiso   1.00
H713   H     0.30264   0.46515   0.99114   0.00000  Uiso   1.00
H714   H     0.13529   0.50837   0.59195   0.00000  Uiso   1.00
H715   H     0.20760   0.45199   0.87693   0.00000  Uiso   1.00
H716   H     0.24216   0.62945   0.75144   0.00000  Uiso   1.00
H717   H     0.28394   0.48101   0.58349   0.00000  Uiso   1.00
H718   H     0.09107   0.37055   0.74895   0.00000  Uiso   1.00
N719   N     0.04931   0.49999   0.74999   0.00000  Uiso   1.00
N720   N     0.28402   0.50002   0.75000   0.00000  Uiso   1.00
O721   O     0.12708   0.56011   0.75001   0.00000  Uiso   1.00
O722   O     0.20627   0.56012   0.75001   0.00000  Uiso   1.00
O723   O     0.10775   0.49998   0.82549   0.00000  Uiso   1.00
O724   O     0.18694   0.49999   0.82549   0.00000  Uiso   1.00
O725   O     0.12706   0.43988   0.75000   0.00000  Uiso   1.00
O726   O     0.20625   0.43989   0.75000   0.00000  Uiso   1.00
O727   O     0.14640   0.50001   0.67451   0.00000  Uiso   1.00
O728   O     0.22559   0.50002   0.67451   0.00000  Uiso   1.00
C729   C     0.49999   0.57932   0.75010   0.00000  Uiso   1.00
C730   C     0.45795   0.50052   0.90749   0.00000  Uiso   1.00
C731   C     0.54235   0.64543   0.75088   0.00000  Uiso   1.00
C732   C     0.47370   0.49863   0.85015   0.00000  Uiso   1.00
C733   C     0.54235   0.35466   0.75083   0.00000  Uiso   1.00
C734   C     0.49995   0.37607   0.75011   0.00000  Uiso   1.00
C735   C     0.45755   0.35458   0.74951   0.00000  Uiso   1.00
C736   C     0.45755   0.64534   0.74957   0.00000  Uiso   1.00
C737   C     0.49996   0.62393   0.75020   0.00000  Uiso   1.00
C738   C     0.63261   0.52523   0.78283   0.00000  Uiso   1.00
C739   C     0.34888   0.52513   0.78284   0.00000  Uiso   1.00
C740   C     0.48094   0.50500   0.98804   0.00000  Uiso   1.00
C741   C     0.36747   0.47483   0.71714   0.00000  Uiso   1.00
C742   C     0.65117   0.47484   0.71716   0.00000  Uiso   1.00
C743   C     0.49997   0.42068   0.75001   0.00000  Uiso   1.00
C744   C     0.52627   0.49964   0.65004   0.00000  Uiso   1.00
C745   C     0.59969   0.47657   0.51199   0.00000  Uiso   1.00
C746   C     0.54136   0.49698   0.59332   0.00000  Uiso   1.00
C747   C     0.41201   0.51811   0.93337   0.00000  Uiso   1.00
C748   C     0.40178   0.53137   0.98433   0.00000  Uiso   1.00
C749   C     0.43660   0.52733   0.51056   0.00000  Uiso   1.00
C750   C     0.49111   0.49096   0.93597   0.00000  Uiso   1.00
C751   C     0.51634   0.49718   0.51456   0.00000  Uiso   1.00
C752   C     0.56307   0.48056   0.98726   0.00000  Uiso   1.00
C753   C     0.57133   0.46559   0.93697   0.00000  Uiso   1.00
C754   C     0.53457   0.46822   0.91332   0.00000  Uiso   1.00
C755   C     0.50567   0.50272   0.56820   0.00000  Uiso   1.00
C756   C     0.58911   0.48555   0.56467   0.00000  Uiso   1.00
Cu757  Cu    0.45311   0.49999   0.75000   0.00000  Uiso   1.00
Cu758  Cu    0.54689   0.50001   0.75000   0.00000  Uiso   1.00
F759   F     0.60014   0.55077   0.81573   0.00000  Uiso   1.00
F760   F     0.61404   0.44620   0.91156   0.00000  Uiso   1.00
F761   F     0.37835   0.52598   0.90821   0.00000  Uiso   1.00
F762   F     0.42757   0.54863   0.55571   0.00000  Uiso   1.00
F763   F     0.35899   0.55142   0.50733   0.00000  Uiso   1.00
H764   H     0.57549   0.37070   0.75135   0.00000  Uiso   1.00
H765   H     0.42440   0.62930   0.74907   0.00000  Uiso   1.00
H766   H     0.36023   0.54528   0.80907   0.00000  Uiso   1.00
H767   H     0.39365   0.45463   0.69085   0.00000  Uiso   1.00
H768   H     0.63990   0.45469   0.69087   0.00000  Uiso   1.00
H769   H     0.63598   0.46515   0.99114   0.00000  Uiso   1.00
H770   H     0.46862   0.50837   0.59195   0.00000  Uiso   1.00
H771   H     0.54094   0.45199   0.87693   0.00000  Uiso   1.00
H772   H     0.57549   0.62945   0.75144   0.00000  Uiso   1.00
H773   H     0.61727   0.48101   0.58349   0.00000  Uiso   1.00
H774   H     0.42441   0.37055   0.74895   0.00000  Uiso   1.00
N775   N     0.38265   0.49999   0.74999   0.00000  Uiso   1.00
N776   N     0.61735   0.50002   0.75000   0.00000  Uiso   1.00
O777   O     0.46042   0.56011   0.75001   0.00000  Uiso   1.00
O778   O     0.53961   0.56012   0.75001   0.00000  Uiso   1.00
O779   O     0.44108   0.49998   0.82549   0.00000  Uiso   1.00
O780   O     0.52027   0.49999   0.82549   0.00000  Uiso   1.00
O781   O     0.46039   0.43988   0.75000   0.00000  Uiso   1.00
O782   O     0.53958   0.43989   0.75000   0.00000  Uiso   1.00
O783   O     0.47973   0.50001   0.67451   0.00000  Uiso   1.00
O784   O     0.55892   0.50002   0.67451   0.00000  Uiso   1.00
C785   C     0.83333   0.57932   0.75010   0.00000  Uiso   1.00
C786   C     0.79129   0.50052   0.90749   0.00000  Uiso   1.00
C787   C     0.87568   0.64543   0.75088   0.00000  Uiso   1.00
C788   C     0.80703   0.49863   0.85015   0.00000  Uiso   1.00
C789   C     0.87568   0.35466   0.75083   0.00000  Uiso   1.00
C790   C     0.83329   0.37607   0.75011   0.00000  Uiso   1.00
C791   C     0.79088   0.35458   0.74951   0.00000  Uiso   1.00
C792   C     0.79088   0.64534   0.74957   0.00000  Uiso   1.00
C793   C     0.83330   0.62393   0.75020   0.00000  Uiso   1.00
C794   C     0.96595   0.52523   0.78283   0.00000  Uiso   1.00
C795   C     0.68221   0.52513   0.78284   0.00000  Uiso   1.00
C796   C     0.81428   0.50500   0.98804   0.00000  Uiso   1.00
C797   C     0.70080   0.47483   0.71714   0.00000  Uiso   1.00
C798   C     0.98450   0.47484   0.71716   0.00000  Uiso   1.00
C799   C     0.83331   0.42068   0.75001   0.00000  Uiso   1.00
C800   C     0.85960   0.49964   0.65004   0.00000  Uiso   1.00
C801   C     0.93302   0.47657   0.51199   0.00000  Uiso   1.00
C802   C     0.87470   0.49698   0.59332   0.00000  Uiso   1.00
C803   C     0.74534   0.51811   0.93337   0.00000  Uiso   1.00
C804   C     0.73511   0.53137   0.98433   0.00000  Uiso   1.00
C805   C     0.76994   0.52733   0.51056   0.00000  Uiso   1.00
C806   C     0.82444   0.49096   0.93597   0.00000  Uiso   1.00
C807   C     0.84967   0.49718   0.51456   0.00000  Uiso   1.00
C808   C     0.89640   0.48056   0.98726   0.00000  Uiso   1.00
C809   C     0.90467   0.46559   0.93697   0.00000  Uiso   1.00
C810   C     0.86790   0.46822   0.91332   0.00000  Uiso   1.00
C811   C     0.83900   0.50272   0.56820   0.00000  Uiso   1.00
C812   C     0.92245   0.48555   0.56467   0.00000  Uiso   1.00
Cu813  Cu    0.78645   0.49999   0.75000   0.00000  Uiso   1.00
Cu814  Cu    0.88022   0.50001   0.75000   0.00000  Uiso   1.00
F815   F     0.93347   0.55077   0.81573   0.00000  Uiso   1.00
F816   F     0.94737   0.44620   0.91156   0.00000  Uiso   1.00
F817   F     0.71168   0.52598   0.90821   0.00000  Uiso   1.00
F818   F     0.76090   0.54863   0.55571   0.00000  Uiso   1.00
F819   F     0.69232   0.55142   0.50733   0.00000  Uiso   1.00
H820   H     0.90882   0.37070   0.75135   0.00000  Uiso   1.00
H821   H     0.75773   0.62930   0.74907   0.00000  Uiso   1.00
H822   H     0.69356   0.54528   0.80907   0.00000  Uiso   1.00
H823   H     0.72698   0.45463   0.69085   0.00000  Uiso   1.00
H824   H     0.97324   0.45469   0.69087   0.00000  Uiso   1.00
H825   H     0.96931   0.46515   0.99114   0.00000  Uiso   1.00
H826   H     0.80195   0.50837   0.59195   0.00000  Uiso   1.00
H827   H     0.87427   0.45199   0.87693   0.00000  Uiso   1.00
H828   H     0.90882   0.62945   0.75144   0.00000  Uiso   1.00
H829   H     0.95060   0.48101   0.58349   0.00000  Uiso   1.00
H830   H     0.75774   0.37055   0.74895   0.00000  Uiso   1.00
N831   N     0.71598   0.49999   0.74999   0.00000  Uiso   1.00
N832   N     0.95069   0.50002   0.75000   0.00000  Uiso   1.00
O833   O     0.79375   0.56011   0.75001   0.00000  Uiso   1.00
O834   O     0.87294   0.56012   0.75001   0.00000  Uiso   1.00
O835   O     0.77441   0.49998   0.82549   0.00000  Uiso   1.00
O836   O     0.85360   0.49999   0.82549   0.00000  Uiso   1.00
O837   O     0.79373   0.43988   0.75000   0.00000  Uiso   1.00
O838   O     0.87292   0.43989   0.75000   0.00000  Uiso   1.00
O839   O     0.81306   0.50001   0.67451   0.00000  Uiso   1.00
O840   O     0.89225   0.50002   0.67451   0.00000  Uiso   1.00
C841   C     0.16666   0.91265   0.75010   0.00000  Uiso   1.00
C842   C     0.12462   0.83385   0.90749   0.00000  Uiso   1.00
C843   C     0.20902   0.97876   0.75088   0.00000  Uiso   1.00
C844   C     0.14036   0.83197   0.85015   0.00000  Uiso   1.00
C845   C     0.20901   0.68799   0.75083   0.00000  Uiso   1.00
C846   C     0.16662   0.70940   0.75011   0.00000  Uiso   1.00
C847   C     0.12421   0.68791   0.74951   0.00000  Uiso   1.00
C848   C     0.12421   0.97868   0.74957   0.00000  Uiso   1.00
C849   C     0.16663   0.95726   0.75020   0.00000  Uiso   1.00
C850   C     0.29928   0.85857   0.78283   0.00000  Uiso   1.00
C851   C     0.01554   0.85846   0.78284   0.00000  Uiso   1.00
C852   C     0.14761   0.83834   0.98804   0.00000  Uiso   1.00
C853   C     0.03414   0.80816   0.71714   0.00000  Uiso   1.00
C854   C     0.31784   0.80817   0.71716   0.00000  Uiso   1.00
C855   C     0.16664   0.75402   0.75001   0.00000  Uiso   1.00
C856   C     0.19293   0.83298   0.65004   0.00000  Uiso   1.00
C857   C     0.26635   0.80990   0.51199   0.00000  Uiso   1.00
C858   C     0.20803   0.83032   0.59332   0.00000  Uiso   1.00
C859   C     0.07867   0.85145   0.93337   0.00000  Uiso   1.00
C860   C     0.06845   0.86470   0.98433   0.00000  Uiso   1.00
C861   C     0.10327   0.86066   0.51056   0.00000  Uiso   1.00
C862   C     0.15777   0.82429   0.93597   0.00000  Uiso   1.00
C863   C     0.18301   0.83052   0.51456   0.00000  Uiso   1.00
C864   C     0.22974   0.81390   0.98726   0.00000  Uiso   1.00
C865   C     0.23800   0.79892   0.93697   0.00000  Uiso   1.00
C866   C     0.20124   0.80155   0.91332   0.00000  Uiso   1.00
C867   C     0.17233   0.83605   0.56820   0.00000  Uiso   1.00
C868   C     0.25578   0.81888   0.56467   0.00000  Uiso   1.00
Cu869  Cu    0.11978   0.83333   0.75000   0.00000  Uiso   1.00
Cu870  Cu    0.21355   0.83334   0.75000   0.00000  Uiso   1.00
F871   F     0.26680   0.88410   0.81573   0.00000  Uiso   1.00
F872   F     0.28071   0.77954   0.91156   0.00000  Uiso   1.00
F873   F     0.04502   0.85931   0.90821   0.00000  Uiso   1.00
F874   F     0.09423   0.88197   0.55571   0.00000  Uiso   1.00
F875   F     0.02565   0.88476   0.50733   0.00000  Uiso   1.00
H876   H     0.24216   0.70404   0.75135   0.00000  Uiso   1.00
H877   H     0.09106   0.96264   0.74907   0.00000  Uiso   1.00
H878   H     0.02689   0.87861   0.80907   0.00000  Uiso   1.00
H879   H     0.06032   0.78797   0.69085   0.00000  Uiso   1.00
H880   H     0.30657   0.78802   0.69087   0.00000  Uiso   1.00
H881   H     0.30264   0.79848   0.99114   0.00000  Uiso   1.00
H882   H     0.13529   0.84171   0.59195   0.00000  Uiso   1.00
H883   H     0.20760   0.78532   0.87693   0.00000  Uiso   1.00
H884   H     0.24216   0.96278   0.75144   0.00000  Uiso   1.00
H885   H     0.28394   0.81434   0.58349   0.00000  Uiso   1.00
H886   H     0.09107   0.70389   0.74895   0.00000  Uiso   1.00
N887   N     0.04931   0.83332   0.74999   0.00000  Uiso   1.00
N888   N     0.28402   0.83335   0.75000   0.00000  Uiso   1.00
O889   O     0.12708   0.89345   0.75001   0.00000  Uiso   1.00
O890   O     0.20627   0.89346   0.75001   0.00000  Uiso   1.00
O891   O     0.10775   0.83332   0.82549   0.00000  Uiso   1.00
O892   O     0.18694   0.83333   0.82549   0.00000  Uiso   1.00
O893   O     0.12706   0.77321   0.75000   0.00000  Uiso   1.00
O894   O     0.20625   0.77322   0.75000   0.00000  Uiso   1.00
O895   O     0.14640   0.83334   0.67451   0.00000  Uiso   1.00
O896   O     0.22559   0.83335   0.67451   0.00000  Uiso   1.00
C897   C     0.49999   0.91265   0.75010   0.00000  Uiso   1.00
C898   C     0.45795   0.83385   0.90749   0.00000  Uiso   1.00
C899   C     0.54235   0.97876   0.75088   0.00000  Uiso   1.00
C900   C     0.47370   0.83197   0.85015   0.00000  Uiso   1.00
C901   C     0.54235   0.68799   0.75083   0.00000  Uiso   1.00
C902   C     0.49995   0.70940   0.75011   0.00000  Uiso   1.00
C903   C     0.45755   0.68791   0.74951   0.00000  Uiso   1.00
C904   C     0.45755   0.97868   0.74957   0.00000  Uiso   1.00
C905   C     0.49996   0.95726   0.75020   0.00000  Uiso   1.00
C906   C     0.63261   0.85857   0.78283   0.00000  Uiso   1.00
C907   C     0.34888   0.85846   0.78284   0.00000  Uiso   1.00
C908   C     0.48094   0.83834   0.98804   0.00000  Uiso   1.00
C909   C     0.36747   0.80816   0.71714   0.00000  Uiso   1.00
C910   C     0.65117   0.80817   0.71716   0.00000  Uiso   1.00
C911   C     0.49997   0.75402   0.75001   0.00000  Uiso   1.00
C912   C     0.52627   0.83298   0.65004   0.00000  Uiso   1.00
C913   C     0.59969   0.80990   0.51199   0.00000  Uiso   1.00
C914   C     0.54136   0.83032   0.59332   0.00000  Uiso   1.00
C915   C     0.41201   0.85145   0.93337   0.00000  Uiso   1.00
C916   C     0.40178   0.86470   0.98433   0.00000  Uiso   1.00
C917   C     0.43660   0.86066   0.51056   0.00000  Uiso   1.00
C918   C     0.49111   0.82429   0.93597   0.00000  Uiso   1.00
C919   C     0.51634   0.83052   0.51456   0.00000  Uiso   1.00
C920   C     0.56307   0.81390   0.98726   0.00000  Uiso   1.00
C921   C     0.57133   0.79892   0.93697   0.00000  Uiso   1.00
C922   C     0.53457   0.80155   0.91332   0.00000  Uiso   1.00
C923   C     0.50567   0.83605   0.56820   0.00000  Uiso   1.00
C924   C     0.58911   0.81888   0.56467   0.00000  Uiso   1.00
Cu925  Cu    0.45311   0.83333   0.75000   0.00000  Uiso   1.00
Cu926  Cu    0.54689   0.83334   0.75000   0.00000  Uiso   1.00
F927   F     0.60014   0.88410   0.81573   0.00000  Uiso   1.00
F928   F     0.61404   0.77954   0.91156   0.00000  Uiso   1.00
F929   F     0.37835   0.85931   0.90821   0.00000  Uiso   1.00
F930   F     0.42757   0.88197   0.55571   0.00000  Uiso   1.00
F931   F     0.35899   0.88476   0.50733   0.00000  Uiso   1.00
H932   H     0.57549   0.70404   0.75135   0.00000  Uiso   1.00
H933   H     0.42440   0.96264   0.74907   0.00000  Uiso   1.00
H934   H     0.36023   0.87861   0.80907   0.00000  Uiso   1.00
H935   H     0.39365   0.78797   0.69085   0.00000  Uiso   1.00
H936   H     0.63990   0.78802   0.69087   0.00000  Uiso   1.00
H937   H     0.63598   0.79848   0.99114   0.00000  Uiso   1.00
H938   H     0.46862   0.84171   0.59195   0.00000  Uiso   1.00
H939   H     0.54094   0.78532   0.87693   0.00000  Uiso   1.00
H940   H     0.57549   0.96278   0.75144   0.00000  Uiso   1.00
H941   H     0.61727   0.81434   0.58349   0.00000  Uiso   1.00
H942   H     0.42441   0.70389   0.74895   0.00000  Uiso   1.00
N943   N     0.38265   0.83332   0.74999   0.00000  Uiso   1.00
N944   N     0.61735   0.83335   0.75000   0.00000  Uiso   1.00
O945   O     0.46042   0.89345   0.75001   0.00000  Uiso   1.00
O946   O     0.53961   0.89346   0.75001   0.00000  Uiso   1.00
O947   O     0.44108   0.83332   0.82549   0.00000  Uiso   1.00
O948   O     0.52027   0.83333   0.82549   0.00000  Uiso   1.00
O949   O     0.46039   0.77321   0.75000   0.00000  Uiso   1.00
O950   O     0.53958   0.77322   0.75000   0.00000  Uiso   1.00
O951   O     0.47973   0.83334   0.67451   0.00000  Uiso   1.00
O952   O     0.55892   0.83335   0.67451   0.00000  Uiso   1.00
C953   C     0.83333   0.91265   0.75010   0.00000  Uiso   1.00
C954   C     0.79129   0.83385   0.90749   0.00000  Uiso   1.00
C955   C     0.87568   0.97876   0.75088   0.00000  Uiso   1.00
C956   C     0.80703   0.83197   0.85015   0.00000  Uiso   1.00
C957   C     0.87568   0.68799   0.75083   0.00000  Uiso   1.00
C958   C     0.83329   0.70940   0.75011   0.00000  Uiso   1.00
C959   C     0.79088   0.68791   0.74951   0.00000  Uiso   1.00
C960   C     0.79088   0.97868   0.74957   0.00000  Uiso   1.00
C961   C     0.83330   0.95726   0.75020   0.00000  Uiso   1.00
C962   C     0.96595   0.85857   0.78283   0.00000  Uiso   1.00
C963   C     0.68221   0.85846   0.78284   0.00000  Uiso   1.00
C964   C     0.81428   0.83834   0.98804   0.00000  Uiso   1.00
C965   C     0.70080   0.80816   0.71714   0.00000  Uiso   1.00
C966   C     0.98450   0.80817   0.71716   0.00000  Uiso   1.00
C967   C     0.83331   0.75402   0.75001   0.00000  Uiso   1.00
C968   C     0.85960   0.83298   0.65004   0.00000  Uiso   1.00
C969   C     0.93302   0.80990   0.51199   0.00000  Uiso   1.00
C970   C     0.87470   0.83032   0.59332   0.00000  Uiso   1.00
C971   C     0.74534   0.85145   0.93337   0.00000  Uiso   1.00
C972   C     0.73511   0.86470   0.98433   0.00000  Uiso   1.00
C973   C     0.76994   0.86066   0.51056   0.00000  Uiso   1.00
C974   C     0.82444   0.82429   0.93597   0.00000  Uiso   1.00
C975   C     0.84967   0.83052   0.51456   0.00000  Uiso   1.00
C976   C     0.89640   0.81390   0.98726   0.00000  Uiso   1.00
C977   C     0.90467   0.79892   0.93697   0.00000  Uiso   1.00
C978   C     0.86790   0.80155   0.91332   0.00000  Uiso   1.00
C979   C     0.83900   0.83605   0.56820   0.00000  Uiso   1.00
C980   C     0.92245   0.81888   0.56467   0.00000  Uiso   1.00
Cu981  Cu    0.78645   0.83333   0.75000   0.00000  Uiso   1.00
Cu982  Cu    0.88022   0.83334   0.75000   0.00000  Uiso   1.00
F983   F     0.93347   0.88410   0.81573   0.00000  Uiso   1.00
F984   F     0.94737   0.77954   0.91156   0.00000  Uiso   1.00
F985   F     0.71168   0.85931   0.90821   0.00000  Uiso   1.00
F986   F     0.76090   0.88197   0.55571   0.00000  Uiso   1.00
F987   F     0.69232   0.88476   0.50733   0.00000  Uiso   1.00
H988   H     0.90882   0.70404   0.75135   0.00000  Uiso   1.00
H989   H     0.75773   0.96264   0.74907   0.00000  Uiso   1.00
H990   H     0.69356   0.87861   0.80907   0.00000  Uiso   1.00
H991   H     0.72698   0.78797   0.69085   0.00000  Uiso   1.00
H992   H     0.97324   0.78802   0.69087   0.00000  Uiso   1.00
H993   H     0.96931   0.79848   0.99114   0.00000  Uiso   1.00
H994   H     0.80195   0.84171   0.59195   0.00000  Uiso   1.00
H995   H     0.87427   0.78532   0.87693   0.00000  Uiso   1.00
H996   H     0.90882   0.96278   0.75144   0.00000  Uiso   1.00
H997   H     0.95060   0.81434   0.58349   0.00000  Uiso   1.00
H998   H     0.75774   0.70389   0.74895   0.00000  Uiso   1.00
N999   N     0.71598   0.83332   0.74999   0.00000  Uiso   1.00
N1000  N     0.95069   0.83335   0.75000   0.00000  Uiso   1.00
O1001  O     0.79375   0.89345   0.75001   0.00000  Uiso   1.00
O1002  O     0.87294   0.89346   0.75001   0.00000  Uiso   1.00
O1003  O     0.77441   0.83332   0.82549   0.00000  Uiso   1.00
O1004  O     0.85360   0.83333   0.82549   0.00000  Uiso   1.00
O1005  O     0.79373   0.77321   0.75000   0.00000  Uiso   1.00
O1006  O     0.87292   0.77322   0.75000   0.00000  Uiso   1.00
O1007  O     0.81306   0.83334   0.67451   0.00000  Uiso   1.00
O1008  O     0.89225   0.83335   0.67451   0.00000  Uiso   1.00
loop_
_geom_bond_atom_site_label_1
_geom_bond_atom_site_label_2
_geom_bond_distance
_geom_bond_site_symmetry_2
_ccdc_geom_bond_type
C1     O50     1.291   .     A
C1     C9      1.450   .     S
C1     O49     1.290   .     A
C2     C22     1.423   .     A
C2     C4      1.478   .     S
C2     C19     1.407   .     A
C3     C9      1.401   .     A
C3     H44     1.083   .     S
C3     C173    1.384   .     S
C4     O52     1.295   .     A
C4     O51     1.299   .     A
C5     C6      1.401   .     A
C5     H36     1.083   .     S
C5     C339    1.384   1_545 S
C6     C7      1.401   .     A
C6     C15     1.450   .     S
C7     H46     1.083   .     S
C7     C344    1.383   1_545 S
C8     H37     1.083   .     S
C8     C9      1.401   .     A
C8     C175    1.383   .     S
C10    N48     1.369   .     A
C10    F31     1.355   .     S
C10    C67     1.415   .     S
C11    H38     1.082   .     S
C11    N47     1.365   .     A
C11    C122    1.415   1_455 S
C12    C22     1.421   .     A
C12    C525    1.425   .     S
C12    C527    1.427   .     S
C13    H39     1.082   .     S
C13    N47     1.367   .     A
C13    C126    1.416   1_455 S
C14    H40     1.082   .     S
C14    N48     1.366   .     A
C14    C69     1.416   .     S
C15    O53     1.291   .     A
C15    O54     1.290   .     A
C16    O56     1.295   .     A
C16    O55     1.292   .     A
C16    C18     1.463   .     S
C17    C28     1.392   .     A
C17    C528    1.406   1_554 S
C17    H545    1.084   1_554 S
C18    C28     1.398   .     A
C18    C27     1.397   .     A
C19    C20     1.385   .     A
C19    F33     1.358   .     S
C20    C525    1.390   .     S
C20    F539    1.357   .     S
C21    F34     1.356   .     S
C21    C516    1.425   1_554 S
C21    C524    1.390   1_554 S
C22    C26     1.414   .     A
C23    C27     1.398   .     A
C23    C516    1.427   1_554 S
C23    C528    1.421   1_554 S
C24    C25     1.393   .     A
C24    C521    1.406   .     S
C24    C527    1.421   .     S
C25    F32     1.359   .     S
C25    C26     1.386   .     A
C26    H43     1.080   .     S
C27    H42     1.074   .     S
C28    H45     1.083   .     S
Cu29   O51     1.963   .     S
Cu29   O49     1.965   .     S
Cu29   Cu30    2.676   .     S
Cu29   O53     1.965   .     S
Cu29   N47     2.011   .     S
Cu29   O55     1.949   .     S
Cu30   O54     1.965   .     S
Cu30   N48     2.011   .     S
Cu30   O52     1.949   .     S
Cu30   O50     1.965   .     S
Cu30   O56     1.963   .     S
F35    C524    1.357   1_554 S
H41    C521    1.084   .     S
C57    O106    1.291   .     A
C57    C65     1.450   .     S
C57    O105    1.290   .     A
C58    C78     1.423   .     A
C58    C60     1.478   .     S
C58    C75     1.407   .     A
C59    C65     1.401   .     A
C59    H100    1.083   .     S
C59    C229    1.384   .     S
C60    O108    1.295   .     A
C60    O107    1.299   .     A
C61    C62     1.401   .     A
C61    H92     1.083   .     S
C61    C395    1.384   1_545 S
C62    C63     1.401   .     A
C62    C71     1.450   .     S
C63    H102    1.083   .     S
C63    C400    1.383   1_545 S
C64    H93     1.083   .     S
C64    C65     1.401   .     A
C64    C231    1.383   .     S
C66    N104    1.369   .     A
C66    F87     1.355   .     S
C66    C123    1.415   .     S
C67    H94     1.082   .     S
C67    N103    1.365   .     A
C68    C78     1.421   .     A
C68    C581    1.425   .     S
C68    C583    1.427   .     S
C69    H95     1.082   .     S
C69    N103    1.367   .     A
C70    H96     1.082   .     S
C70    N104    1.366   .     A
C70    C125    1.416   .     S
C71    O109    1.291   .     A
C71    O110    1.290   .     A
C72    O112    1.295   .     A
C72    O111    1.292   .     A
C72    C74     1.463   .     S
C73    C84     1.392   .     A
C73    C584    1.406   1_554 S
C73    H601    1.084   1_554 S
C74    C84     1.398   .     A
C74    C83     1.397   .     A
C75    C76     1.385   .     A
C75    F89     1.358   .     S
C76    C581    1.390   .     S
C76    F595    1.357   .     S
C77    F90     1.356   .     S
C77    C572    1.425   1_554 S
C77    C580    1.390   1_554 S
C78    C82     1.414   .     A
C79    C83     1.398   .     A
C79    C572    1.427   1_554 S
C79    C584    1.421   1_554 S
C80    C81     1.393   .     A
C80    C577    1.406   .     S
C80    C583    1.421   .     S
C81    F88     1.359   .     S
C81    C82     1.386   .     A
C82    H99     1.080   .     S
C83    H98     1.074   .     S
C84    H101    1.083   .     S
Cu85   O107    1.963   .     S
Cu85   O105    1.965   .     S
Cu85   Cu86    2.676   .     S
Cu85   O109    1.965   .     S
Cu85   N103    2.011   .     S
Cu85   O111    1.949   .     S
Cu86   O110    1.965   .     S
Cu86   N104    2.011   .     S
Cu86   O108    1.949   .     S
Cu86   O106    1.965   .     S
Cu86   O112    1.963   .     S
F91    C580    1.357   1_554 S
H97    C577    1.084   .     S
C113   O162    1.291   .     A
C113   C121    1.450   .     S
C113   O161    1.290   .     A
C114   C134    1.423   .     A
C114   C116    1.478   .     S
C114   C131    1.407   .     A
C115   C121    1.401   .     A
C115   H156    1.083   .     S
C115   C285    1.384   .     S
C116   O164    1.295   .     A
C116   O163    1.299   .     A
C117   C118    1.401   .     A
C117   H148    1.083   .     S
C117   C451    1.384   1_545 S
C118   C119    1.401   .     A
C118   C127    1.450   .     S
C119   H158    1.083   .     S
C119   C456    1.383   1_545 S
C120   H149    1.083   .     S
C120   C121    1.401   .     A
C120   C287    1.383   .     S
C122   N160    1.369   .     A
C122   F143    1.355   .     S
C122   C11     1.415   1_655 S
C123   H150    1.082   .     S
C123   N159    1.365   .     A
C124   C134    1.421   .     A
C124   C637    1.425   .     S
C124   C639    1.427   .     S
C125   H151    1.082   .     S
C125   N159    1.367   .     A
C126   H152    1.082   .     S
C126   N160    1.366   .     A
C126   C13     1.416   1_655 S
C127   O165    1.291   .     A
C127   O166    1.290   .     A
C128   O168    1.295   .     A
C128   O167    1.292   .     A
C128   C130    1.463   .     S
C129   C140    1.392   .     A
C129   C640    1.406   1_554 S
C129   H657    1.084   1_554 S
C130   C140    1.398   .     A
C130   C139    1.397   .     A
C131   C132    1.385   .     A
C131   F145    1.358   .     S
C132   C637    1.390   .     S
C132   F651    1.357   .     S
C133   F146    1.356   .     S
C133   C628    1.425   1_554 S
C133   C636    1.390   1_554 S
C134   C138    1.414   .     A
C135   C139    1.398   .     A
C135   C628    1.427   1_554 S
C135   C640    1.421   1_554 S
C136   C137    1.393   .     A
C136   C633    1.406   .     S
C136   C639    1.421   .     S
C137   F144    1.359   .     S
C137   C138    1.386   .     A
C138   H155    1.080   .     S
C139   H154    1.074   .     S
C140   H157    1.083   .     S
Cu141  O163    1.963   .     S
Cu141  O161    1.965   .     S
Cu141  Cu142   2.676   .     S
Cu141  O165    1.965   .     S
Cu141  N159    2.011   .     S
Cu141  O167    1.949   .     S
Cu142  O166    1.965   .     S
Cu142  N160    2.011   .     S
Cu142  O164    1.949   .     S
Cu142  O162    1.965   .     S
Cu142  O168    1.963   .     S
F147   C636    1.357   1_554 S
H153   C633    1.084   .     S
C169   O218    1.291   .     A
C169   C177    1.450   .     S
C169   O217    1.290   .     A
C170   C190    1.423   .     A
C170   C172    1.478   .     S
C170   C187    1.407   .     A
C171   C177    1.401   .     A
C171   H212    1.083   .     S
C171   C341    1.384   .     S
C172   O220    1.295   .     A
C172   O219    1.299   .     A
C173   C174    1.401   .     A
C173   H204    1.083   .     S
C174   C175    1.401   .     A
C174   C183    1.450   .     S
C175   H214    1.083   .     S
C176   H205    1.083   .     S
C176   C177    1.401   .     A
C176   C343    1.383   .     S
C178   N216    1.369   .     A
C178   F199    1.355   .     S
C178   C235    1.415   .     S
C179   H206    1.082   .     S
C179   N215    1.365   .     A
C179   C290    1.415   1_455 S
C180   C190    1.421   .     A
C180   C693    1.425   .     S
C180   C695    1.427   .     S
C181   H207    1.082   .     S
C181   N215    1.367   .     A
C181   C294    1.416   1_455 S
C182   H208    1.082   .     S
C182   N216    1.366   .     A
C182   C237    1.416   .     S
C183   O221    1.291   .     A
C183   O222    1.290   .     A
C184   O224    1.295   .     A
C184   O223    1.292   .     A
C184   C186    1.463   .     S
C185   C196    1.392   .     A
C185   C696    1.406   1_554 S
C185   H713    1.084   1_554 S
C186   C196    1.398   .     A
C186   C195    1.397   .     A
C187   C188    1.385   .     A
C187   F201    1.358   .     S
C188   C693    1.390   .     S
C188   F707    1.357   .     S
C189   F202    1.356   .     S
C189   C684    1.425   1_554 S
C189   C692    1.390   1_554 S
C190   C194    1.414   .     A
C191   C195    1.398   .     A
C191   C684    1.427   1_554 S
C191   C696    1.421   1_554 S
C192   C193    1.393   .     A
C192   C689    1.406   .     S
C192   C695    1.421   .     S
C193   F200    1.359   .     S
C193   C194    1.386   .     A
C194   H211    1.080   .     S
C195   H210    1.074   .     S
C196   H213    1.083   .     S
Cu197  O219    1.963   .     S
Cu197  O217    1.965   .     S
Cu197  Cu198   2.676   .     S
Cu197  O221    1.965   .     S
Cu197  N215    2.011   .     S
Cu197  O223    1.949   .     S
Cu198  O222    1.965   .     S
Cu198  N216    2.011   .     S
Cu198  O220    1.949   .     S
Cu198  O218    1.965   .     S
Cu198  O224    1.963   .     S
F203   C692    1.357   1_554 S
H209   C689    1.084   .     S
C225   O274    1.291   .     A
C225   C233    1.450   .     S
C225   O273    1.290   .     A
C226   C246    1.423   .     A
C226   C228    1.478   .     S
C226   C243    1.407   .     A
C227   C233    1.401   .     A
C227   H268    1.083   .     S
C227   C397    1.384   .     S
C228   O276    1.295   .     A
C228   O275    1.299   .     A
C229   C230    1.401   .     A
C229   H260    1.083   .     S
C230   C231    1.401   .     A
C230   C239    1.450   .     S
C231   H270    1.083   .     S
C232   H261    1.083   .     S
C232   C233    1.401   .     A
C232   C399    1.383   .     S
C234   N272    1.369   .     A
C234   F255    1.355   .     S
C234   C291    1.415   .     S
C235   H262    1.082   .     S
C235   N271    1.365   .     A
C236   C246    1.421   .     A
C236   C749    1.425   .     S
C236   C751    1.427   .     S
C237   H263    1.082   .     S
C237   N271    1.367   .     A
C238   H264    1.082   .     S
C238   N272    1.366   .     A
C238   C293    1.416   .     S
C239   O277    1.291   .     A
C239   O278    1.290   .     A
C240   O280    1.295   .     A
C240   O279    1.292   .     A
C240   C242    1.463   .     S
C241   C252    1.392   .     A
C241   C752    1.406   1_554 S
C241   H769    1.084   1_554 S
C242   C252    1.398   .     A
C242   C251    1.397   .     A
C243   C244    1.385   .     A
C243   F257    1.358   .     S
C244   C749    1.390   .     S
C244   F763    1.357   .     S
C245   F258    1.356   .     S
C245   C740    1.425   1_554 S
C245   C748    1.390   1_554 S
C246   C250    1.414   .     A
C247   C251    1.398   .     A
C247   C740    1.427   1_554 S
C247   C752    1.421   1_554 S
C248   C249    1.393   .     A
C248   C745    1.406   .     S
C248   C751    1.421   .     S
C249   F256    1.359   .     S
C249   C250    1.386   .     A
C250   H267    1.080   .     S
C251   H266    1.074   .     S
C252   H269    1.083   .     S
Cu253  O275    1.963   .     S
Cu253  O273    1.965   .     S
Cu253  Cu254   2.676   .     S
Cu253  O277    1.965   .     S
Cu253  N271    2.011   .     S
Cu253  O279    1.949   .     S
Cu254  O278    1.965   .     S
Cu254  N272    2.011   .     S
Cu254  O276    1.949   .     S
Cu254  O274    1.965   .     S
Cu254  O280    1.963   .     S
F259   C748    1.357   1_554 S
H265   C745    1.084   .     S
C281   O330    1.291   .     A
C281   C289    1.450   .     S
C281   O329    1.290   .     A
C282   C302    1.423   .     A
C282   C284    1.478   .     S
C282   C299    1.407   .     A
C283   C289    1.401   .     A
C283   H324    1.083   .     S
C283   C453    1.384   .     S
C284   O332    1.295   .     A
C284   O331    1.299   .     A
C285   C286    1.401   .     A
C285   H316    1.083   .     S
C286   C287    1.401   .     A
C286   C295    1.450   .     S
C287   H326    1.083   .     S
C288   H317    1.083   .     S
C288   C289    1.401   .     A
C288   C455    1.383   .     S
C290   N328    1.369   .     A
C290   F311    1.355   .     S
C290   C179    1.415   1_655 S
C291   H318    1.082   .     S
C291   N327    1.365   .     A
C292   C302    1.421   .     A
C292   C805    1.425   .     S
C292   C807    1.427   .     S
C293   H319    1.082   .     S
C293   N327    1.367   .     A
C294   H320    1.082   .     S
C294   N328    1.366   .     A
C294   C181    1.416   1_655 S
C295   O333    1.291   .     A
C295   O334    1.290   .     A
C296   O336    1.295   .     A
C296   O335    1.292   .     A
C296   C298    1.463   .     S
C297   C308    1.392   .     A
C297   C808    1.406   1_554 S
C297   H825    1.084   1_554 S
C298   C308    1.398   .     A
C298   C307    1.397   .     A
C299   C300    1.385   .     A
C299   F313    1.358   .     S
C300   C805    1.390   .     S
C300   F819    1.357   .     S
C301   F314    1.356   .     S
C301   C796    1.425   1_554 S
C301   C804    1.390   1_554 S
C302   C306    1.414   .     A
C303   C307    1.398   .     A
C303   C796    1.427   1_554 S
C303   C808    1.421   1_554 S
C304   C305    1.393   .     A
C304   C801    1.406   .     S
C304   C807    1.421   .     S
C305   F312    1.359   .     S
C305   C306    1.386   .     A
C306   H323    1.080   .     S
C307   H322    1.074   .     S
C308   H325    1.083   .     S
Cu309  O331    1.963   .     S
Cu309  O329    1.965   .     S
Cu309  Cu310   2.676   .     S
Cu309  O333    1.965   .     S
Cu309  N327    2.011   .     S
Cu309  O335    1.949   .     S
Cu310  O334    1.965   .     S
Cu310  N328    2.011   .     S
Cu310  O332    1.949   .     S
Cu310  O330    1.965   .     S
Cu310  O336    1.963   .     S
F315   C804    1.357   1_554 S
H321   C801    1.084   .     S
C337   O386    1.291   .     A
C337   C345    1.450   .     S
C337   O385    1.290   .     A
C338   C358    1.423   .     A
C338   C340    1.478   .     S
C338   C355    1.407   .     A
C339   C345    1.401   .     A
C339   H380    1.083   .     S
C339   C5      1.384   1_565 S
C340   O388    1.295   .     A
C340   O387    1.299   .     A
C341   C342    1.401   .     A
C341   H372    1.083   .     S
C342   C343    1.401   .     A
C342   C351    1.450   .     S
C343   H382    1.083   .     S
C344   H373    1.083   .     S
C344   C345    1.401   .     A
C344   C7      1.383   1_565 S
C346   N384    1.369   .     A
C346   F367    1.355   .     S
C346   C403    1.415   .     S
C347   H374    1.082   .     S
C347   N383    1.365   .     A
C347   C458    1.415   1_455 S
C348   C358    1.421   .     A
C348   C861    1.425   .     S
C348   C863    1.427   .     S
C349   H375    1.082   .     S
C349   N383    1.367   .     A
C349   C462    1.416   1_455 S
C350   H376    1.082   .     S
C350   N384    1.366   .     A
C350   C405    1.416   .     S
C351   O389    1.291   .     A
C351   O390    1.290   .     A
C352   O392    1.295   .     A
C352   O391    1.292   .     A
C352   C354    1.463   .     S
C353   C364    1.392   .     A
C353   C864    1.406   1_554 S
C353   H881    1.084   1_554 S
C354   C364    1.398   .     A
C354   C363    1.397   .     A
C355   C356    1.385   .     A
C355   F369    1.358   .     S
C356   C861    1.390   .     S
C356   F875    1.357   .     S
C357   F370    1.356   .     S
C357   C852    1.425   1_554 S
C357   C860    1.390   1_554 S
C358   C362    1.414   .     A
C359   C363    1.398   .     A
C359   C852    1.427   1_554 S
C359   C864    1.421   1_554 S
C360   C361    1.393   .     A
C360   C857    1.406   .     S
C360   C863    1.421   .     S
C361   F368    1.359   .     S
C361   C362    1.386   .     A
C362   H379    1.080   .     S
C363   H378    1.074   .     S
C364   H381    1.083   .     S
Cu365  O387    1.963   .     S
Cu365  O385    1.965   .     S
Cu365  Cu366   2.676   .     S
Cu365  O389    1.965   .     S
Cu365  N383    2.011   .     S
Cu365  O391    1.949   .     S
Cu366  O390    1.965   .     S
Cu366  N384    2.011   .     S
Cu366  O388    1.949   .     S
Cu366  O386    1.965   .     S
Cu366  O392    1.963   .     S
F371   C860    1.357   1_554 S
H377   C857    1.084   .     S
C393   O442    1.291   .     A
C393   C401    1.450   .     S
C393   O441    1.290   .     A
C394   C414    1.423   .     A
C394   C396    1.478   .     S
C394   C411    1.407   .     A
C395   C401    1.401   .     A
C395   H436    1.083   .     S
C395   C61     1.384   1_565 S
C396   O444    1.295   .     A
C396   O443    1.299   .     A
C397   C398    1.401   .     A
C397   H428    1.083   .     S
C398   C399    1.401   .     A
C398   C407    1.450   .     S
C399   H438    1.083   .     S
C400   H429    1.083   .     S
C400   C401    1.401   .     A
C400   C63     1.383   1_565 S
C402   N440    1.369   .     A
C402   F423    1.355   .     S
C402   C459    1.415   .     S
C403   H430    1.082   .     S
C403   N439    1.365   .     A
C404   C414    1.421   .     A
C404   C917    1.425   .     S
C404   C919    1.427   .     S
C405   H431    1.082   .     S
C405   N439    1.367   .     A
C406   H432    1.082   .     S
C406   N440    1.366   .     A
C406   C461    1.416   .     S
C407   O445    1.291   .     A
C407   O446    1.290   .     A
C408   O448    1.295   .     A
C408   O447    1.292   .     A
C408   C410    1.463   .     S
C409   C420    1.392   .     A
C409   C920    1.406   1_554 S
C409   H937    1.084   1_554 S
C410   C420    1.398   .     A
C410   C419    1.397   .     A
C411   C412    1.385   .     A
C411   F425    1.358   .     S
C412   C917    1.390   .     S
C412   F931    1.357   .     S
C413   F426    1.356   .     S
C413   C908    1.425   1_554 S
C413   C916    1.390   1_554 S
C414   C418    1.414   .     A
C415   C419    1.398   .     A
C415   C908    1.427   1_554 S
C415   C920    1.421   1_554 S
C416   C417    1.393   .     A
C416   C913    1.406   .     S
C416   C919    1.421   .     S
C417   F424    1.359   .     S
C417   C418    1.386   .     A
C418   H435    1.080   .     S
C419   H434    1.074   .     S
C420   H437    1.083   .     S
Cu421  O443    1.963   .     S
Cu421  O441    1.965   .     S
Cu421  Cu422   2.676   .     S
Cu421  O445    1.965   .     S
Cu421  N439    2.011   .     S
Cu421  O447    1.949   .     S
Cu422  O446    1.965   .     S
Cu422  N440    2.011   .     S
Cu422  O444    1.949   .     S
Cu422  O442    1.965   .     S
Cu422  O448    1.963   .     S
F427   C916    1.357   1_554 S
H433   C913    1.084   .     S
C449   O498    1.291   .     A
C449   C457    1.450   .     S
C449   O497    1.290   .     A
C450   C470    1.423   .     A
C450   C452    1.478   .     S
C450   C467    1.407   .     A
C451   C457    1.401   .     A
C451   H492    1.083   .     S
C451   C117    1.384   1_565 S
C452   O500    1.295   .     A
C452   O499    1.299   .     A
C453   C454    1.401   .     A
C453   H484    1.083   .     S
C454   C455    1.401   .     A
C454   C463    1.450   .     S
C455   H494    1.083   .     S
C456   H485    1.083   .     S
C456   C457    1.401   .     A
C456   C119    1.383   1_565 S
C458   N496    1.369   .     A
C458   F479    1.355   .     S
C458   C347    1.415   1_655 S
C459   H486    1.082   .     S
C459   N495    1.365   .     A
C460   C470    1.421   .     A
C460   C973    1.425   .     S
C460   C975    1.427   .     S
C461   H487    1.082   .     S
C461   N495    1.367   .     A
C462   H488    1.082   .     S
C462   N496    1.366   .     A
C462   C349    1.416   1_655 S
C463   O501    1.291   .     A
C463   O502    1.290   .     A
C464   O504    1.295   .     A
C464   O503    1.292   .     A
C464   C466    1.463   .     S
C465   C476    1.392   .     A
C465   C976    1.406   1_554 S
C465   H993    1.084   1_554 S
C466   C476    1.398   .     A
C466   C475    1.397   .     A
C467   C468    1.385   .     A
C467   F481    1.358   .     S
C468   C973    1.390   .     S
C468   F987    1.357   .     S
C469   F482    1.356   .     S
C469   C964    1.425   1_554 S
C469   C972    1.390   1_554 S
C470   C474    1.414   .     A
C471   C475    1.398   .     A
C471   C964    1.427   1_554 S
C471   C976    1.421   1_554 S
C472   C473    1.393   .     A
C472   C969    1.406   .     S
C472   C975    1.421   .     S
C473   F480    1.359   .     S
C473   C474    1.386   .     A
C474   H491    1.080   .     S
C475   H490    1.074   .     S
C476   H493    1.083   .     S
Cu477  O499    1.963   .     S
Cu477  O497    1.965   .     S
Cu477  Cu478   2.676   .     S
Cu477  O501    1.965   .     S
Cu477  N495    2.011   .     S
Cu477  O503    1.949   .     S
Cu478  O502    1.965   .     S
Cu478  N496    2.011   .     S
Cu478  O500    1.949   .     S
Cu478  O498    1.965   .     S
Cu478  O504    1.963   .     S
F483   C972    1.357   1_554 S
H489   C969    1.084   .     S
C505   O554    1.291   .     A
C505   C513    1.450   .     S
C505   O553    1.290   .     A
C506   C526    1.423   .     A
C506   C508    1.478   .     S
C506   C523    1.407   .     A
C507   C513    1.401   .     A
C507   H548    1.083   .     S
C507   C677    1.384   .     S
C508   O556    1.295   .     A
C508   O555    1.299   .     A
C509   C510    1.401   .     A
C509   H540    1.083   .     S
C509   C843    1.384   1_545 S
C510   C511    1.401   .     A
C510   C519    1.450   .     S
C511   H550    1.083   .     S
C511   C848    1.383   1_545 S
C512   H541    1.083   .     S
C512   C513    1.401   .     A
C512   C679    1.383   .     S
C514   N552    1.369   .     A
C514   F535    1.355   .     S
C514   C571    1.415   .     S
C515   H542    1.082   .     S
C515   N551    1.365   .     A
C515   C626    1.415   1_455 S
C516   C526    1.421   .     A
C516   C21     1.425   1_556 S
C516   C23     1.427   1_556 S
C517   H543    1.082   .     S
C517   N551    1.367   .     A
C517   C630    1.416   1_455 S
C518   H544    1.082   .     S
C518   N552    1.366   .     A
C518   C573    1.416   .     S
C519   O557    1.291   .     A
C519   O558    1.290   .     A
C520   O560    1.295   .     A
C520   O559    1.292   .     A
C520   C522    1.463   .     S
C521   C532    1.392   .     A
C522   C532    1.398   .     A
C522   C531    1.397   .     A
C523   C524    1.385   .     A
C523   F537    1.358   .     S
C524   C21     1.390   1_556 S
C524   F35     1.357   1_556 S
C525   F538    1.356   .     S
C526   C530    1.414   .     A
C527   C531    1.398   .     A
C528   C529    1.393   .     A
C528   C17     1.406   1_556 S
C528   C23     1.421   1_556 S
C529   F536    1.359   .     S
C529   C530    1.386   .     A
C530   H547    1.080   .     S
C531   H546    1.074   .     S
C532   H549    1.083   .     S
Cu533  O555    1.963   .     S
Cu533  O553    1.965   .     S
Cu533  Cu534   2.676   .     S
Cu533  O557    1.965   .     S
Cu533  N551    2.011   .     S
Cu533  O559    1.949   .     S
Cu534  O558    1.965   .     S
Cu534  N552    2.011   .     S
Cu534  O556    1.949   .     S
Cu534  O554    1.965   .     S
Cu534  O560    1.963   .     S
H545   C17     1.084   1_556 S
C561   O610    1.291   .     A
C561   C569    1.450   .     S
C561   O609    1.290   .     A
C562   C582    1.423   .     A
C562   C564    1.478   .     S
C562   C579    1.407   .     A
C563   C569    1.401   .     A
C563   H604    1.083   .     S
C563   C733    1.384   .     S
C564   O612    1.295   .     A
C564   O611    1.299   .     A
C565   C566    1.401   .     A
C565   H596    1.083   .     S
C565   C899    1.384   1_545 S
C566   C567    1.401   .     A
C566   C575    1.450   .     S
C567   H606    1.083   .     S
C567   C904    1.383   1_545 S
C568   H597    1.083   .     S
C568   C569    1.401   .     A
C568   C735    1.383   .     S
C570   N608    1.369   .     A
C570   F591    1.355   .     S
C570   C627    1.415   .     S
C571   H598    1.082   .     S
C571   N607    1.365   .     A
C572   C582    1.421   .     A
C572   C77     1.425   1_556 S
C572   C79     1.427   1_556 S
C573   H599    1.082   .     S
C573   N607    1.367   .     A
C574   H600    1.082   .     S
C574   N608    1.366   .     A
C574   C629    1.416   .     S
C575   O613    1.291   .     A
C575   O614    1.290   .     A
C576   O616    1.295   .     A
C576   O615    1.292   .     A
C576   C578    1.463   .     S
C577   C588    1.392   .     A
C578   C588    1.398   .     A
C578   C587    1.397   .     A
C579   C580    1.385   .     A
C579   F593    1.358   .     S
C580   C77     1.390   1_556 S
C580   F91     1.357   1_556 S
C581   F594    1.356   .     S
C582   C586    1.414   .     A
C583   C587    1.398   .     A
C584   C585    1.393   .     A
C584   C73     1.406   1_556 S
C584   C79     1.421   1_556 S
C585   F592    1.359   .     S
C585   C586    1.386   .     A
C586   H603    1.080   .     S
C587   H602    1.074   .     S
C588   H605    1.083   .     S
Cu589  O611    1.963   .     S
Cu589  O609    1.965   .     S
Cu589  Cu590   2.676   .     S
Cu589  O613    1.965   .     S
Cu589  N607    2.011   .     S
Cu589  O615    1.949   .     S
Cu590  O614    1.965   .     S
Cu590  N608    2.011   .     S
Cu590  O612    1.949   .     S
Cu590  O610    1.965   .     S
Cu590  O616    1.963   .     S
H601   C73     1.084   1_556 S
C617   O666    1.291   .     A
C617   C625    1.450   .     S
C617   O665    1.290   .     A
C618   C638    1.423   .     A
C618   C620    1.478   .     S
C618   C635    1.407   .     A
C619   C625    1.401   .     A
C619   H660    1.083   .     S
C619   C789    1.384   .     S
C620   O668    1.295   .     A
C620   O667    1.299   .     A
C621   C622    1.401   .     A
C621   H652    1.083   .     S
C621   C955    1.384   1_545 S
C622   C623    1.401   .     A
C622   C631    1.450   .     S
C623   H662    1.083   .     S
C623   C960    1.383   1_545 S
C624   H653    1.083   .     S
C624   C625    1.401   .     A
C624   C791    1.383   .     S
C626   N664    1.369   .     A
C626   F647    1.355   .     S
C626   C515    1.415   1_655 S
C627   H654    1.082   .     S
C627   N663    1.365   .     A
C628   C638    1.421   .     A
C628   C133    1.425   1_556 S
C628   C135    1.427   1_556 S
C629   H655    1.082   .     S
C629   N663    1.367   .     A
C630   H656    1.082   .     S
C630   N664    1.366   .     A
C630   C517    1.416   1_655 S
C631   O669    1.291   .     A
C631   O670    1.290   .     A
C632   O672    1.295   .     A
C632   O671    1.292   .     A
C632   C634    1.463   .     S
C633   C644    1.392   .     A
C634   C644    1.398   .     A
C634   C643    1.397   .     A
C635   C636    1.385   .     A
C635   F649    1.358   .     S
C636   C133    1.390   1_556 S
C636   F147    1.357   1_556 S
C637   F650    1.356   .     S
C638   C642    1.414   .     A
C639   C643    1.398   .     A
C640   C641    1.393   .     A
C640   C129    1.406   1_556 S
C640   C135    1.421   1_556 S
C641   F648    1.359   .     S
C641   C642    1.386   .     A
C642   H659    1.080   .     S
C643   H658    1.074   .     S
C644   H661    1.083   .     S
Cu645  O667    1.963   .     S
Cu645  O665    1.965   .     S
Cu645  Cu646   2.676   .     S
Cu645  O669    1.965   .     S
Cu645  N663    2.011   .     S
Cu645  O671    1.949   .     S
Cu646  O670    1.965   .     S
Cu646  N664    2.011   .     S
Cu646  O668    1.949   .     S
Cu646  O666    1.965   .     S
Cu646  O672    1.963   .     S
H657   C129    1.084   1_556 S
C673   O722    1.291   .     A
C673   C681    1.450   .     S
C673   O721    1.290   .     A
C674   C694    1.423   .     A
C674   C676    1.478   .     S
C674   C691    1.407   .     A
C675   C681    1.401   .     A
C675   H716    1.083   .     S
C675   C845    1.384   .     S
C676   O724    1.295   .     A
C676   O723    1.299   .     A
C677   C678    1.401   .     A
C677   H708    1.083   .     S
C678   C679    1.401   .     A
C678   C687    1.450   .     S
C679   H718    1.083   .     S
C680   H709    1.083   .     S
C680   C681    1.401   .     A
C680   C847    1.383   .     S
C682   N720    1.369   .     A
C682   F703    1.355   .     S
C682   C739    1.415   .     S
C683   H710    1.082   .     S
C683   N719    1.365   .     A
C683   C794    1.415   1_455 S
C684   C694    1.421   .     A
C684   C189    1.425   1_556 S
C684   C191    1.427   1_556 S
C685   H711    1.082   .     S
C685   N719    1.367   .     A
C685   C798    1.416   1_455 S
C686   H712    1.082   .     S
C686   N720    1.366   .     A
C686   C741    1.416   .     S
C687   O725    1.291   .     A
C687   O726    1.290   .     A
C688   O728    1.295   .     A
C688   O727    1.292   .     A
C688   C690    1.463   .     S
C689   C700    1.392   .     A
C690   C700    1.398   .     A
C690   C699    1.397   .     A
C691   C692    1.385   .     A
C691   F705    1.358   .     S
C692   C189    1.390   1_556 S
C692   F203    1.357   1_556 S
C693   F706    1.356   .     S
C694   C698    1.414   .     A
C695   C699    1.398   .     A
C696   C697    1.393   .     A
C696   C185    1.406   1_556 S
C696   C191    1.421   1_556 S
C697   F704    1.359   .     S
C697   C698    1.386   .     A
C698   H715    1.080   .     S
C699   H714    1.074   .     S
C700   H717    1.083   .     S
Cu701  O723    1.963   .     S
Cu701  O721    1.965   .     S
Cu701  Cu702   2.676   .     S
Cu701  O725    1.965   .     S
Cu701  N719    2.011   .     S
Cu701  O727    1.949   .     S
Cu702  O726    1.965   .     S
Cu702  N720    2.011   .     S
Cu702  O724    1.949   .     S
Cu702  O722    1.965   .     S
Cu702  O728    1.963   .     S
H713   C185    1.084   1_556 S
C729   O778    1.291   .     A
C729   C737    1.450   .     S
C729   O777    1.290   .     A
C730   C750    1.423   .     A
C730   C732    1.478   .     S
C730   C747    1.407   .     A
C731   C737    1.401   .     A
C731   H772    1.083   .     S
C731   C901    1.384   .     S
C732   O780    1.295   .     A
C732   O779    1.299   .     A
C733   C734    1.401   .     A
C733   H764    1.083   .     S
C734   C735    1.401   .     A
C734   C743    1.450   .     S
C735   H774    1.083   .     S
C736   H765    1.083   .     S
C736   C737    1.401   .     A
C736   C903    1.383   .     S
C738   N776    1.369   .     A
C738   F759    1.355   .     S
C738   C795    1.415   .     S
C739   H766    1.082   .     S
C739   N775    1.365   .     A
C740   C750    1.421   .     A
C740   C245    1.425   1_556 S
C740   C247    1.427   1_556 S
C741   H767    1.082   .     S
C741   N775    1.367   .     A
C742   H768    1.082   .     S
C742   N776    1.366   .     A
C742   C797    1.416   .     S
C743   O781    1.291   .     A
C743   O782    1.290   .     A
C744   O784    1.295   .     A
C744   O783    1.292   .     A
C744   C746    1.463   .     S
C745   C756    1.392   .     A
C746   C756    1.398   .     A
C746   C755    1.397   .     A
C747   C748    1.385   .     A
C747   F761    1.358   .     S
C748   C245    1.390   1_556 S
C748   F259    1.357   1_556 S
C749   F762    1.356   .     S
C750   C754    1.414   .     A
C751   C755    1.398   .     A
C752   C753    1.393   .     A
C752   C241    1.406   1_556 S
C752   C247    1.421   1_556 S
C753   F760    1.359   .     S
C753   C754    1.386   .     A
C754   H771    1.080   .     S
C755   H770    1.074   .     S
C756   H773    1.083   .     S
Cu757  O779    1.963   .     S
Cu757  O777    1.965   .     S
Cu757  Cu758   2.676   .     S
Cu757  O781    1.965   .     S
Cu757  N775    2.011   .     S
Cu757  O783    1.949   .     S
Cu758  O782    1.965   .     S
Cu758  N776    2.011   .     S
Cu758  O780    1.949   .     S
Cu758  O778    1.965   .     S
Cu758  O784    1.963   .     S
H769   C241    1.084   1_556 S
C785   O834    1.291   .     A
C785   C793    1.450   .     S
C785   O833    1.290   .     A
C786   C806    1.423   .     A
C786   C788    1.478   .     S
C786   C803    1.407   .     A
C787   C793    1.401   .     A
C787   H828    1.083   .     S
C787   C957    1.384   .     S
C788   O836    1.295   .     A
C788   O835    1.299   .     A
C789   C790    1.401   .     A
C789   H820    1.083   .     S
C790   C791    1.401   .     A
C790   C799    1.450   .     S
C791   H830    1.083   .     S
C792   H821    1.083   .     S
C792   C793    1.401   .     A
C792   C959    1.383   .     S
C794   N832    1.369   .     A
C794   F815    1.355   .     S
C794   C683    1.415   1_655 S
C795   H822    1.082   .     S
C795   N831    1.365   .     A
C796   C806    1.421   .     A
C796   C301    1.425   1_556 S
C796   C303    1.427   1_556 S
C797   H823    1.082   .     S
C797   N831    1.367   .     A
C798   H824    1.082   .     S
C798   N832    1.366   .     A
C798   C685    1.416   1_655 S
C799   O837    1.291   .     A
C799   O838    1.290   .     A
C800   O840    1.295   .     A
C800   O839    1.292   .     A
C800   C802    1.463   .     S
C801   C812    1.392   .     A
C802   C812    1.398   .     A
C802   C811    1.397   .     A
C803   C804    1.385   .     A
C803   F817    1.358   .     S
C804   C301    1.390   1_556 S
C804   F315    1.357   1_556 S
C805   F818    1.356   .     S
C806   C810    1.414   .     A
C807   C811    1.398   .     A
C808   C809    1.393   .     A
C808   C297    1.406   1_556 S
C808   C303    1.421   1_556 S
C809   F816    1.359   .     S
C809   C810    1.386   .     A
C810   H827    1.080   .     S
C811   H826    1.074   .     S
C812   H829    1.083   .     S
Cu813  O835    1.963   .     S
Cu813  O833    1.965   .     S
Cu813  Cu814   2.676   .     S
Cu813  O837    1.965   .     S
Cu813  N831    2.011   .     S
Cu813  O839    1.949   .     S
Cu814  O838    1.965   .     S
Cu814  N832    2.011   .     S
Cu814  O836    1.949   .     S
Cu814  O834    1.965   .     S
Cu814  O840    1.963   .     S
H825   C297    1.084   1_556 S
C841   O890    1.291   .     A
C841   C849    1.450   .     S
C841   O889    1.290   .     A
C842   C862    1.423   .     A
C842   C844    1.478   .     S
C842   C859    1.407   .     A
C843   C849    1.401   .     A
C843   H884    1.083   .     S
C843   C509    1.384   1_565 S
C844   O892    1.295   .     A
C844   O891    1.299   .     A
C845   C846    1.401   .     A
C845   H876    1.083   .     S
C846   C847    1.401   .     A
C846   C855    1.450   .     S
C847   H886    1.083   .     S
C848   H877    1.083   .     S
C848   C849    1.401   .     A
C848   C511    1.383   1_565 S
C850   N888    1.369   .     A
C850   F871    1.355   .     S
C850   C907    1.415   .     S
C851   H878    1.082   .     S
C851   N887    1.365   .     A
C851   C962    1.415   1_455 S
C852   C862    1.421   .     A
C852   C357    1.425   1_556 S
C852   C359    1.427   1_556 S
C853   H879    1.082   .     S
C853   N887    1.367   .     A
C853   C966    1.416   1_455 S
C854   H880    1.082   .     S
C854   N888    1.366   .     A
C854   C909    1.416   .     S
C855   O893    1.291   .     A
C855   O894    1.290   .     A
C856   O896    1.295   .     A
C856   O895    1.292   .     A
C856   C858    1.463   .     S
C857   C868    1.392   .     A
C858   C868    1.398   .     A
C858   C867    1.397   .     A
C859   C860    1.385   .     A
C859   F873    1.358   .     S
C860   C357    1.390   1_556 S
C860   F371    1.357   1_556 S
C861   F874    1.356   .     S
C862   C866    1.414   .     A
C863   C867    1.398   .     A
C864   C865    1.393   .     A
C864   C353    1.406   1_556 S
C864   C359    1.421   1_556 S
C865   F872    1.359   .     S
C865   C866    1.386   .     A
C866   H883    1.080   .     S
C867   H882    1.074   .     S
C868   H885    1.083   .     S
Cu869  O891    1.963   .     S
Cu869  O889    1.965   .     S
Cu869  Cu870   2.676   .     S
Cu869  O893    1.965   .     S
Cu869  N887    2.011   .     S
Cu869  O895    1.949   .     S
Cu870  O894    1.965   .     S
Cu870  N888    2.011   .     S
Cu870  O892    1.949   .     S
Cu870  O890    1.965   .     S
Cu870  O896    1.963   .     S
H881   C353    1.084   1_556 S
C897   O946    1.291   .     A
C897   C905    1.450   .     S
C897   O945    1.290   .     A
C898   C918    1.423   .     A
C898   C900    1.478   .     S
C898   C915    1.407   .     A
C899   C905    1.401   .     A
C899   H940    1.083   .     S
C899   C565    1.384   1_565 S
C900   O948    1.295   .     A
C900   O947    1.299   .     A
C901   C902    1.401   .     A
C901   H932    1.083   .     S
C902   C903    1.401   .     A
C902   C911    1.450   .     S
C903   H942    1.083   .     S
C904   H933    1.083   .     S
C904   C905    1.401   .     A
C904   C567    1.383   1_565 S
C906   N944    1.369   .     A
C906   F927    1.355   .     S
C906   C963    1.415   .     S
C907   H934    1.082   .     S
C907   N943    1.365   .     A
C908   C918    1.421   .     A
C908   C413    1.425   1_556 S
C908   C415    1.427   1_556 S
C909   H935    1.082   .     S
C909   N943    1.367   .     A
C910   H936    1.082   .     S
C910   N944    1.366   .     A
C910   C965    1.416   .     S
C911   O949    1.291   .     A
C911   O950    1.290   .     A
C912   O952    1.295   .     A
C912   O951    1.292   .     A
C912   C914    1.463   .     S
C913   C924    1.392   .     A
C914   C924    1.398   .     A
C914   C923    1.397   .     A
C915   C916    1.385   .     A
C915   F929    1.358   .     S
C916   C413    1.390   1_556 S
C916   F427    1.357   1_556 S
C917   F930    1.356   .     S
C918   C922    1.414   .     A
C919   C923    1.398   .     A
C920   C921    1.393   .     A
C920   C409    1.406   1_556 S
C920   C415    1.421   1_556 S
C921   F928    1.359   .     S
C921   C922    1.386   .     A
C922   H939    1.080   .     S
C923   H938    1.074   .     S
C924   H941    1.083   .     S
Cu925  O947    1.963   .     S
Cu925  O945    1.965   .     S
Cu925  Cu926   2.676   .     S
Cu925  O949    1.965   .     S
Cu925  N943    2.011   .     S
Cu925  O951    1.949   .     S
Cu926  O950    1.965   .     S
Cu926  N944    2.011   .     S
Cu926  O948    1.949   .     S
Cu926  O946    1.965   .     S
Cu926  O952    1.963   .     S
H937   C409    1.084   1_556 S
C953   O1002   1.291   .     A
C953   C961    1.450   .     S
C953   O1001   1.290   .     A
C954   C974    1.423   .     A
C954   C956    1.478   .     S
C954   C971    1.407   .     A
C955   C961    1.401   .     A
C955   H996    1.083   .     S
C955   C621    1.384   1_565 S
C956   O1004   1.295   .     A
C956   O1003   1.299   .     A
C957   C958    1.401   .     A
C957   H988    1.083   .     S
C958   C959    1.401   .     A
C958   C967    1.450   .     S
C959   H998    1.083   .     S
C960   H989    1.083   .     S
C960   C961    1.401   .     A
C960   C623    1.383   1_565 S
C962   N1000   1.369   .     A
C962   F983    1.355   .     S
C962   C851    1.415   1_655 S
C963   H990    1.082   .     S
C963   N999    1.365   .     A
C964   C974    1.421   .     A
C964   C469    1.425   1_556 S
C964   C471    1.427   1_556 S
C965   H991    1.082   .     S
C965   N999    1.367   .     A
C966   H992    1.082   .     S
C966   N1000   1.366   .     A
C966   C853    1.416   1_655 S
C967   O1005   1.291   .     A
C967   O1006   1.290   .     A
C968   O1008   1.295   .     A
C968   O1007   1.292   .     A
C968   C970    1.463   .     S
C969   C980    1.392   .     A
C970   C980    1.398   .     A
C970   C979    1.397   .     A
C971   C972    1.385   .     A
C971   F985    1.358   .     S
C972   C469    1.390   1_556 S
C972   F483    1.357   1_556 S
C973   F986    1.356   .     S
C974   C978    1.414   .     A
C975   C979    1.398   .     A
C976   C977    1.393   .     A
C976   C465    1.406   1_556 S
C976   C471    1.421   1_556 S
C977   F984    1.359   .     S
C977   C978    1.386   .     A
C978   H995    1.080   .     S
C979   H994    1.074   .     S
C980   H997    1.083   .     S
Cu981  O1003   1.963   .     S
Cu981  O1001   1.965   .     S
Cu981  Cu982   2.676   .     S
Cu981  O1005   1.965   .     S
Cu981  N999    2.011   .     S
Cu981  O1007   1.949   .     S
Cu982  O1006   1.965   .     S
Cu982  N1000   2.011   .     S
Cu982  O1004   1.949   .     S
Cu982  O1002   1.965   .     S
Cu982  O1008   1.963   .     S
H993   C465    1.084   1_556 S
