data_str_m2_o1_o10_pcu_sym.217
_audit_creation_date              2020-01-03
_audit_creation_method            'Materials Studio'
_symmetry_space_group_name_H-M    'P1'
_symmetry_Int_Tables_number       1
_symmetry_cell_setting            triclinic
loop_
_symmetry_equiv_pos_as_xyz
  x,y,z
_cell_length_a                    26.2574
_cell_length_b                    32.4458
_cell_length_c                    28.6237
_cell_angle_alpha                 90.3782
_cell_angle_beta                  97.5869
_cell_angle_gamma                 90.8422
loop_
_atom_site_label
_atom_site_type_symbol
_atom_site_fract_x
_atom_site_fract_y
_atom_site_fract_z
_atom_site_U_iso_or_equiv
_atom_site_adp_type
_atom_site_occupancy
C1     C     0.16667   0.08739   0.16657   0.00000  Uiso   1.00
C2     C     0.16674   0.24595   0.16678   0.00000  Uiso   1.00
C3     C     0.06818   0.16747   0.15491   0.00000  Uiso   1.00
C4     C     0.26516   0.16620   0.17840   0.00000  Uiso   1.00
C5     C     0.01365   0.17392   0.14964   0.00000  Uiso   1.00
C6     C     0.31970   0.16033   0.18358   0.00000  Uiso   1.00
C7     C     0.16938   0.02106   0.12456   0.00000  Uiso   1.00
C8     C     0.16436   0.31228   0.20886   0.00000  Uiso   1.00
C9     C     0.16936   0.31179   0.12467   0.00000  Uiso   1.00
C10    C     0.16427   0.02155   0.20874   0.00000  Uiso   1.00
C11    C     0.16684   0.29058   0.16682   0.00000  Uiso   1.00
C12    C     0.16677   0.04276   0.16658   0.00000  Uiso   1.00
C13    C     0.13445   0.14077   0.02029   0.00000  Uiso   1.00
C14    C     0.19893   0.19254   0.31305   0.00000  Uiso   1.00
C15    C     0.13467   0.14087   0.30414   0.00000  Uiso   1.00
C16    C     0.19878   0.19239   0.02919   0.00000  Uiso   1.00
Cu17   Cu    0.16667   0.16667   0.21355   0.00000  Uiso   1.00
Cu18   Cu    0.16667   0.16666   0.11978   0.00000  Uiso   1.00
H19    H     0.17148   0.03690   0.09166   0.00000  Uiso   1.00
H20    H     0.16234   0.29644   0.24178   0.00000  Uiso   1.00
H21    H     0.17149   0.29557   0.09180   0.00000  Uiso   1.00
H22    H     0.16218   0.03777   0.24162   0.00000  Uiso   1.00
H23    H     0.10940   0.12024   0.28172   0.00000  Uiso   1.00
H24    H     0.22433   0.21295   0.05152   0.00000  Uiso   1.00
N25    N     0.16668   0.16668   0.28403   0.00000  Uiso   1.00
N26    N     0.16665   0.16666   0.04931   0.00000  Uiso   1.00
O27    O     0.16666   0.10655   0.20625   0.00000  Uiso   1.00
O28    O     0.16667   0.22678   0.12709   0.00000  Uiso   1.00
O29    O     0.16666   0.10654   0.12706   0.00000  Uiso   1.00
O30    O     0.16667   0.22679   0.20628   0.00000  Uiso   1.00
O31    O     0.09161   0.16667   0.19712   0.00000  Uiso   1.00
O32    O     0.24172   0.16666   0.13621   0.00000  Uiso   1.00
O33    O     0.09161   0.16666   0.11793   0.00000  Uiso   1.00
O34    O     0.24172   0.16667   0.21540   0.00000  Uiso   1.00
O35    O     0.32343   0.19303   0.10919   0.00000  Uiso   1.00
C36    C     0.00573   0.23502   0.10843   0.00000  Uiso   1.00
H37    H     0.00060   0.24486   0.07102   0.00000  Uiso   1.00
H38    H     0.04712   0.24042   0.12182   0.00000  Uiso   1.00
C39    C     0.30539   0.26196   0.13570   0.00000  Uiso   1.00
H40    H     0.26445   0.25703   0.12110   0.00000  Uiso   1.00
H41    H     0.31041   0.25311   0.17345   0.00000  Uiso   1.00
C42    C     0.31917   0.30759   0.13219   0.00000  Uiso   1.00
H43    H     0.02627   0.31356   0.14799   0.00000  Uiso   1.00
H44    H     0.29345   0.32623   0.15148   0.00000  Uiso   1.00
H45    H     0.31418   0.31735   0.09476   0.00000  Uiso   1.00
O46    O     0.00868   0.13899   0.22277   0.00000  Uiso   1.00
C47    C     0.00046   0.09609   0.21469   0.00000  Uiso   1.00
H48    H     0.03331   0.08360   0.19845   0.00000  Uiso   1.00
H49    H     0.29758   0.08842   0.19088   0.00000  Uiso   1.00
C50    C     0.33073   0.07470   0.26168   0.00000  Uiso   1.00
H51    H     0.03384   0.07991   0.28548   0.00000  Uiso   1.00
H52    H     0.29890   0.08807   0.27861   0.00000  Uiso   1.00
C53    C     0.32120   0.02839   0.25492   0.00000  Uiso   1.00
H54    H     0.28385   0.02232   0.23265   0.00000  Uiso   1.00
H55    H     0.31997   0.01376   0.28972   0.00000  Uiso   1.00
H56    H     0.01924   0.01430   0.23803   0.00000  Uiso   1.00
C57    C     0.09975   0.11277   0.03940   0.00000  Uiso   1.00
N58    N     0.07170   0.09015   0.05451   0.00000  Uiso   1.00
C59    C     0.23369   0.22054   0.29397   0.00000  Uiso   1.00
N60    N     0.26178   0.24317   0.27894   0.00000  Uiso   1.00
C61    C     0.50001   0.08739   0.16657   0.00000  Uiso   1.00
C62    C     0.50007   0.24595   0.16678   0.00000  Uiso   1.00
C63    C     0.40151   0.16747   0.15491   0.00000  Uiso   1.00
C64    C     0.59849   0.16620   0.17840   0.00000  Uiso   1.00
C65    C     0.34699   0.17392   0.14964   0.00000  Uiso   1.00
C66    C     0.65303   0.16033   0.18358   0.00000  Uiso   1.00
C67    C     0.50271   0.02106   0.12456   0.00000  Uiso   1.00
C68    C     0.49769   0.31228   0.20886   0.00000  Uiso   1.00
C69    C     0.50270   0.31179   0.12467   0.00000  Uiso   1.00
C70    C     0.49760   0.02155   0.20874   0.00000  Uiso   1.00
C71    C     0.50017   0.29058   0.16682   0.00000  Uiso   1.00
C72    C     0.50010   0.04276   0.16658   0.00000  Uiso   1.00
C73    C     0.46779   0.14077   0.02029   0.00000  Uiso   1.00
C74    C     0.53226   0.19254   0.31305   0.00000  Uiso   1.00
C75    C     0.46801   0.14087   0.30414   0.00000  Uiso   1.00
C76    C     0.53211   0.19239   0.02919   0.00000  Uiso   1.00
Cu77   Cu    0.50000   0.16667   0.21355   0.00000  Uiso   1.00
Cu78   Cu    0.50000   0.16666   0.11978   0.00000  Uiso   1.00
H79    H     0.50482   0.03690   0.09166   0.00000  Uiso   1.00
H80    H     0.49567   0.29644   0.24178   0.00000  Uiso   1.00
H81    H     0.50482   0.29557   0.09180   0.00000  Uiso   1.00
H82    H     0.49551   0.03777   0.24162   0.00000  Uiso   1.00
H83    H     0.44273   0.12024   0.28172   0.00000  Uiso   1.00
H84    H     0.55767   0.21295   0.05152   0.00000  Uiso   1.00
N85    N     0.50001   0.16668   0.28403   0.00000  Uiso   1.00
N86    N     0.49999   0.16666   0.04931   0.00000  Uiso   1.00
O87    O     0.50000   0.10655   0.20625   0.00000  Uiso   1.00
O88    O     0.50000   0.22678   0.12709   0.00000  Uiso   1.00
O89    O     0.50000   0.10654   0.12706   0.00000  Uiso   1.00
O90    O     0.50000   0.22679   0.20628   0.00000  Uiso   1.00
O91    O     0.42495   0.16667   0.19712   0.00000  Uiso   1.00
O92    O     0.57505   0.16666   0.13621   0.00000  Uiso   1.00
O93    O     0.42494   0.16666   0.11793   0.00000  Uiso   1.00
O94    O     0.57506   0.16667   0.21540   0.00000  Uiso   1.00
O95    O     0.65676   0.19303   0.10919   0.00000  Uiso   1.00
C96    C     0.33906   0.23502   0.10843   0.00000  Uiso   1.00
H97    H     0.33393   0.24486   0.07102   0.00000  Uiso   1.00
H98    H     0.38045   0.24042   0.12182   0.00000  Uiso   1.00
C99    C     0.63872   0.26196   0.13570   0.00000  Uiso   1.00
H100   H     0.59778   0.25703   0.12110   0.00000  Uiso   1.00
H101   H     0.64374   0.25311   0.17345   0.00000  Uiso   1.00
C102   C     0.65251   0.30759   0.13219   0.00000  Uiso   1.00
H103   H     0.35960   0.31356   0.14799   0.00000  Uiso   1.00
H104   H     0.62679   0.32623   0.15148   0.00000  Uiso   1.00
H105   H     0.64751   0.31735   0.09476   0.00000  Uiso   1.00
O106   O     0.34201   0.13899   0.22277   0.00000  Uiso   1.00
C107   C     0.33379   0.09609   0.21469   0.00000  Uiso   1.00
H108   H     0.36665   0.08360   0.19845   0.00000  Uiso   1.00
H109   H     0.63091   0.08842   0.19088   0.00000  Uiso   1.00
C110   C     0.66406   0.07470   0.26168   0.00000  Uiso   1.00
H111   H     0.36718   0.07991   0.28548   0.00000  Uiso   1.00
H112   H     0.63224   0.08807   0.27861   0.00000  Uiso   1.00
C113   C     0.65453   0.02839   0.25492   0.00000  Uiso   1.00
H114   H     0.61719   0.02232   0.23265   0.00000  Uiso   1.00
H115   H     0.65331   0.01376   0.28972   0.00000  Uiso   1.00
H116   H     0.35257   0.01430   0.23803   0.00000  Uiso   1.00
C117   C     0.43308   0.11277   0.03940   0.00000  Uiso   1.00
N118   N     0.40503   0.09015   0.05451   0.00000  Uiso   1.00
C119   C     0.56702   0.22054   0.29397   0.00000  Uiso   1.00
N120   N     0.59511   0.24317   0.27894   0.00000  Uiso   1.00
C121   C     0.83334   0.08739   0.16657   0.00000  Uiso   1.00
C122   C     0.83341   0.24595   0.16678   0.00000  Uiso   1.00
C123   C     0.73485   0.16747   0.15491   0.00000  Uiso   1.00
C124   C     0.93183   0.16620   0.17840   0.00000  Uiso   1.00
C125   C     0.68032   0.17392   0.14964   0.00000  Uiso   1.00
C126   C     0.98636   0.16033   0.18358   0.00000  Uiso   1.00
C127   C     0.83604   0.02106   0.12456   0.00000  Uiso   1.00
C128   C     0.83102   0.31228   0.20886   0.00000  Uiso   1.00
C129   C     0.83603   0.31179   0.12467   0.00000  Uiso   1.00
C130   C     0.83093   0.02155   0.20874   0.00000  Uiso   1.00
C131   C     0.83351   0.29058   0.16682   0.00000  Uiso   1.00
C132   C     0.83343   0.04276   0.16658   0.00000  Uiso   1.00
C133   C     0.80112   0.14077   0.02029   0.00000  Uiso   1.00
C134   C     0.86559   0.19254   0.31305   0.00000  Uiso   1.00
C135   C     0.80134   0.14087   0.30414   0.00000  Uiso   1.00
C136   C     0.86545   0.19239   0.02919   0.00000  Uiso   1.00
Cu137  Cu    0.83333   0.16667   0.21355   0.00000  Uiso   1.00
Cu138  Cu    0.83333   0.16666   0.11978   0.00000  Uiso   1.00
H139   H     0.83815   0.03690   0.09166   0.00000  Uiso   1.00
H140   H     0.82900   0.29644   0.24178   0.00000  Uiso   1.00
H141   H     0.83815   0.29557   0.09180   0.00000  Uiso   1.00
H142   H     0.82885   0.03777   0.24162   0.00000  Uiso   1.00
H143   H     0.77607   0.12024   0.28172   0.00000  Uiso   1.00
H144   H     0.89100   0.21295   0.05152   0.00000  Uiso   1.00
N145   N     0.83335   0.16668   0.28403   0.00000  Uiso   1.00
N146   N     0.83332   0.16666   0.04931   0.00000  Uiso   1.00
O147   O     0.83333   0.10655   0.20625   0.00000  Uiso   1.00
O148   O     0.83334   0.22678   0.12709   0.00000  Uiso   1.00
O149   O     0.83333   0.10654   0.12706   0.00000  Uiso   1.00
O150   O     0.83334   0.22679   0.20628   0.00000  Uiso   1.00
O151   O     0.75828   0.16667   0.19712   0.00000  Uiso   1.00
O152   O     0.90839   0.16666   0.13621   0.00000  Uiso   1.00
O153   O     0.75828   0.16666   0.11793   0.00000  Uiso   1.00
O154   O     0.90839   0.16667   0.21540   0.00000  Uiso   1.00
O155   O     0.99009   0.19303   0.10919   0.00000  Uiso   1.00
C156   C     0.67240   0.23502   0.10843   0.00000  Uiso   1.00
H157   H     0.66727   0.24486   0.07102   0.00000  Uiso   1.00
H158   H     0.71378   0.24042   0.12182   0.00000  Uiso   1.00
C159   C     0.97206   0.26196   0.13570   0.00000  Uiso   1.00
H160   H     0.93111   0.25703   0.12110   0.00000  Uiso   1.00
H161   H     0.97707   0.25311   0.17345   0.00000  Uiso   1.00
C162   C     0.98584   0.30759   0.13219   0.00000  Uiso   1.00
H163   H     0.69293   0.31356   0.14799   0.00000  Uiso   1.00
H164   H     0.96012   0.32623   0.15148   0.00000  Uiso   1.00
H165   H     0.98085   0.31735   0.09476   0.00000  Uiso   1.00
O166   O     0.67535   0.13899   0.22277   0.00000  Uiso   1.00
C167   C     0.66713   0.09609   0.21469   0.00000  Uiso   1.00
H168   H     0.69998   0.08360   0.19845   0.00000  Uiso   1.00
H169   H     0.96424   0.08842   0.19088   0.00000  Uiso   1.00
C170   C     0.99739   0.07470   0.26168   0.00000  Uiso   1.00
H171   H     0.70051   0.07991   0.28548   0.00000  Uiso   1.00
H172   H     0.96557   0.08807   0.27861   0.00000  Uiso   1.00
C173   C     0.98786   0.02839   0.25492   0.00000  Uiso   1.00
H174   H     0.95052   0.02232   0.23265   0.00000  Uiso   1.00
H175   H     0.98664   0.01376   0.28972   0.00000  Uiso   1.00
H176   H     0.68590   0.01430   0.23803   0.00000  Uiso   1.00
C177   C     0.76641   0.11277   0.03940   0.00000  Uiso   1.00
N178   N     0.73837   0.09015   0.05451   0.00000  Uiso   1.00
C179   C     0.90035   0.22054   0.29397   0.00000  Uiso   1.00
N180   N     0.92844   0.24317   0.27894   0.00000  Uiso   1.00
C181   C     0.16667   0.42072   0.16657   0.00000  Uiso   1.00
C182   C     0.16674   0.57928   0.16678   0.00000  Uiso   1.00
C183   C     0.06818   0.50080   0.15491   0.00000  Uiso   1.00
C184   C     0.26516   0.49953   0.17840   0.00000  Uiso   1.00
C185   C     0.01365   0.50725   0.14964   0.00000  Uiso   1.00
C186   C     0.31970   0.49367   0.18358   0.00000  Uiso   1.00
C187   C     0.16938   0.35440   0.12456   0.00000  Uiso   1.00
C188   C     0.16436   0.64561   0.20886   0.00000  Uiso   1.00
C189   C     0.16936   0.64513   0.12467   0.00000  Uiso   1.00
C190   C     0.16427   0.35488   0.20874   0.00000  Uiso   1.00
C191   C     0.16684   0.62391   0.16682   0.00000  Uiso   1.00
C192   C     0.16677   0.37609   0.16658   0.00000  Uiso   1.00
C193   C     0.13445   0.47410   0.02029   0.00000  Uiso   1.00
C194   C     0.19893   0.52587   0.31305   0.00000  Uiso   1.00
C195   C     0.13467   0.47421   0.30414   0.00000  Uiso   1.00
C196   C     0.19878   0.52573   0.02919   0.00000  Uiso   1.00
Cu197  Cu    0.16667   0.50001   0.21355   0.00000  Uiso   1.00
Cu198  Cu    0.16667   0.49999   0.11978   0.00000  Uiso   1.00
H199   H     0.17148   0.37023   0.09166   0.00000  Uiso   1.00
H200   H     0.16234   0.62977   0.24178   0.00000  Uiso   1.00
H201   H     0.17149   0.62891   0.09180   0.00000  Uiso   1.00
H202   H     0.16218   0.37111   0.24162   0.00000  Uiso   1.00
H203   H     0.10940   0.45358   0.28172   0.00000  Uiso   1.00
H204   H     0.22433   0.54628   0.05152   0.00000  Uiso   1.00
N205   N     0.16668   0.50001   0.28403   0.00000  Uiso   1.00
N206   N     0.16665   0.49999   0.04931   0.00000  Uiso   1.00
O207   O     0.16666   0.43989   0.20625   0.00000  Uiso   1.00
O208   O     0.16667   0.56011   0.12709   0.00000  Uiso   1.00
O209   O     0.16666   0.43988   0.12706   0.00000  Uiso   1.00
O210   O     0.16667   0.56012   0.20628   0.00000  Uiso   1.00
O211   O     0.09161   0.50000   0.19712   0.00000  Uiso   1.00
O212   O     0.24172   0.50000   0.13621   0.00000  Uiso   1.00
O213   O     0.09161   0.49999   0.11793   0.00000  Uiso   1.00
O214   O     0.24172   0.50001   0.21540   0.00000  Uiso   1.00
O215   O     0.32343   0.52636   0.10919   0.00000  Uiso   1.00
C216   C     0.00573   0.56835   0.10843   0.00000  Uiso   1.00
H217   H     0.00060   0.57819   0.07102   0.00000  Uiso   1.00
H218   H     0.04712   0.57375   0.12182   0.00000  Uiso   1.00
C219   C     0.30539   0.59529   0.13570   0.00000  Uiso   1.00
H220   H     0.26445   0.59037   0.12110   0.00000  Uiso   1.00
H221   H     0.31041   0.58644   0.17345   0.00000  Uiso   1.00
C222   C     0.31917   0.64093   0.13219   0.00000  Uiso   1.00
H223   H     0.02627   0.64689   0.14799   0.00000  Uiso   1.00
H224   H     0.29345   0.65956   0.15148   0.00000  Uiso   1.00
H225   H     0.31418   0.65068   0.09476   0.00000  Uiso   1.00
O226   O     0.00868   0.47232   0.22277   0.00000  Uiso   1.00
C227   C     0.00046   0.42942   0.21469   0.00000  Uiso   1.00
H228   H     0.03331   0.41693   0.19845   0.00000  Uiso   1.00
H229   H     0.29758   0.42175   0.19088   0.00000  Uiso   1.00
C230   C     0.33073   0.40804   0.26168   0.00000  Uiso   1.00
H231   H     0.03384   0.41324   0.28548   0.00000  Uiso   1.00
H232   H     0.29890   0.42141   0.27861   0.00000  Uiso   1.00
C233   C     0.32120   0.36172   0.25492   0.00000  Uiso   1.00
H234   H     0.28385   0.35566   0.23265   0.00000  Uiso   1.00
H235   H     0.31997   0.34709   0.28972   0.00000  Uiso   1.00
H236   H     0.01924   0.34764   0.23803   0.00000  Uiso   1.00
C237   C     0.09975   0.44610   0.03940   0.00000  Uiso   1.00
N238   N     0.07170   0.42348   0.05451   0.00000  Uiso   1.00
C239   C     0.23369   0.55387   0.29397   0.00000  Uiso   1.00
N240   N     0.26178   0.57650   0.27894   0.00000  Uiso   1.00
C241   C     0.50001   0.42072   0.16657   0.00000  Uiso   1.00
C242   C     0.50007   0.57928   0.16678   0.00000  Uiso   1.00
C243   C     0.40151   0.50080   0.15491   0.00000  Uiso   1.00
C244   C     0.59849   0.49953   0.17840   0.00000  Uiso   1.00
C245   C     0.34699   0.50725   0.14964   0.00000  Uiso   1.00
C246   C     0.65303   0.49367   0.18358   0.00000  Uiso   1.00
C247   C     0.50271   0.35440   0.12456   0.00000  Uiso   1.00
C248   C     0.49769   0.64561   0.20886   0.00000  Uiso   1.00
C249   C     0.50270   0.64513   0.12467   0.00000  Uiso   1.00
C250   C     0.49760   0.35488   0.20874   0.00000  Uiso   1.00
C251   C     0.50017   0.62391   0.16682   0.00000  Uiso   1.00
C252   C     0.50010   0.37609   0.16658   0.00000  Uiso   1.00
C253   C     0.46779   0.47410   0.02029   0.00000  Uiso   1.00
C254   C     0.53226   0.52587   0.31305   0.00000  Uiso   1.00
C255   C     0.46801   0.47421   0.30414   0.00000  Uiso   1.00
C256   C     0.53211   0.52573   0.02919   0.00000  Uiso   1.00
Cu257  Cu    0.50000   0.50001   0.21355   0.00000  Uiso   1.00
Cu258  Cu    0.50000   0.49999   0.11978   0.00000  Uiso   1.00
H259   H     0.50482   0.37023   0.09166   0.00000  Uiso   1.00
H260   H     0.49567   0.62977   0.24178   0.00000  Uiso   1.00
H261   H     0.50482   0.62891   0.09180   0.00000  Uiso   1.00
H262   H     0.49551   0.37111   0.24162   0.00000  Uiso   1.00
H263   H     0.44273   0.45358   0.28172   0.00000  Uiso   1.00
H264   H     0.55767   0.54628   0.05152   0.00000  Uiso   1.00
N265   N     0.50001   0.50001   0.28403   0.00000  Uiso   1.00
N266   N     0.49999   0.49999   0.04931   0.00000  Uiso   1.00
O267   O     0.50000   0.43989   0.20625   0.00000  Uiso   1.00
O268   O     0.50000   0.56011   0.12709   0.00000  Uiso   1.00
O269   O     0.50000   0.43988   0.12706   0.00000  Uiso   1.00
O270   O     0.50000   0.56012   0.20628   0.00000  Uiso   1.00
O271   O     0.42495   0.50000   0.19712   0.00000  Uiso   1.00
O272   O     0.57505   0.50000   0.13621   0.00000  Uiso   1.00
O273   O     0.42494   0.49999   0.11793   0.00000  Uiso   1.00
O274   O     0.57506   0.50001   0.21540   0.00000  Uiso   1.00
O275   O     0.65676   0.52636   0.10919   0.00000  Uiso   1.00
C276   C     0.33906   0.56835   0.10843   0.00000  Uiso   1.00
H277   H     0.33393   0.57819   0.07102   0.00000  Uiso   1.00
H278   H     0.38045   0.57375   0.12182   0.00000  Uiso   1.00
C279   C     0.63872   0.59529   0.13570   0.00000  Uiso   1.00
H280   H     0.59778   0.59037   0.12110   0.00000  Uiso   1.00
H281   H     0.64374   0.58644   0.17345   0.00000  Uiso   1.00
C282   C     0.65251   0.64093   0.13219   0.00000  Uiso   1.00
H283   H     0.35960   0.64689   0.14799   0.00000  Uiso   1.00
H284   H     0.62679   0.65956   0.15148   0.00000  Uiso   1.00
H285   H     0.64751   0.65068   0.09476   0.00000  Uiso   1.00
O286   O     0.34201   0.47232   0.22277   0.00000  Uiso   1.00
C287   C     0.33379   0.42942   0.21469   0.00000  Uiso   1.00
H288   H     0.36665   0.41693   0.19845   0.00000  Uiso   1.00
H289   H     0.63091   0.42175   0.19088   0.00000  Uiso   1.00
C290   C     0.66406   0.40804   0.26168   0.00000  Uiso   1.00
H291   H     0.36718   0.41324   0.28548   0.00000  Uiso   1.00
H292   H     0.63224   0.42141   0.27861   0.00000  Uiso   1.00
C293   C     0.65453   0.36172   0.25492   0.00000  Uiso   1.00
H294   H     0.61719   0.35566   0.23265   0.00000  Uiso   1.00
H295   H     0.65331   0.34709   0.28972   0.00000  Uiso   1.00
H296   H     0.35257   0.34764   0.23803   0.00000  Uiso   1.00
C297   C     0.43308   0.44610   0.03940   0.00000  Uiso   1.00
N298   N     0.40503   0.42348   0.05451   0.00000  Uiso   1.00
C299   C     0.56702   0.55387   0.29397   0.00000  Uiso   1.00
N300   N     0.59511   0.57650   0.27894   0.00000  Uiso   1.00
C301   C     0.83334   0.42072   0.16657   0.00000  Uiso   1.00
C302   C     0.83341   0.57928   0.16678   0.00000  Uiso   1.00
C303   C     0.73485   0.50080   0.15491   0.00000  Uiso   1.00
C304   C     0.93183   0.49953   0.17840   0.00000  Uiso   1.00
C305   C     0.68032   0.50725   0.14964   0.00000  Uiso   1.00
C306   C     0.98636   0.49367   0.18358   0.00000  Uiso   1.00
C307   C     0.83604   0.35440   0.12456   0.00000  Uiso   1.00
C308   C     0.83102   0.64561   0.20886   0.00000  Uiso   1.00
C309   C     0.83603   0.64513   0.12467   0.00000  Uiso   1.00
C310   C     0.83093   0.35488   0.20874   0.00000  Uiso   1.00
C311   C     0.83351   0.62391   0.16682   0.00000  Uiso   1.00
C312   C     0.83343   0.37609   0.16658   0.00000  Uiso   1.00
C313   C     0.80112   0.47410   0.02029   0.00000  Uiso   1.00
C314   C     0.86559   0.52587   0.31305   0.00000  Uiso   1.00
C315   C     0.80134   0.47421   0.30414   0.00000  Uiso   1.00
C316   C     0.86545   0.52573   0.02919   0.00000  Uiso   1.00
Cu317  Cu    0.83333   0.50001   0.21355   0.00000  Uiso   1.00
Cu318  Cu    0.83333   0.49999   0.11978   0.00000  Uiso   1.00
H319   H     0.83815   0.37023   0.09166   0.00000  Uiso   1.00
H320   H     0.82900   0.62977   0.24178   0.00000  Uiso   1.00
H321   H     0.83815   0.62891   0.09180   0.00000  Uiso   1.00
H322   H     0.82885   0.37111   0.24162   0.00000  Uiso   1.00
H323   H     0.77607   0.45358   0.28172   0.00000  Uiso   1.00
H324   H     0.89100   0.54628   0.05152   0.00000  Uiso   1.00
N325   N     0.83335   0.50001   0.28403   0.00000  Uiso   1.00
N326   N     0.83332   0.49999   0.04931   0.00000  Uiso   1.00
O327   O     0.83333   0.43989   0.20625   0.00000  Uiso   1.00
O328   O     0.83334   0.56011   0.12709   0.00000  Uiso   1.00
O329   O     0.83333   0.43988   0.12706   0.00000  Uiso   1.00
O330   O     0.83334   0.56012   0.20628   0.00000  Uiso   1.00
O331   O     0.75828   0.50000   0.19712   0.00000  Uiso   1.00
O332   O     0.90839   0.50000   0.13621   0.00000  Uiso   1.00
O333   O     0.75828   0.49999   0.11793   0.00000  Uiso   1.00
O334   O     0.90839   0.50001   0.21540   0.00000  Uiso   1.00
O335   O     0.99009   0.52636   0.10919   0.00000  Uiso   1.00
C336   C     0.67240   0.56835   0.10843   0.00000  Uiso   1.00
H337   H     0.66727   0.57819   0.07102   0.00000  Uiso   1.00
H338   H     0.71378   0.57375   0.12182   0.00000  Uiso   1.00
C339   C     0.97206   0.59529   0.13570   0.00000  Uiso   1.00
H340   H     0.93111   0.59037   0.12110   0.00000  Uiso   1.00
H341   H     0.97707   0.58644   0.17345   0.00000  Uiso   1.00
C342   C     0.98584   0.64093   0.13219   0.00000  Uiso   1.00
H343   H     0.69293   0.64689   0.14799   0.00000  Uiso   1.00
H344   H     0.96012   0.65956   0.15148   0.00000  Uiso   1.00
H345   H     0.98085   0.65068   0.09476   0.00000  Uiso   1.00
O346   O     0.67535   0.47232   0.22277   0.00000  Uiso   1.00
C347   C     0.66713   0.42942   0.21469   0.00000  Uiso   1.00
H348   H     0.69998   0.41693   0.19845   0.00000  Uiso   1.00
H349   H     0.96424   0.42175   0.19088   0.00000  Uiso   1.00
C350   C     0.99739   0.40804   0.26168   0.00000  Uiso   1.00
H351   H     0.70051   0.41324   0.28548   0.00000  Uiso   1.00
H352   H     0.96557   0.42141   0.27861   0.00000  Uiso   1.00
C353   C     0.98786   0.36172   0.25492   0.00000  Uiso   1.00
H354   H     0.95052   0.35566   0.23265   0.00000  Uiso   1.00
H355   H     0.98664   0.34709   0.28972   0.00000  Uiso   1.00
H356   H     0.68590   0.34764   0.23803   0.00000  Uiso   1.00
C357   C     0.76641   0.44610   0.03940   0.00000  Uiso   1.00
N358   N     0.73837   0.42348   0.05451   0.00000  Uiso   1.00
C359   C     0.90035   0.55387   0.29397   0.00000  Uiso   1.00
N360   N     0.92844   0.57650   0.27894   0.00000  Uiso   1.00
C361   C     0.16667   0.75405   0.16657   0.00000  Uiso   1.00
C362   C     0.16674   0.91262   0.16678   0.00000  Uiso   1.00
C363   C     0.06818   0.83414   0.15491   0.00000  Uiso   1.00
C364   C     0.26516   0.83287   0.17840   0.00000  Uiso   1.00
C365   C     0.01365   0.84058   0.14964   0.00000  Uiso   1.00
C366   C     0.31970   0.82700   0.18358   0.00000  Uiso   1.00
C367   C     0.16938   0.68773   0.12456   0.00000  Uiso   1.00
C368   C     0.16436   0.97895   0.20886   0.00000  Uiso   1.00
C369   C     0.16936   0.97846   0.12467   0.00000  Uiso   1.00
C370   C     0.16427   0.68822   0.20874   0.00000  Uiso   1.00
C371   C     0.16684   0.95724   0.16682   0.00000  Uiso   1.00
C372   C     0.16677   0.70943   0.16658   0.00000  Uiso   1.00
C373   C     0.13445   0.80744   0.02029   0.00000  Uiso   1.00
C374   C     0.19893   0.85921   0.31305   0.00000  Uiso   1.00
C375   C     0.13467   0.80754   0.30414   0.00000  Uiso   1.00
C376   C     0.19878   0.85906   0.02919   0.00000  Uiso   1.00
Cu377  Cu    0.16667   0.83334   0.21355   0.00000  Uiso   1.00
Cu378  Cu    0.16667   0.83333   0.11978   0.00000  Uiso   1.00
H379   H     0.17148   0.70357   0.09166   0.00000  Uiso   1.00
H380   H     0.16234   0.96311   0.24178   0.00000  Uiso   1.00
H381   H     0.17149   0.96224   0.09180   0.00000  Uiso   1.00
H382   H     0.16218   0.70444   0.24162   0.00000  Uiso   1.00
H383   H     0.10940   0.78691   0.28172   0.00000  Uiso   1.00
H384   H     0.22433   0.87962   0.05152   0.00000  Uiso   1.00
N385   N     0.16668   0.83334   0.28403   0.00000  Uiso   1.00
N386   N     0.16665   0.83332   0.04931   0.00000  Uiso   1.00
O387   O     0.16666   0.77322   0.20625   0.00000  Uiso   1.00
O388   O     0.16667   0.89345   0.12709   0.00000  Uiso   1.00
O389   O     0.16666   0.77321   0.12706   0.00000  Uiso   1.00
O390   O     0.16667   0.89346   0.20628   0.00000  Uiso   1.00
O391   O     0.09161   0.83334   0.19712   0.00000  Uiso   1.00
O392   O     0.24172   0.83333   0.13621   0.00000  Uiso   1.00
O393   O     0.09161   0.83333   0.11793   0.00000  Uiso   1.00
O394   O     0.24172   0.83334   0.21540   0.00000  Uiso   1.00
O395   O     0.32343   0.85970   0.10919   0.00000  Uiso   1.00
C396   C     0.00573   0.90168   0.10843   0.00000  Uiso   1.00
H397   H     0.00060   0.91153   0.07102   0.00000  Uiso   1.00
H398   H     0.04712   0.90709   0.12182   0.00000  Uiso   1.00
C399   C     0.30539   0.92863   0.13570   0.00000  Uiso   1.00
H400   H     0.26445   0.92370   0.12110   0.00000  Uiso   1.00
H401   H     0.31041   0.91978   0.17345   0.00000  Uiso   1.00
C402   C     0.31917   0.97426   0.13219   0.00000  Uiso   1.00
H403   H     0.02627   0.98023   0.14799   0.00000  Uiso   1.00
H404   H     0.29345   0.99289   0.15148   0.00000  Uiso   1.00
H405   H     0.31418   0.98401   0.09476   0.00000  Uiso   1.00
O406   O     0.00868   0.80566   0.22277   0.00000  Uiso   1.00
C407   C     0.00046   0.76276   0.21469   0.00000  Uiso   1.00
H408   H     0.03331   0.75026   0.19845   0.00000  Uiso   1.00
H409   H     0.29758   0.75509   0.19088   0.00000  Uiso   1.00
C410   C     0.33073   0.74137   0.26168   0.00000  Uiso   1.00
H411   H     0.03384   0.74658   0.28548   0.00000  Uiso   1.00
H412   H     0.29890   0.75474   0.27861   0.00000  Uiso   1.00
C413   C     0.32120   0.69505   0.25492   0.00000  Uiso   1.00
H414   H     0.28385   0.68899   0.23265   0.00000  Uiso   1.00
H415   H     0.31997   0.68042   0.28972   0.00000  Uiso   1.00
H416   H     0.01924   0.68097   0.23803   0.00000  Uiso   1.00
C417   C     0.09975   0.77943   0.03940   0.00000  Uiso   1.00
N418   N     0.07170   0.75681   0.05451   0.00000  Uiso   1.00
C419   C     0.23369   0.88721   0.29397   0.00000  Uiso   1.00
N420   N     0.26178   0.90983   0.27894   0.00000  Uiso   1.00
C421   C     0.50001   0.75405   0.16657   0.00000  Uiso   1.00
C422   C     0.50007   0.91262   0.16678   0.00000  Uiso   1.00
C423   C     0.40151   0.83414   0.15491   0.00000  Uiso   1.00
C424   C     0.59849   0.83287   0.17840   0.00000  Uiso   1.00
C425   C     0.34699   0.84058   0.14964   0.00000  Uiso   1.00
C426   C     0.65303   0.82700   0.18358   0.00000  Uiso   1.00
C427   C     0.50271   0.68773   0.12456   0.00000  Uiso   1.00
C428   C     0.49769   0.97895   0.20886   0.00000  Uiso   1.00
C429   C     0.50270   0.97846   0.12467   0.00000  Uiso   1.00
C430   C     0.49760   0.68822   0.20874   0.00000  Uiso   1.00
C431   C     0.50017   0.95724   0.16682   0.00000  Uiso   1.00
C432   C     0.50010   0.70943   0.16658   0.00000  Uiso   1.00
C433   C     0.46779   0.80744   0.02029   0.00000  Uiso   1.00
C434   C     0.53226   0.85921   0.31305   0.00000  Uiso   1.00
C435   C     0.46801   0.80754   0.30414   0.00000  Uiso   1.00
C436   C     0.53211   0.85906   0.02919   0.00000  Uiso   1.00
Cu437  Cu    0.50000   0.83334   0.21355   0.00000  Uiso   1.00
Cu438  Cu    0.50000   0.83333   0.11978   0.00000  Uiso   1.00
H439   H     0.50482   0.70357   0.09166   0.00000  Uiso   1.00
H440   H     0.49567   0.96311   0.24178   0.00000  Uiso   1.00
H441   H     0.50482   0.96224   0.09180   0.00000  Uiso   1.00
H442   H     0.49551   0.70444   0.24162   0.00000  Uiso   1.00
H443   H     0.44273   0.78691   0.28172   0.00000  Uiso   1.00
H444   H     0.55767   0.87962   0.05152   0.00000  Uiso   1.00
N445   N     0.50001   0.83334   0.28403   0.00000  Uiso   1.00
N446   N     0.49999   0.83332   0.04931   0.00000  Uiso   1.00
O447   O     0.50000   0.77322   0.20625   0.00000  Uiso   1.00
O448   O     0.50000   0.89345   0.12709   0.00000  Uiso   1.00
O449   O     0.50000   0.77321   0.12706   0.00000  Uiso   1.00
O450   O     0.50000   0.89346   0.20628   0.00000  Uiso   1.00
O451   O     0.42495   0.83334   0.19712   0.00000  Uiso   1.00
O452   O     0.57505   0.83333   0.13621   0.00000  Uiso   1.00
O453   O     0.42494   0.83333   0.11793   0.00000  Uiso   1.00
O454   O     0.57506   0.83334   0.21540   0.00000  Uiso   1.00
O455   O     0.65676   0.85970   0.10919   0.00000  Uiso   1.00
C456   C     0.33906   0.90168   0.10843   0.00000  Uiso   1.00
H457   H     0.33393   0.91153   0.07102   0.00000  Uiso   1.00
H458   H     0.38045   0.90709   0.12182   0.00000  Uiso   1.00
C459   C     0.63872   0.92863   0.13570   0.00000  Uiso   1.00
H460   H     0.59778   0.92370   0.12110   0.00000  Uiso   1.00
H461   H     0.64374   0.91978   0.17345   0.00000  Uiso   1.00
C462   C     0.65251   0.97426   0.13219   0.00000  Uiso   1.00
H463   H     0.35960   0.98023   0.14799   0.00000  Uiso   1.00
H464   H     0.62679   0.99289   0.15148   0.00000  Uiso   1.00
H465   H     0.64751   0.98401   0.09476   0.00000  Uiso   1.00
O466   O     0.34201   0.80566   0.22277   0.00000  Uiso   1.00
C467   C     0.33379   0.76276   0.21469   0.00000  Uiso   1.00
H468   H     0.36665   0.75026   0.19845   0.00000  Uiso   1.00
H469   H     0.63091   0.75509   0.19088   0.00000  Uiso   1.00
C470   C     0.66406   0.74137   0.26168   0.00000  Uiso   1.00
H471   H     0.36718   0.74658   0.28548   0.00000  Uiso   1.00
H472   H     0.63224   0.75474   0.27861   0.00000  Uiso   1.00
C473   C     0.65453   0.69505   0.25492   0.00000  Uiso   1.00
H474   H     0.61719   0.68899   0.23265   0.00000  Uiso   1.00
H475   H     0.65331   0.68042   0.28972   0.00000  Uiso   1.00
H476   H     0.35257   0.68097   0.23803   0.00000  Uiso   1.00
C477   C     0.43308   0.77943   0.03940   0.00000  Uiso   1.00
N478   N     0.40503   0.75681   0.05451   0.00000  Uiso   1.00
C479   C     0.56702   0.88721   0.29397   0.00000  Uiso   1.00
N480   N     0.59511   0.90983   0.27894   0.00000  Uiso   1.00
C481   C     0.83334   0.75405   0.16657   0.00000  Uiso   1.00
C482   C     0.83341   0.91262   0.16678   0.00000  Uiso   1.00
C483   C     0.73485   0.83414   0.15491   0.00000  Uiso   1.00
C484   C     0.93183   0.83287   0.17840   0.00000  Uiso   1.00
C485   C     0.68032   0.84058   0.14964   0.00000  Uiso   1.00
C486   C     0.98636   0.82700   0.18358   0.00000  Uiso   1.00
C487   C     0.83604   0.68773   0.12456   0.00000  Uiso   1.00
C488   C     0.83102   0.97895   0.20886   0.00000  Uiso   1.00
C489   C     0.83603   0.97846   0.12467   0.00000  Uiso   1.00
C490   C     0.83093   0.68822   0.20874   0.00000  Uiso   1.00
C491   C     0.83351   0.95724   0.16682   0.00000  Uiso   1.00
C492   C     0.83343   0.70943   0.16658   0.00000  Uiso   1.00
C493   C     0.80112   0.80744   0.02029   0.00000  Uiso   1.00
C494   C     0.86559   0.85921   0.31305   0.00000  Uiso   1.00
C495   C     0.80134   0.80754   0.30414   0.00000  Uiso   1.00
C496   C     0.86545   0.85906   0.02919   0.00000  Uiso   1.00
Cu497  Cu    0.83333   0.83334   0.21355   0.00000  Uiso   1.00
Cu498  Cu    0.83333   0.83333   0.11978   0.00000  Uiso   1.00
H499   H     0.83815   0.70357   0.09166   0.00000  Uiso   1.00
H500   H     0.82900   0.96311   0.24178   0.00000  Uiso   1.00
H501   H     0.83815   0.96224   0.09180   0.00000  Uiso   1.00
H502   H     0.82885   0.70444   0.24162   0.00000  Uiso   1.00
H503   H     0.77607   0.78691   0.28172   0.00000  Uiso   1.00
H504   H     0.89100   0.87962   0.05152   0.00000  Uiso   1.00
N505   N     0.83335   0.83334   0.28403   0.00000  Uiso   1.00
N506   N     0.83332   0.83332   0.04931   0.00000  Uiso   1.00
O507   O     0.83333   0.77322   0.20625   0.00000  Uiso   1.00
O508   O     0.83334   0.89345   0.12709   0.00000  Uiso   1.00
O509   O     0.83333   0.77321   0.12706   0.00000  Uiso   1.00
O510   O     0.83334   0.89346   0.20628   0.00000  Uiso   1.00
O511   O     0.75828   0.83334   0.19712   0.00000  Uiso   1.00
O512   O     0.90839   0.83333   0.13621   0.00000  Uiso   1.00
O513   O     0.75828   0.83333   0.11793   0.00000  Uiso   1.00
O514   O     0.90839   0.83334   0.21540   0.00000  Uiso   1.00
O515   O     0.99009   0.85970   0.10919   0.00000  Uiso   1.00
C516   C     0.67240   0.90168   0.10843   0.00000  Uiso   1.00
H517   H     0.66727   0.91153   0.07102   0.00000  Uiso   1.00
H518   H     0.71378   0.90709   0.12182   0.00000  Uiso   1.00
C519   C     0.97206   0.92863   0.13570   0.00000  Uiso   1.00
H520   H     0.93111   0.92370   0.12110   0.00000  Uiso   1.00
H521   H     0.97707   0.91978   0.17345   0.00000  Uiso   1.00
C522   C     0.98584   0.97426   0.13219   0.00000  Uiso   1.00
H523   H     0.69293   0.98023   0.14799   0.00000  Uiso   1.00
H524   H     0.96012   0.99289   0.15148   0.00000  Uiso   1.00
H525   H     0.98085   0.98401   0.09476   0.00000  Uiso   1.00
O526   O     0.67535   0.80566   0.22277   0.00000  Uiso   1.00
C527   C     0.66713   0.76276   0.21469   0.00000  Uiso   1.00
H528   H     0.69998   0.75026   0.19845   0.00000  Uiso   1.00
H529   H     0.96424   0.75509   0.19088   0.00000  Uiso   1.00
C530   C     0.99739   0.74137   0.26168   0.00000  Uiso   1.00
H531   H     0.70051   0.74658   0.28548   0.00000  Uiso   1.00
H532   H     0.96557   0.75474   0.27861   0.00000  Uiso   1.00
C533   C     0.98786   0.69505   0.25492   0.00000  Uiso   1.00
H534   H     0.95052   0.68899   0.23265   0.00000  Uiso   1.00
H535   H     0.98664   0.68042   0.28972   0.00000  Uiso   1.00
H536   H     0.68590   0.68097   0.23803   0.00000  Uiso   1.00
C537   C     0.76641   0.77943   0.03940   0.00000  Uiso   1.00
N538   N     0.73837   0.75681   0.05451   0.00000  Uiso   1.00
C539   C     0.90035   0.88721   0.29397   0.00000  Uiso   1.00
N540   N     0.92844   0.90983   0.27894   0.00000  Uiso   1.00
C541   C     0.16667   0.08739   0.49990   0.00000  Uiso   1.00
C542   C     0.16674   0.24595   0.50011   0.00000  Uiso   1.00
C543   C     0.06818   0.16747   0.48824   0.00000  Uiso   1.00
C544   C     0.26516   0.16620   0.51174   0.00000  Uiso   1.00
C545   C     0.01365   0.17392   0.48297   0.00000  Uiso   1.00
C546   C     0.31970   0.16033   0.51691   0.00000  Uiso   1.00
C547   C     0.16938   0.02106   0.45789   0.00000  Uiso   1.00
C548   C     0.16436   0.31228   0.54220   0.00000  Uiso   1.00
C549   C     0.16936   0.31179   0.45800   0.00000  Uiso   1.00
C550   C     0.16427   0.02155   0.54208   0.00000  Uiso   1.00
C551   C     0.16684   0.29058   0.50015   0.00000  Uiso   1.00
C552   C     0.16677   0.04276   0.49992   0.00000  Uiso   1.00
C553   C     0.13445   0.14077   0.35362   0.00000  Uiso   1.00
C554   C     0.19893   0.19254   0.64638   0.00000  Uiso   1.00
C555   C     0.13467   0.14087   0.63747   0.00000  Uiso   1.00
C556   C     0.19878   0.19239   0.36252   0.00000  Uiso   1.00
Cu557  Cu    0.16667   0.16667   0.54689   0.00000  Uiso   1.00
Cu558  Cu    0.16667   0.16666   0.45311   0.00000  Uiso   1.00
H559   H     0.17148   0.03690   0.42499   0.00000  Uiso   1.00
H560   H     0.16234   0.29644   0.57511   0.00000  Uiso   1.00
H561   H     0.17149   0.29557   0.42513   0.00000  Uiso   1.00
H562   H     0.16218   0.03777   0.57495   0.00000  Uiso   1.00
H563   H     0.10940   0.12024   0.61505   0.00000  Uiso   1.00
H564   H     0.22433   0.21295   0.38486   0.00000  Uiso   1.00
N565   N     0.16668   0.16668   0.61736   0.00000  Uiso   1.00
N566   N     0.16665   0.16666   0.38264   0.00000  Uiso   1.00
O567   O     0.16666   0.10655   0.53958   0.00000  Uiso   1.00
O568   O     0.16667   0.22678   0.46042   0.00000  Uiso   1.00
O569   O     0.16666   0.10654   0.46039   0.00000  Uiso   1.00
O570   O     0.16667   0.22679   0.53961   0.00000  Uiso   1.00
O571   O     0.09161   0.16667   0.53046   0.00000  Uiso   1.00
O572   O     0.24172   0.16666   0.46954   0.00000  Uiso   1.00
O573   O     0.09161   0.16666   0.45127   0.00000  Uiso   1.00
O574   O     0.24172   0.16667   0.54873   0.00000  Uiso   1.00
O575   O     0.32343   0.19303   0.44252   0.00000  Uiso   1.00
C576   C     0.00573   0.23502   0.44176   0.00000  Uiso   1.00
H577   H     0.00060   0.24486   0.40435   0.00000  Uiso   1.00
H578   H     0.04712   0.24042   0.45515   0.00000  Uiso   1.00
C579   C     0.30539   0.26196   0.46904   0.00000  Uiso   1.00
H580   H     0.26445   0.25703   0.45444   0.00000  Uiso   1.00
H581   H     0.31041   0.25311   0.50678   0.00000  Uiso   1.00
C582   C     0.31917   0.30759   0.46552   0.00000  Uiso   1.00
H583   H     0.02627   0.31356   0.48133   0.00000  Uiso   1.00
H584   H     0.29345   0.32623   0.48481   0.00000  Uiso   1.00
H585   H     0.31418   0.31735   0.42809   0.00000  Uiso   1.00
O586   O     0.00868   0.13899   0.55610   0.00000  Uiso   1.00
C587   C     0.00046   0.09609   0.54802   0.00000  Uiso   1.00
H588   H     0.03331   0.08360   0.53179   0.00000  Uiso   1.00
H589   H     0.29758   0.08842   0.52422   0.00000  Uiso   1.00
C590   C     0.33073   0.07470   0.59501   0.00000  Uiso   1.00
H591   H     0.03384   0.07991   0.61881   0.00000  Uiso   1.00
H592   H     0.29890   0.08807   0.61194   0.00000  Uiso   1.00
C593   C     0.32120   0.02839   0.58825   0.00000  Uiso   1.00
H594   H     0.28385   0.02232   0.56598   0.00000  Uiso   1.00
H595   H     0.31997   0.01376   0.62305   0.00000  Uiso   1.00
H596   H     0.01924   0.01430   0.57136   0.00000  Uiso   1.00
C597   C     0.09975   0.11277   0.37274   0.00000  Uiso   1.00
N598   N     0.07170   0.09015   0.38784   0.00000  Uiso   1.00
C599   C     0.23369   0.22054   0.62731   0.00000  Uiso   1.00
N600   N     0.26178   0.24317   0.61227   0.00000  Uiso   1.00
C601   C     0.50001   0.08739   0.49990   0.00000  Uiso   1.00
C602   C     0.50007   0.24595   0.50011   0.00000  Uiso   1.00
C603   C     0.40151   0.16747   0.48824   0.00000  Uiso   1.00
C604   C     0.59849   0.16620   0.51174   0.00000  Uiso   1.00
C605   C     0.34699   0.17392   0.48297   0.00000  Uiso   1.00
C606   C     0.65303   0.16033   0.51691   0.00000  Uiso   1.00
C607   C     0.50271   0.02106   0.45789   0.00000  Uiso   1.00
C608   C     0.49769   0.31228   0.54220   0.00000  Uiso   1.00
C609   C     0.50270   0.31179   0.45800   0.00000  Uiso   1.00
C610   C     0.49760   0.02155   0.54208   0.00000  Uiso   1.00
C611   C     0.50017   0.29058   0.50015   0.00000  Uiso   1.00
C612   C     0.50010   0.04276   0.49992   0.00000  Uiso   1.00
C613   C     0.46779   0.14077   0.35362   0.00000  Uiso   1.00
C614   C     0.53226   0.19254   0.64638   0.00000  Uiso   1.00
C615   C     0.46801   0.14087   0.63747   0.00000  Uiso   1.00
C616   C     0.53211   0.19239   0.36252   0.00000  Uiso   1.00
Cu617  Cu    0.50000   0.16667   0.54689   0.00000  Uiso   1.00
Cu618  Cu    0.50000   0.16666   0.45311   0.00000  Uiso   1.00
H619   H     0.50482   0.03690   0.42499   0.00000  Uiso   1.00
H620   H     0.49567   0.29644   0.57511   0.00000  Uiso   1.00
H621   H     0.50482   0.29557   0.42513   0.00000  Uiso   1.00
H622   H     0.49551   0.03777   0.57495   0.00000  Uiso   1.00
H623   H     0.44273   0.12024   0.61505   0.00000  Uiso   1.00
H624   H     0.55767   0.21295   0.38486   0.00000  Uiso   1.00
N625   N     0.50001   0.16668   0.61736   0.00000  Uiso   1.00
N626   N     0.49999   0.16666   0.38264   0.00000  Uiso   1.00
O627   O     0.50000   0.10655   0.53958   0.00000  Uiso   1.00
O628   O     0.50000   0.22678   0.46042   0.00000  Uiso   1.00
O629   O     0.50000   0.10654   0.46039   0.00000  Uiso   1.00
O630   O     0.50000   0.22679   0.53961   0.00000  Uiso   1.00
O631   O     0.42495   0.16667   0.53046   0.00000  Uiso   1.00
O632   O     0.57505   0.16666   0.46954   0.00000  Uiso   1.00
O633   O     0.42494   0.16666   0.45127   0.00000  Uiso   1.00
O634   O     0.57506   0.16667   0.54873   0.00000  Uiso   1.00
O635   O     0.65676   0.19303   0.44252   0.00000  Uiso   1.00
C636   C     0.33906   0.23502   0.44176   0.00000  Uiso   1.00
H637   H     0.33393   0.24486   0.40435   0.00000  Uiso   1.00
H638   H     0.38045   0.24042   0.45515   0.00000  Uiso   1.00
C639   C     0.63872   0.26196   0.46904   0.00000  Uiso   1.00
H640   H     0.59778   0.25703   0.45444   0.00000  Uiso   1.00
H641   H     0.64374   0.25311   0.50678   0.00000  Uiso   1.00
C642   C     0.65251   0.30759   0.46552   0.00000  Uiso   1.00
H643   H     0.35960   0.31356   0.48133   0.00000  Uiso   1.00
H644   H     0.62679   0.32623   0.48481   0.00000  Uiso   1.00
H645   H     0.64751   0.31735   0.42809   0.00000  Uiso   1.00
O646   O     0.34201   0.13899   0.55610   0.00000  Uiso   1.00
C647   C     0.33379   0.09609   0.54802   0.00000  Uiso   1.00
H648   H     0.36665   0.08360   0.53179   0.00000  Uiso   1.00
H649   H     0.63091   0.08842   0.52422   0.00000  Uiso   1.00
C650   C     0.66406   0.07470   0.59501   0.00000  Uiso   1.00
H651   H     0.36718   0.07991   0.61881   0.00000  Uiso   1.00
H652   H     0.63224   0.08807   0.61194   0.00000  Uiso   1.00
C653   C     0.65453   0.02839   0.58825   0.00000  Uiso   1.00
H654   H     0.61719   0.02232   0.56598   0.00000  Uiso   1.00
H655   H     0.65331   0.01376   0.62305   0.00000  Uiso   1.00
H656   H     0.35257   0.01430   0.57136   0.00000  Uiso   1.00
C657   C     0.43308   0.11277   0.37274   0.00000  Uiso   1.00
N658   N     0.40503   0.09015   0.38784   0.00000  Uiso   1.00
C659   C     0.56702   0.22054   0.62731   0.00000  Uiso   1.00
N660   N     0.59511   0.24317   0.61227   0.00000  Uiso   1.00
C661   C     0.83334   0.08739   0.49990   0.00000  Uiso   1.00
C662   C     0.83341   0.24595   0.50011   0.00000  Uiso   1.00
C663   C     0.73485   0.16747   0.48824   0.00000  Uiso   1.00
C664   C     0.93183   0.16620   0.51174   0.00000  Uiso   1.00
C665   C     0.68032   0.17392   0.48297   0.00000  Uiso   1.00
C666   C     0.98636   0.16033   0.51691   0.00000  Uiso   1.00
C667   C     0.83604   0.02106   0.45789   0.00000  Uiso   1.00
C668   C     0.83102   0.31228   0.54220   0.00000  Uiso   1.00
C669   C     0.83603   0.31179   0.45800   0.00000  Uiso   1.00
C670   C     0.83093   0.02155   0.54208   0.00000  Uiso   1.00
C671   C     0.83351   0.29058   0.50015   0.00000  Uiso   1.00
C672   C     0.83343   0.04276   0.49992   0.00000  Uiso   1.00
C673   C     0.80112   0.14077   0.35362   0.00000  Uiso   1.00
C674   C     0.86559   0.19254   0.64638   0.00000  Uiso   1.00
C675   C     0.80134   0.14087   0.63747   0.00000  Uiso   1.00
C676   C     0.86545   0.19239   0.36252   0.00000  Uiso   1.00
Cu677  Cu    0.83333   0.16667   0.54689   0.00000  Uiso   1.00
Cu678  Cu    0.83333   0.16666   0.45311   0.00000  Uiso   1.00
H679   H     0.83815   0.03690   0.42499   0.00000  Uiso   1.00
H680   H     0.82900   0.29644   0.57511   0.00000  Uiso   1.00
H681   H     0.83815   0.29557   0.42513   0.00000  Uiso   1.00
H682   H     0.82885   0.03777   0.57495   0.00000  Uiso   1.00
H683   H     0.77607   0.12024   0.61505   0.00000  Uiso   1.00
H684   H     0.89100   0.21295   0.38486   0.00000  Uiso   1.00
N685   N     0.83335   0.16668   0.61736   0.00000  Uiso   1.00
N686   N     0.83332   0.16666   0.38264   0.00000  Uiso   1.00
O687   O     0.83333   0.10655   0.53958   0.00000  Uiso   1.00
O688   O     0.83334   0.22678   0.46042   0.00000  Uiso   1.00
O689   O     0.83333   0.10654   0.46039   0.00000  Uiso   1.00
O690   O     0.83334   0.22679   0.53961   0.00000  Uiso   1.00
O691   O     0.75828   0.16667   0.53046   0.00000  Uiso   1.00
O692   O     0.90839   0.16666   0.46954   0.00000  Uiso   1.00
O693   O     0.75828   0.16666   0.45127   0.00000  Uiso   1.00
O694   O     0.90839   0.16667   0.54873   0.00000  Uiso   1.00
O695   O     0.99009   0.19303   0.44252   0.00000  Uiso   1.00
C696   C     0.67240   0.23502   0.44176   0.00000  Uiso   1.00
H697   H     0.66727   0.24486   0.40435   0.00000  Uiso   1.00
H698   H     0.71378   0.24042   0.45515   0.00000  Uiso   1.00
C699   C     0.97206   0.26196   0.46904   0.00000  Uiso   1.00
H700   H     0.93111   0.25703   0.45444   0.00000  Uiso   1.00
H701   H     0.97707   0.25311   0.50678   0.00000  Uiso   1.00
C702   C     0.98584   0.30759   0.46552   0.00000  Uiso   1.00
H703   H     0.69293   0.31356   0.48133   0.00000  Uiso   1.00
H704   H     0.96012   0.32623   0.48481   0.00000  Uiso   1.00
H705   H     0.98085   0.31735   0.42809   0.00000  Uiso   1.00
O706   O     0.67535   0.13899   0.55610   0.00000  Uiso   1.00
C707   C     0.66713   0.09609   0.54802   0.00000  Uiso   1.00
H708   H     0.69998   0.08360   0.53179   0.00000  Uiso   1.00
H709   H     0.96424   0.08842   0.52422   0.00000  Uiso   1.00
C710   C     0.99739   0.07470   0.59501   0.00000  Uiso   1.00
H711   H     0.70051   0.07991   0.61881   0.00000  Uiso   1.00
H712   H     0.96557   0.08807   0.61194   0.00000  Uiso   1.00
C713   C     0.98786   0.02839   0.58825   0.00000  Uiso   1.00
H714   H     0.95052   0.02232   0.56598   0.00000  Uiso   1.00
H715   H     0.98664   0.01376   0.62305   0.00000  Uiso   1.00
H716   H     0.68590   0.01430   0.57136   0.00000  Uiso   1.00
C717   C     0.76641   0.11277   0.37274   0.00000  Uiso   1.00
N718   N     0.73837   0.09015   0.38784   0.00000  Uiso   1.00
C719   C     0.90035   0.22054   0.62731   0.00000  Uiso   1.00
N720   N     0.92844   0.24317   0.61227   0.00000  Uiso   1.00
C721   C     0.16667   0.42072   0.49990   0.00000  Uiso   1.00
C722   C     0.16674   0.57928   0.50011   0.00000  Uiso   1.00
C723   C     0.06818   0.50080   0.48824   0.00000  Uiso   1.00
C724   C     0.26516   0.49953   0.51174   0.00000  Uiso   1.00
C725   C     0.01365   0.50725   0.48297   0.00000  Uiso   1.00
C726   C     0.31970   0.49367   0.51691   0.00000  Uiso   1.00
C727   C     0.16938   0.35440   0.45789   0.00000  Uiso   1.00
C728   C     0.16436   0.64561   0.54220   0.00000  Uiso   1.00
C729   C     0.16936   0.64513   0.45800   0.00000  Uiso   1.00
C730   C     0.16427   0.35488   0.54208   0.00000  Uiso   1.00
C731   C     0.16684   0.62391   0.50015   0.00000  Uiso   1.00
C732   C     0.16677   0.37609   0.49992   0.00000  Uiso   1.00
C733   C     0.13445   0.47410   0.35362   0.00000  Uiso   1.00
C734   C     0.19893   0.52587   0.64638   0.00000  Uiso   1.00
C735   C     0.13467   0.47421   0.63747   0.00000  Uiso   1.00
C736   C     0.19878   0.52573   0.36252   0.00000  Uiso   1.00
Cu737  Cu    0.16667   0.50001   0.54689   0.00000  Uiso   1.00
Cu738  Cu    0.16667   0.49999   0.45311   0.00000  Uiso   1.00
H739   H     0.17148   0.37023   0.42499   0.00000  Uiso   1.00
H740   H     0.16234   0.62977   0.57511   0.00000  Uiso   1.00
H741   H     0.17149   0.62891   0.42513   0.00000  Uiso   1.00
H742   H     0.16218   0.37111   0.57495   0.00000  Uiso   1.00
H743   H     0.10940   0.45358   0.61505   0.00000  Uiso   1.00
H744   H     0.22433   0.54628   0.38486   0.00000  Uiso   1.00
N745   N     0.16668   0.50001   0.61736   0.00000  Uiso   1.00
N746   N     0.16665   0.49999   0.38264   0.00000  Uiso   1.00
O747   O     0.16666   0.43989   0.53958   0.00000  Uiso   1.00
O748   O     0.16667   0.56011   0.46042   0.00000  Uiso   1.00
O749   O     0.16666   0.43988   0.46039   0.00000  Uiso   1.00
O750   O     0.16667   0.56012   0.53961   0.00000  Uiso   1.00
O751   O     0.09161   0.50000   0.53046   0.00000  Uiso   1.00
O752   O     0.24172   0.50000   0.46954   0.00000  Uiso   1.00
O753   O     0.09161   0.49999   0.45127   0.00000  Uiso   1.00
O754   O     0.24172   0.50001   0.54873   0.00000  Uiso   1.00
O755   O     0.32343   0.52636   0.44252   0.00000  Uiso   1.00
C756   C     0.00573   0.56835   0.44176   0.00000  Uiso   1.00
H757   H     0.00060   0.57819   0.40435   0.00000  Uiso   1.00
H758   H     0.04712   0.57375   0.45515   0.00000  Uiso   1.00
C759   C     0.30539   0.59529   0.46904   0.00000  Uiso   1.00
H760   H     0.26445   0.59037   0.45444   0.00000  Uiso   1.00
H761   H     0.31041   0.58644   0.50678   0.00000  Uiso   1.00
C762   C     0.31917   0.64093   0.46552   0.00000  Uiso   1.00
H763   H     0.02627   0.64689   0.48133   0.00000  Uiso   1.00
H764   H     0.29345   0.65956   0.48481   0.00000  Uiso   1.00
H765   H     0.31418   0.65068   0.42809   0.00000  Uiso   1.00
O766   O     0.00868   0.47232   0.55610   0.00000  Uiso   1.00
C767   C     0.00046   0.42942   0.54802   0.00000  Uiso   1.00
H768   H     0.03331   0.41693   0.53179   0.00000  Uiso   1.00
H769   H     0.29758   0.42175   0.52422   0.00000  Uiso   1.00
C770   C     0.33073   0.40804   0.59501   0.00000  Uiso   1.00
H771   H     0.03384   0.41324   0.61881   0.00000  Uiso   1.00
H772   H     0.29890   0.42141   0.61194   0.00000  Uiso   1.00
C773   C     0.32120   0.36172   0.58825   0.00000  Uiso   1.00
H774   H     0.28385   0.35566   0.56598   0.00000  Uiso   1.00
H775   H     0.31997   0.34709   0.62305   0.00000  Uiso   1.00
H776   H     0.01924   0.34764   0.57136   0.00000  Uiso   1.00
C777   C     0.09975   0.44610   0.37274   0.00000  Uiso   1.00
N778   N     0.07170   0.42348   0.38784   0.00000  Uiso   1.00
C779   C     0.23369   0.55387   0.62731   0.00000  Uiso   1.00
N780   N     0.26178   0.57650   0.61227   0.00000  Uiso   1.00
C781   C     0.50001   0.42072   0.49990   0.00000  Uiso   1.00
C782   C     0.50007   0.57928   0.50011   0.00000  Uiso   1.00
C783   C     0.40151   0.50080   0.48824   0.00000  Uiso   1.00
C784   C     0.59849   0.49953   0.51174   0.00000  Uiso   1.00
C785   C     0.34699   0.50725   0.48297   0.00000  Uiso   1.00
C786   C     0.65303   0.49367   0.51691   0.00000  Uiso   1.00
C787   C     0.50271   0.35440   0.45789   0.00000  Uiso   1.00
C788   C     0.49769   0.64561   0.54220   0.00000  Uiso   1.00
C789   C     0.50270   0.64513   0.45800   0.00000  Uiso   1.00
C790   C     0.49760   0.35488   0.54208   0.00000  Uiso   1.00
C791   C     0.50017   0.62391   0.50015   0.00000  Uiso   1.00
C792   C     0.50010   0.37609   0.49992   0.00000  Uiso   1.00
C793   C     0.46779   0.47410   0.35362   0.00000  Uiso   1.00
C794   C     0.53226   0.52587   0.64638   0.00000  Uiso   1.00
C795   C     0.46801   0.47421   0.63747   0.00000  Uiso   1.00
C796   C     0.53211   0.52573   0.36252   0.00000  Uiso   1.00
Cu797  Cu    0.50000   0.50001   0.54689   0.00000  Uiso   1.00
Cu798  Cu    0.50000   0.49999   0.45311   0.00000  Uiso   1.00
H799   H     0.50482   0.37023   0.42499   0.00000  Uiso   1.00
H800   H     0.49567   0.62977   0.57511   0.00000  Uiso   1.00
H801   H     0.50482   0.62891   0.42513   0.00000  Uiso   1.00
H802   H     0.49551   0.37111   0.57495   0.00000  Uiso   1.00
H803   H     0.44273   0.45358   0.61505   0.00000  Uiso   1.00
H804   H     0.55767   0.54628   0.38486   0.00000  Uiso   1.00
N805   N     0.50001   0.50001   0.61736   0.00000  Uiso   1.00
N806   N     0.49999   0.49999   0.38264   0.00000  Uiso   1.00
O807   O     0.50000   0.43989   0.53958   0.00000  Uiso   1.00
O808   O     0.50000   0.56011   0.46042   0.00000  Uiso   1.00
O809   O     0.50000   0.43988   0.46039   0.00000  Uiso   1.00
O810   O     0.50000   0.56012   0.53961   0.00000  Uiso   1.00
O811   O     0.42495   0.50000   0.53046   0.00000  Uiso   1.00
O812   O     0.57505   0.50000   0.46954   0.00000  Uiso   1.00
O813   O     0.42494   0.49999   0.45127   0.00000  Uiso   1.00
O814   O     0.57506   0.50001   0.54873   0.00000  Uiso   1.00
O815   O     0.65676   0.52636   0.44252   0.00000  Uiso   1.00
C816   C     0.33906   0.56835   0.44176   0.00000  Uiso   1.00
H817   H     0.33393   0.57819   0.40435   0.00000  Uiso   1.00
H818   H     0.38045   0.57375   0.45515   0.00000  Uiso   1.00
C819   C     0.63872   0.59529   0.46904   0.00000  Uiso   1.00
H820   H     0.59778   0.59037   0.45444   0.00000  Uiso   1.00
H821   H     0.64374   0.58644   0.50678   0.00000  Uiso   1.00
C822   C     0.65251   0.64093   0.46552   0.00000  Uiso   1.00
H823   H     0.35960   0.64689   0.48133   0.00000  Uiso   1.00
H824   H     0.62679   0.65956   0.48481   0.00000  Uiso   1.00
H825   H     0.64751   0.65068   0.42809   0.00000  Uiso   1.00
O826   O     0.34201   0.47232   0.55610   0.00000  Uiso   1.00
C827   C     0.33379   0.42942   0.54802   0.00000  Uiso   1.00
H828   H     0.36665   0.41693   0.53179   0.00000  Uiso   1.00
H829   H     0.63091   0.42175   0.52422   0.00000  Uiso   1.00
C830   C     0.66406   0.40804   0.59501   0.00000  Uiso   1.00
H831   H     0.36718   0.41324   0.61881   0.00000  Uiso   1.00
H832   H     0.63224   0.42141   0.61194   0.00000  Uiso   1.00
C833   C     0.65453   0.36172   0.58825   0.00000  Uiso   1.00
H834   H     0.61719   0.35566   0.56598   0.00000  Uiso   1.00
H835   H     0.65331   0.34709   0.62305   0.00000  Uiso   1.00
H836   H     0.35257   0.34764   0.57136   0.00000  Uiso   1.00
C837   C     0.43308   0.44610   0.37274   0.00000  Uiso   1.00
N838   N     0.40503   0.42348   0.38784   0.00000  Uiso   1.00
C839   C     0.56702   0.55387   0.62731   0.00000  Uiso   1.00
N840   N     0.59511   0.57650   0.61227   0.00000  Uiso   1.00
C841   C     0.83334   0.42072   0.49990   0.00000  Uiso   1.00
C842   C     0.83341   0.57928   0.50011   0.00000  Uiso   1.00
C843   C     0.73485   0.50080   0.48824   0.00000  Uiso   1.00
C844   C     0.93183   0.49953   0.51174   0.00000  Uiso   1.00
C845   C     0.68032   0.50725   0.48297   0.00000  Uiso   1.00
C846   C     0.98636   0.49367   0.51691   0.00000  Uiso   1.00
C847   C     0.83604   0.35440   0.45789   0.00000  Uiso   1.00
C848   C     0.83102   0.64561   0.54220   0.00000  Uiso   1.00
C849   C     0.83603   0.64513   0.45800   0.00000  Uiso   1.00
C850   C     0.83093   0.35488   0.54208   0.00000  Uiso   1.00
C851   C     0.83351   0.62391   0.50015   0.00000  Uiso   1.00
C852   C     0.83343   0.37609   0.49992   0.00000  Uiso   1.00
C853   C     0.80112   0.47410   0.35362   0.00000  Uiso   1.00
C854   C     0.86559   0.52587   0.64638   0.00000  Uiso   1.00
C855   C     0.80134   0.47421   0.63747   0.00000  Uiso   1.00
C856   C     0.86545   0.52573   0.36252   0.00000  Uiso   1.00
Cu857  Cu    0.83333   0.50001   0.54689   0.00000  Uiso   1.00
Cu858  Cu    0.83333   0.49999   0.45311   0.00000  Uiso   1.00
H859   H     0.83815   0.37023   0.42499   0.00000  Uiso   1.00
H860   H     0.82900   0.62977   0.57511   0.00000  Uiso   1.00
H861   H     0.83815   0.62891   0.42513   0.00000  Uiso   1.00
H862   H     0.82885   0.37111   0.57495   0.00000  Uiso   1.00
H863   H     0.77607   0.45358   0.61505   0.00000  Uiso   1.00
H864   H     0.89100   0.54628   0.38486   0.00000  Uiso   1.00
N865   N     0.83335   0.50001   0.61736   0.00000  Uiso   1.00
N866   N     0.83332   0.49999   0.38264   0.00000  Uiso   1.00
O867   O     0.83333   0.43989   0.53958   0.00000  Uiso   1.00
O868   O     0.83334   0.56011   0.46042   0.00000  Uiso   1.00
O869   O     0.83333   0.43988   0.46039   0.00000  Uiso   1.00
O870   O     0.83334   0.56012   0.53961   0.00000  Uiso   1.00
O871   O     0.75828   0.50000   0.53046   0.00000  Uiso   1.00
O872   O     0.90839   0.50000   0.46954   0.00000  Uiso   1.00
O873   O     0.75828   0.49999   0.45127   0.00000  Uiso   1.00
O874   O     0.90839   0.50001   0.54873   0.00000  Uiso   1.00
O875   O     0.99009   0.52636   0.44252   0.00000  Uiso   1.00
C876   C     0.67240   0.56835   0.44176   0.00000  Uiso   1.00
H877   H     0.66727   0.57819   0.40435   0.00000  Uiso   1.00
H878   H     0.71378   0.57375   0.45515   0.00000  Uiso   1.00
C879   C     0.97206   0.59529   0.46904   0.00000  Uiso   1.00
H880   H     0.93111   0.59037   0.45444   0.00000  Uiso   1.00
H881   H     0.97707   0.58644   0.50678   0.00000  Uiso   1.00
C882   C     0.98584   0.64093   0.46552   0.00000  Uiso   1.00
H883   H     0.69293   0.64689   0.48133   0.00000  Uiso   1.00
H884   H     0.96012   0.65956   0.48481   0.00000  Uiso   1.00
H885   H     0.98085   0.65068   0.42809   0.00000  Uiso   1.00
O886   O     0.67535   0.47232   0.55610   0.00000  Uiso   1.00
C887   C     0.66713   0.42942   0.54802   0.00000  Uiso   1.00
H888   H     0.69998   0.41693   0.53179   0.00000  Uiso   1.00
H889   H     0.96424   0.42175   0.52422   0.00000  Uiso   1.00
C890   C     0.99739   0.40804   0.59501   0.00000  Uiso   1.00
H891   H     0.70051   0.41324   0.61881   0.00000  Uiso   1.00
H892   H     0.96557   0.42141   0.61194   0.00000  Uiso   1.00
C893   C     0.98786   0.36172   0.58825   0.00000  Uiso   1.00
H894   H     0.95052   0.35566   0.56598   0.00000  Uiso   1.00
H895   H     0.98664   0.34709   0.62305   0.00000  Uiso   1.00
H896   H     0.68590   0.34764   0.57136   0.00000  Uiso   1.00
C897   C     0.76641   0.44610   0.37274   0.00000  Uiso   1.00
N898   N     0.73837   0.42348   0.38784   0.00000  Uiso   1.00
C899   C     0.90035   0.55387   0.62731   0.00000  Uiso   1.00
N900   N     0.92844   0.57650   0.61227   0.00000  Uiso   1.00
C901   C     0.16667   0.75405   0.49990   0.00000  Uiso   1.00
C902   C     0.16674   0.91262   0.50011   0.00000  Uiso   1.00
C903   C     0.06818   0.83414   0.48824   0.00000  Uiso   1.00
C904   C     0.26516   0.83287   0.51174   0.00000  Uiso   1.00
C905   C     0.01365   0.84058   0.48297   0.00000  Uiso   1.00
C906   C     0.31970   0.82700   0.51691   0.00000  Uiso   1.00
C907   C     0.16938   0.68773   0.45789   0.00000  Uiso   1.00
C908   C     0.16436   0.97895   0.54220   0.00000  Uiso   1.00
C909   C     0.16936   0.97846   0.45800   0.00000  Uiso   1.00
C910   C     0.16427   0.68822   0.54208   0.00000  Uiso   1.00
C911   C     0.16684   0.95724   0.50015   0.00000  Uiso   1.00
C912   C     0.16677   0.70943   0.49992   0.00000  Uiso   1.00
C913   C     0.13445   0.80744   0.35362   0.00000  Uiso   1.00
C914   C     0.19893   0.85921   0.64638   0.00000  Uiso   1.00
C915   C     0.13467   0.80754   0.63747   0.00000  Uiso   1.00
C916   C     0.19878   0.85906   0.36252   0.00000  Uiso   1.00
Cu917  Cu    0.16667   0.83334   0.54689   0.00000  Uiso   1.00
Cu918  Cu    0.16667   0.83333   0.45311   0.00000  Uiso   1.00
H919   H     0.17148   0.70357   0.42499   0.00000  Uiso   1.00
H920   H     0.16234   0.96311   0.57511   0.00000  Uiso   1.00
H921   H     0.17149   0.96224   0.42513   0.00000  Uiso   1.00
H922   H     0.16218   0.70444   0.57495   0.00000  Uiso   1.00
H923   H     0.10940   0.78691   0.61505   0.00000  Uiso   1.00
H924   H     0.22433   0.87962   0.38486   0.00000  Uiso   1.00
N925   N     0.16668   0.83334   0.61736   0.00000  Uiso   1.00
N926   N     0.16665   0.83332   0.38264   0.00000  Uiso   1.00
O927   O     0.16666   0.77322   0.53958   0.00000  Uiso   1.00
O928   O     0.16667   0.89345   0.46042   0.00000  Uiso   1.00
O929   O     0.16666   0.77321   0.46039   0.00000  Uiso   1.00
O930   O     0.16667   0.89346   0.53961   0.00000  Uiso   1.00
O931   O     0.09161   0.83334   0.53046   0.00000  Uiso   1.00
O932   O     0.24172   0.83333   0.46954   0.00000  Uiso   1.00
O933   O     0.09161   0.83333   0.45127   0.00000  Uiso   1.00
O934   O     0.24172   0.83334   0.54873   0.00000  Uiso   1.00
O935   O     0.32343   0.85970   0.44252   0.00000  Uiso   1.00
C936   C     0.00573   0.90168   0.44176   0.00000  Uiso   1.00
H937   H     0.00060   0.91153   0.40435   0.00000  Uiso   1.00
H938   H     0.04712   0.90709   0.45515   0.00000  Uiso   1.00
C939   C     0.30539   0.92863   0.46904   0.00000  Uiso   1.00
H940   H     0.26445   0.92370   0.45444   0.00000  Uiso   1.00
H941   H     0.31041   0.91978   0.50678   0.00000  Uiso   1.00
C942   C     0.31917   0.97426   0.46552   0.00000  Uiso   1.00
H943   H     0.02627   0.98023   0.48133   0.00000  Uiso   1.00
H944   H     0.29345   0.99289   0.48481   0.00000  Uiso   1.00
H945   H     0.31418   0.98401   0.42809   0.00000  Uiso   1.00
O946   O     0.00868   0.80566   0.55610   0.00000  Uiso   1.00
C947   C     0.00046   0.76276   0.54802   0.00000  Uiso   1.00
H948   H     0.03331   0.75026   0.53179   0.00000  Uiso   1.00
H949   H     0.29758   0.75509   0.52422   0.00000  Uiso   1.00
C950   C     0.33073   0.74137   0.59501   0.00000  Uiso   1.00
H951   H     0.03384   0.74658   0.61881   0.00000  Uiso   1.00
H952   H     0.29890   0.75474   0.61194   0.00000  Uiso   1.00
C953   C     0.32120   0.69505   0.58825   0.00000  Uiso   1.00
H954   H     0.28385   0.68899   0.56598   0.00000  Uiso   1.00
H955   H     0.31997   0.68042   0.62305   0.00000  Uiso   1.00
H956   H     0.01924   0.68097   0.57136   0.00000  Uiso   1.00
C957   C     0.09975   0.77943   0.37274   0.00000  Uiso   1.00
N958   N     0.07170   0.75681   0.38784   0.00000  Uiso   1.00
C959   C     0.23369   0.88721   0.62731   0.00000  Uiso   1.00
N960   N     0.26178   0.90983   0.61227   0.00000  Uiso   1.00
C961   C     0.50001   0.75405   0.49990   0.00000  Uiso   1.00
C962   C     0.50007   0.91262   0.50011   0.00000  Uiso   1.00
C963   C     0.40151   0.83414   0.48824   0.00000  Uiso   1.00
C964   C     0.59849   0.83287   0.51174   0.00000  Uiso   1.00
C965   C     0.34699   0.84058   0.48297   0.00000  Uiso   1.00
C966   C     0.65303   0.82700   0.51691   0.00000  Uiso   1.00
C967   C     0.50271   0.68773   0.45789   0.00000  Uiso   1.00
C968   C     0.49769   0.97895   0.54220   0.00000  Uiso   1.00
C969   C     0.50270   0.97846   0.45800   0.00000  Uiso   1.00
C970   C     0.49760   0.68822   0.54208   0.00000  Uiso   1.00
C971   C     0.50017   0.95724   0.50015   0.00000  Uiso   1.00
C972   C     0.50010   0.70943   0.49992   0.00000  Uiso   1.00
C973   C     0.46779   0.80744   0.35362   0.00000  Uiso   1.00
C974   C     0.53226   0.85921   0.64638   0.00000  Uiso   1.00
C975   C     0.46801   0.80754   0.63747   0.00000  Uiso   1.00
C976   C     0.53211   0.85906   0.36252   0.00000  Uiso   1.00
Cu977  Cu    0.50000   0.83334   0.54689   0.00000  Uiso   1.00
Cu978  Cu    0.50000   0.83333   0.45311   0.00000  Uiso   1.00
H979   H     0.50482   0.70357   0.42499   0.00000  Uiso   1.00
H980   H     0.49567   0.96311   0.57511   0.00000  Uiso   1.00
H981   H     0.50482   0.96224   0.42513   0.00000  Uiso   1.00
H982   H     0.49551   0.70444   0.57495   0.00000  Uiso   1.00
H983   H     0.44273   0.78691   0.61505   0.00000  Uiso   1.00
H984   H     0.55767   0.87962   0.38486   0.00000  Uiso   1.00
N985   N     0.50001   0.83334   0.61736   0.00000  Uiso   1.00
N986   N     0.49999   0.83332   0.38264   0.00000  Uiso   1.00
O987   O     0.50000   0.77322   0.53958   0.00000  Uiso   1.00
O988   O     0.50000   0.89345   0.46042   0.00000  Uiso   1.00
O989   O     0.50000   0.77321   0.46039   0.00000  Uiso   1.00
O990   O     0.50000   0.89346   0.53961   0.00000  Uiso   1.00
O991   O     0.42495   0.83334   0.53046   0.00000  Uiso   1.00
O992   O     0.57505   0.83333   0.46954   0.00000  Uiso   1.00
O993   O     0.42494   0.83333   0.45127   0.00000  Uiso   1.00
O994   O     0.57506   0.83334   0.54873   0.00000  Uiso   1.00
O995   O     0.65676   0.85970   0.44252   0.00000  Uiso   1.00
C996   C     0.33906   0.90168   0.44176   0.00000  Uiso   1.00
H997   H     0.33393   0.91153   0.40435   0.00000  Uiso   1.00
H998   H     0.38045   0.90709   0.45515   0.00000  Uiso   1.00
C999   C     0.63872   0.92863   0.46904   0.00000  Uiso   1.00
H1000  H     0.59778   0.92370   0.45444   0.00000  Uiso   1.00
H1001  H     0.64374   0.91978   0.50678   0.00000  Uiso   1.00
C1002  C     0.65251   0.97426   0.46552   0.00000  Uiso   1.00
H1003  H     0.35960   0.98023   0.48133   0.00000  Uiso   1.00
H1004  H     0.62679   0.99289   0.48481   0.00000  Uiso   1.00
H1005  H     0.64751   0.98401   0.42809   0.00000  Uiso   1.00
O1006  O     0.34201   0.80566   0.55610   0.00000  Uiso   1.00
C1007  C     0.33379   0.76276   0.54802   0.00000  Uiso   1.00
H1008  H     0.36665   0.75026   0.53179   0.00000  Uiso   1.00
H1009  H     0.63091   0.75509   0.52422   0.00000  Uiso   1.00
C1010  C     0.66406   0.74137   0.59501   0.00000  Uiso   1.00
H1011  H     0.36718   0.74658   0.61881   0.00000  Uiso   1.00
H1012  H     0.63224   0.75474   0.61194   0.00000  Uiso   1.00
C1013  C     0.65453   0.69505   0.58825   0.00000  Uiso   1.00
H1014  H     0.61719   0.68899   0.56598   0.00000  Uiso   1.00
H1015  H     0.65331   0.68042   0.62305   0.00000  Uiso   1.00
H1016  H     0.35257   0.68097   0.57136   0.00000  Uiso   1.00
C1017  C     0.43308   0.77943   0.37274   0.00000  Uiso   1.00
N1018  N     0.40503   0.75681   0.38784   0.00000  Uiso   1.00
C1019  C     0.56702   0.88721   0.62731   0.00000  Uiso   1.00
N1020  N     0.59511   0.90983   0.61227   0.00000  Uiso   1.00
C1021  C     0.83334   0.75405   0.49990   0.00000  Uiso   1.00
C1022  C     0.83341   0.91262   0.50011   0.00000  Uiso   1.00
C1023  C     0.73485   0.83414   0.48824   0.00000  Uiso   1.00
C1024  C     0.93183   0.83287   0.51174   0.00000  Uiso   1.00
C1025  C     0.68032   0.84058   0.48297   0.00000  Uiso   1.00
C1026  C     0.98636   0.82700   0.51691   0.00000  Uiso   1.00
C1027  C     0.83604   0.68773   0.45789   0.00000  Uiso   1.00
C1028  C     0.83102   0.97895   0.54220   0.00000  Uiso   1.00
C1029  C     0.83603   0.97846   0.45800   0.00000  Uiso   1.00
C1030  C     0.83093   0.68822   0.54208   0.00000  Uiso   1.00
C1031  C     0.83351   0.95724   0.50015   0.00000  Uiso   1.00
C1032  C     0.83343   0.70943   0.49992   0.00000  Uiso   1.00
C1033  C     0.80112   0.80744   0.35362   0.00000  Uiso   1.00
C1034  C     0.86559   0.85921   0.64638   0.00000  Uiso   1.00
C1035  C     0.80134   0.80754   0.63747   0.00000  Uiso   1.00
C1036  C     0.86545   0.85906   0.36252   0.00000  Uiso   1.00
Cu1037 Cu    0.83333   0.83334   0.54689   0.00000  Uiso   1.00
Cu1038 Cu    0.83333   0.83333   0.45311   0.00000  Uiso   1.00
H1039  H     0.83815   0.70357   0.42499   0.00000  Uiso   1.00
H1040  H     0.82900   0.96311   0.57511   0.00000  Uiso   1.00
H1041  H     0.83815   0.96224   0.42513   0.00000  Uiso   1.00
H1042  H     0.82885   0.70444   0.57495   0.00000  Uiso   1.00
H1043  H     0.77607   0.78691   0.61505   0.00000  Uiso   1.00
H1044  H     0.89100   0.87962   0.38486   0.00000  Uiso   1.00
N1045  N     0.83335   0.83334   0.61736   0.00000  Uiso   1.00
N1046  N     0.83332   0.83332   0.38264   0.00000  Uiso   1.00
O1047  O     0.83333   0.77322   0.53958   0.00000  Uiso   1.00
O1048  O     0.83334   0.89345   0.46042   0.00000  Uiso   1.00
O1049  O     0.83333   0.77321   0.46039   0.00000  Uiso   1.00
O1050  O     0.83334   0.89346   0.53961   0.00000  Uiso   1.00
O1051  O     0.75828   0.83334   0.53046   0.00000  Uiso   1.00
O1052  O     0.90839   0.83333   0.46954   0.00000  Uiso   1.00
O1053  O     0.75828   0.83333   0.45127   0.00000  Uiso   1.00
O1054  O     0.90839   0.83334   0.54873   0.00000  Uiso   1.00
O1055  O     0.99009   0.85970   0.44252   0.00000  Uiso   1.00
C1056  C     0.67240   0.90168   0.44176   0.00000  Uiso   1.00
H1057  H     0.66727   0.91153   0.40435   0.00000  Uiso   1.00
H1058  H     0.71378   0.90709   0.45515   0.00000  Uiso   1.00
C1059  C     0.97206   0.92863   0.46904   0.00000  Uiso   1.00
H1060  H     0.93111   0.92370   0.45444   0.00000  Uiso   1.00
H1061  H     0.97707   0.91978   0.50678   0.00000  Uiso   1.00
C1062  C     0.98584   0.97426   0.46552   0.00000  Uiso   1.00
H1063  H     0.69293   0.98023   0.48133   0.00000  Uiso   1.00
H1064  H     0.96012   0.99289   0.48481   0.00000  Uiso   1.00
H1065  H     0.98085   0.98401   0.42809   0.00000  Uiso   1.00
O1066  O     0.67535   0.80566   0.55610   0.00000  Uiso   1.00
C1067  C     0.66713   0.76276   0.54802   0.00000  Uiso   1.00
H1068  H     0.69998   0.75026   0.53179   0.00000  Uiso   1.00
H1069  H     0.96424   0.75509   0.52422   0.00000  Uiso   1.00
C1070  C     0.99739   0.74137   0.59501   0.00000  Uiso   1.00
H1071  H     0.70051   0.74658   0.61881   0.00000  Uiso   1.00
H1072  H     0.96557   0.75474   0.61194   0.00000  Uiso   1.00
C1073  C     0.98786   0.69505   0.58825   0.00000  Uiso   1.00
H1074  H     0.95052   0.68899   0.56598   0.00000  Uiso   1.00
H1075  H     0.98664   0.68042   0.62305   0.00000  Uiso   1.00
H1076  H     0.68590   0.68097   0.57136   0.00000  Uiso   1.00
C1077  C     0.76641   0.77943   0.37274   0.00000  Uiso   1.00
N1078  N     0.73837   0.75681   0.38784   0.00000  Uiso   1.00
C1079  C     0.90035   0.88721   0.62731   0.00000  Uiso   1.00
N1080  N     0.92844   0.90983   0.61227   0.00000  Uiso   1.00
C1081  C     0.16667   0.08739   0.83324   0.00000  Uiso   1.00
C1082  C     0.16674   0.24595   0.83345   0.00000  Uiso   1.00
C1083  C     0.06818   0.16747   0.82157   0.00000  Uiso   1.00
C1084  C     0.26516   0.16620   0.84507   0.00000  Uiso   1.00
C1085  C     0.01365   0.17392   0.81631   0.00000  Uiso   1.00
C1086  C     0.31970   0.16033   0.85025   0.00000  Uiso   1.00
C1087  C     0.16938   0.02106   0.79123   0.00000  Uiso   1.00
C1088  C     0.16436   0.31228   0.87553   0.00000  Uiso   1.00
C1089  C     0.16936   0.31179   0.79133   0.00000  Uiso   1.00
C1090  C     0.16427   0.02155   0.87541   0.00000  Uiso   1.00
C1091  C     0.16684   0.29058   0.83348   0.00000  Uiso   1.00
C1092  C     0.16677   0.04276   0.83325   0.00000  Uiso   1.00
C1093  C     0.13445   0.14077   0.68695   0.00000  Uiso   1.00
C1094  C     0.19893   0.19254   0.97971   0.00000  Uiso   1.00
C1095  C     0.13467   0.14087   0.97081   0.00000  Uiso   1.00
C1096  C     0.19878   0.19239   0.69585   0.00000  Uiso   1.00
Cu1097 Cu    0.16667   0.16667   0.88022   0.00000  Uiso   1.00
Cu1098 Cu    0.16667   0.16666   0.78645   0.00000  Uiso   1.00
H1099  H     0.17148   0.03690   0.75833   0.00000  Uiso   1.00
H1100  H     0.16234   0.29644   0.90845   0.00000  Uiso   1.00
H1101  H     0.17149   0.29557   0.75846   0.00000  Uiso   1.00
H1102  H     0.16218   0.03777   0.90829   0.00000  Uiso   1.00
H1103  H     0.10940   0.12024   0.94838   0.00000  Uiso   1.00
H1104  H     0.22433   0.21295   0.71819   0.00000  Uiso   1.00
N1105  N     0.16668   0.16668   0.95069   0.00000  Uiso   1.00
N1106  N     0.16665   0.16666   0.71597   0.00000  Uiso   1.00
O1107  O     0.16666   0.10655   0.87291   0.00000  Uiso   1.00
O1108  O     0.16667   0.22678   0.79375   0.00000  Uiso   1.00
O1109  O     0.16666   0.10654   0.79372   0.00000  Uiso   1.00
O1110  O     0.16667   0.22679   0.87294   0.00000  Uiso   1.00
O1111  O     0.09161   0.16667   0.86379   0.00000  Uiso   1.00
O1112  O     0.24172   0.16666   0.80288   0.00000  Uiso   1.00
O1113  O     0.09161   0.16666   0.78460   0.00000  Uiso   1.00
O1114  O     0.24172   0.16667   0.88207   0.00000  Uiso   1.00
O1115  O     0.32343   0.19303   0.77586   0.00000  Uiso   1.00
C1116  C     0.00573   0.23502   0.77509   0.00000  Uiso   1.00
H1117  H     0.00060   0.24486   0.73768   0.00000  Uiso   1.00
H1118  H     0.04712   0.24042   0.78848   0.00000  Uiso   1.00
C1119  C     0.30539   0.26196   0.80237   0.00000  Uiso   1.00
H1120  H     0.26445   0.25703   0.78777   0.00000  Uiso   1.00
H1121  H     0.31041   0.25311   0.84011   0.00000  Uiso   1.00
C1122  C     0.31917   0.30759   0.79885   0.00000  Uiso   1.00
H1123  H     0.02627   0.31356   0.81466   0.00000  Uiso   1.00
H1124  H     0.29345   0.32623   0.81814   0.00000  Uiso   1.00
H1125  H     0.31418   0.31735   0.76142   0.00000  Uiso   1.00
O1126  O     0.00868   0.13899   0.88943   0.00000  Uiso   1.00
C1127  C     0.00046   0.09609   0.88135   0.00000  Uiso   1.00
H1128  H     0.03331   0.08360   0.86512   0.00000  Uiso   1.00
H1129  H     0.29758   0.08842   0.85755   0.00000  Uiso   1.00
C1130  C     0.33073   0.07470   0.92834   0.00000  Uiso   1.00
H1131  H     0.03384   0.07991   0.95215   0.00000  Uiso   1.00
H1132  H     0.29890   0.08807   0.94527   0.00000  Uiso   1.00
C1133  C     0.32120   0.02839   0.92158   0.00000  Uiso   1.00
H1134  H     0.28385   0.02232   0.89932   0.00000  Uiso   1.00
H1135  H     0.31997   0.01376   0.95639   0.00000  Uiso   1.00
H1136  H     0.01924   0.01430   0.90469   0.00000  Uiso   1.00
C1137  C     0.09975   0.11277   0.70607   0.00000  Uiso   1.00
N1138  N     0.07170   0.09015   0.72117   0.00000  Uiso   1.00
C1139  C     0.23369   0.22054   0.96064   0.00000  Uiso   1.00
N1140  N     0.26178   0.24317   0.94560   0.00000  Uiso   1.00
C1141  C     0.50001   0.08739   0.83324   0.00000  Uiso   1.00
C1142  C     0.50007   0.24595   0.83345   0.00000  Uiso   1.00
C1143  C     0.40151   0.16747   0.82157   0.00000  Uiso   1.00
C1144  C     0.59849   0.16620   0.84507   0.00000  Uiso   1.00
C1145  C     0.34699   0.17392   0.81631   0.00000  Uiso   1.00
C1146  C     0.65303   0.16033   0.85025   0.00000  Uiso   1.00
C1147  C     0.50271   0.02106   0.79123   0.00000  Uiso   1.00
C1148  C     0.49769   0.31228   0.87553   0.00000  Uiso   1.00
C1149  C     0.50270   0.31179   0.79133   0.00000  Uiso   1.00
C1150  C     0.49760   0.02155   0.87541   0.00000  Uiso   1.00
C1151  C     0.50017   0.29058   0.83348   0.00000  Uiso   1.00
C1152  C     0.50010   0.04276   0.83325   0.00000  Uiso   1.00
C1153  C     0.46779   0.14077   0.68695   0.00000  Uiso   1.00
C1154  C     0.53226   0.19254   0.97971   0.00000  Uiso   1.00
C1155  C     0.46801   0.14087   0.97081   0.00000  Uiso   1.00
C1156  C     0.53211   0.19239   0.69585   0.00000  Uiso   1.00
Cu1157 Cu    0.50000   0.16667   0.88022   0.00000  Uiso   1.00
Cu1158 Cu    0.50000   0.16666   0.78645   0.00000  Uiso   1.00
H1159  H     0.50482   0.03690   0.75833   0.00000  Uiso   1.00
H1160  H     0.49567   0.29644   0.90845   0.00000  Uiso   1.00
H1161  H     0.50482   0.29557   0.75846   0.00000  Uiso   1.00
H1162  H     0.49551   0.03777   0.90829   0.00000  Uiso   1.00
H1163  H     0.44273   0.12024   0.94838   0.00000  Uiso   1.00
H1164  H     0.55767   0.21295   0.71819   0.00000  Uiso   1.00
N1165  N     0.50001   0.16668   0.95069   0.00000  Uiso   1.00
N1166  N     0.49999   0.16666   0.71597   0.00000  Uiso   1.00
O1167  O     0.50000   0.10655   0.87291   0.00000  Uiso   1.00
O1168  O     0.50000   0.22678   0.79375   0.00000  Uiso   1.00
O1169  O     0.50000   0.10654   0.79372   0.00000  Uiso   1.00
O1170  O     0.50000   0.22679   0.87294   0.00000  Uiso   1.00
O1171  O     0.42495   0.16667   0.86379   0.00000  Uiso   1.00
O1172  O     0.57505   0.16666   0.80288   0.00000  Uiso   1.00
O1173  O     0.42494   0.16666   0.78460   0.00000  Uiso   1.00
O1174  O     0.57506   0.16667   0.88207   0.00000  Uiso   1.00
O1175  O     0.65676   0.19303   0.77586   0.00000  Uiso   1.00
C1176  C     0.33906   0.23502   0.77509   0.00000  Uiso   1.00
H1177  H     0.33393   0.24486   0.73768   0.00000  Uiso   1.00
H1178  H     0.38045   0.24042   0.78848   0.00000  Uiso   1.00
C1179  C     0.63872   0.26196   0.80237   0.00000  Uiso   1.00
H1180  H     0.59778   0.25703   0.78777   0.00000  Uiso   1.00
H1181  H     0.64374   0.25311   0.84011   0.00000  Uiso   1.00
C1182  C     0.65251   0.30759   0.79885   0.00000  Uiso   1.00
H1183  H     0.35960   0.31356   0.81466   0.00000  Uiso   1.00
H1184  H     0.62679   0.32623   0.81814   0.00000  Uiso   1.00
H1185  H     0.64751   0.31735   0.76142   0.00000  Uiso   1.00
O1186  O     0.34201   0.13899   0.88943   0.00000  Uiso   1.00
C1187  C     0.33379   0.09609   0.88135   0.00000  Uiso   1.00
H1188  H     0.36665   0.08360   0.86512   0.00000  Uiso   1.00
H1189  H     0.63091   0.08842   0.85755   0.00000  Uiso   1.00
C1190  C     0.66406   0.07470   0.92834   0.00000  Uiso   1.00
H1191  H     0.36718   0.07991   0.95215   0.00000  Uiso   1.00
H1192  H     0.63224   0.08807   0.94527   0.00000  Uiso   1.00
C1193  C     0.65453   0.02839   0.92158   0.00000  Uiso   1.00
H1194  H     0.61719   0.02232   0.89932   0.00000  Uiso   1.00
H1195  H     0.65331   0.01376   0.95639   0.00000  Uiso   1.00
H1196  H     0.35257   0.01430   0.90469   0.00000  Uiso   1.00
C1197  C     0.43308   0.11277   0.70607   0.00000  Uiso   1.00
N1198  N     0.40503   0.09015   0.72117   0.00000  Uiso   1.00
C1199  C     0.56702   0.22054   0.96064   0.00000  Uiso   1.00
N1200  N     0.59511   0.24317   0.94560   0.00000  Uiso   1.00
C1201  C     0.83334   0.08739   0.83324   0.00000  Uiso   1.00
C1202  C     0.83341   0.24595   0.83345   0.00000  Uiso   1.00
C1203  C     0.73485   0.16747   0.82157   0.00000  Uiso   1.00
C1204  C     0.93183   0.16620   0.84507   0.00000  Uiso   1.00
C1205  C     0.68032   0.17392   0.81631   0.00000  Uiso   1.00
C1206  C     0.98636   0.16033   0.85025   0.00000  Uiso   1.00
C1207  C     0.83604   0.02106   0.79123   0.00000  Uiso   1.00
C1208  C     0.83102   0.31228   0.87553   0.00000  Uiso   1.00
C1209  C     0.83603   0.31179   0.79133   0.00000  Uiso   1.00
C1210  C     0.83093   0.02155   0.87541   0.00000  Uiso   1.00
C1211  C     0.83351   0.29058   0.83348   0.00000  Uiso   1.00
C1212  C     0.83343   0.04276   0.83325   0.00000  Uiso   1.00
C1213  C     0.80112   0.14077   0.68695   0.00000  Uiso   1.00
C1214  C     0.86559   0.19254   0.97971   0.00000  Uiso   1.00
C1215  C     0.80134   0.14087   0.97081   0.00000  Uiso   1.00
C1216  C     0.86545   0.19239   0.69585   0.00000  Uiso   1.00
Cu1217 Cu    0.83333   0.16667   0.88022   0.00000  Uiso   1.00
Cu1218 Cu    0.83333   0.16666   0.78645   0.00000  Uiso   1.00
H1219  H     0.83815   0.03690   0.75833   0.00000  Uiso   1.00
H1220  H     0.82900   0.29644   0.90845   0.00000  Uiso   1.00
H1221  H     0.83815   0.29557   0.75846   0.00000  Uiso   1.00
H1222  H     0.82885   0.03777   0.90829   0.00000  Uiso   1.00
H1223  H     0.77607   0.12024   0.94838   0.00000  Uiso   1.00
H1224  H     0.89100   0.21295   0.71819   0.00000  Uiso   1.00
N1225  N     0.83335   0.16668   0.95069   0.00000  Uiso   1.00
N1226  N     0.83332   0.16666   0.71597   0.00000  Uiso   1.00
O1227  O     0.83333   0.10655   0.87291   0.00000  Uiso   1.00
O1228  O     0.83334   0.22678   0.79375   0.00000  Uiso   1.00
O1229  O     0.83333   0.10654   0.79372   0.00000  Uiso   1.00
O1230  O     0.83334   0.22679   0.87294   0.00000  Uiso   1.00
O1231  O     0.75828   0.16667   0.86379   0.00000  Uiso   1.00
O1232  O     0.90839   0.16666   0.80288   0.00000  Uiso   1.00
O1233  O     0.75828   0.16666   0.78460   0.00000  Uiso   1.00
O1234  O     0.90839   0.16667   0.88207   0.00000  Uiso   1.00
O1235  O     0.99009   0.19303   0.77586   0.00000  Uiso   1.00
C1236  C     0.67240   0.23502   0.77509   0.00000  Uiso   1.00
H1237  H     0.66727   0.24486   0.73768   0.00000  Uiso   1.00
H1238  H     0.71378   0.24042   0.78848   0.00000  Uiso   1.00
C1239  C     0.97206   0.26196   0.80237   0.00000  Uiso   1.00
H1240  H     0.93111   0.25703   0.78777   0.00000  Uiso   1.00
H1241  H     0.97707   0.25311   0.84011   0.00000  Uiso   1.00
C1242  C     0.98584   0.30759   0.79885   0.00000  Uiso   1.00
H1243  H     0.69293   0.31356   0.81466   0.00000  Uiso   1.00
H1244  H     0.96012   0.32623   0.81814   0.00000  Uiso   1.00
H1245  H     0.98085   0.31735   0.76142   0.00000  Uiso   1.00
O1246  O     0.67535   0.13899   0.88943   0.00000  Uiso   1.00
C1247  C     0.66713   0.09609   0.88135   0.00000  Uiso   1.00
H1248  H     0.69998   0.08360   0.86512   0.00000  Uiso   1.00
H1249  H     0.96424   0.08842   0.85755   0.00000  Uiso   1.00
C1250  C     0.99739   0.07470   0.92834   0.00000  Uiso   1.00
H1251  H     0.70051   0.07991   0.95215   0.00000  Uiso   1.00
H1252  H     0.96557   0.08807   0.94527   0.00000  Uiso   1.00
C1253  C     0.98786   0.02839   0.92158   0.00000  Uiso   1.00
H1254  H     0.95052   0.02232   0.89932   0.00000  Uiso   1.00
H1255  H     0.98664   0.01376   0.95639   0.00000  Uiso   1.00
H1256  H     0.68590   0.01430   0.90469   0.00000  Uiso   1.00
C1257  C     0.76641   0.11277   0.70607   0.00000  Uiso   1.00
N1258  N     0.73837   0.09015   0.72117   0.00000  Uiso   1.00
C1259  C     0.90035   0.22054   0.96064   0.00000  Uiso   1.00
N1260  N     0.92844   0.24317   0.94560   0.00000  Uiso   1.00
C1261  C     0.16667   0.42072   0.83324   0.00000  Uiso   1.00
C1262  C     0.16674   0.57928   0.83345   0.00000  Uiso   1.00
C1263  C     0.06818   0.50080   0.82157   0.00000  Uiso   1.00
C1264  C     0.26516   0.49953   0.84507   0.00000  Uiso   1.00
C1265  C     0.01365   0.50725   0.81631   0.00000  Uiso   1.00
C1266  C     0.31970   0.49367   0.85025   0.00000  Uiso   1.00
C1267  C     0.16938   0.35440   0.79123   0.00000  Uiso   1.00
C1268  C     0.16436   0.64561   0.87553   0.00000  Uiso   1.00
C1269  C     0.16936   0.64513   0.79133   0.00000  Uiso   1.00
C1270  C     0.16427   0.35488   0.87541   0.00000  Uiso   1.00
C1271  C     0.16684   0.62391   0.83348   0.00000  Uiso   1.00
C1272  C     0.16677   0.37609   0.83325   0.00000  Uiso   1.00
C1273  C     0.13445   0.47410   0.68695   0.00000  Uiso   1.00
C1274  C     0.19893   0.52587   0.97971   0.00000  Uiso   1.00
C1275  C     0.13467   0.47421   0.97081   0.00000  Uiso   1.00
C1276  C     0.19878   0.52573   0.69585   0.00000  Uiso   1.00
Cu1277 Cu    0.16667   0.50001   0.88022   0.00000  Uiso   1.00
Cu1278 Cu    0.16667   0.49999   0.78645   0.00000  Uiso   1.00
H1279  H     0.17148   0.37023   0.75833   0.00000  Uiso   1.00
H1280  H     0.16234   0.62977   0.90845   0.00000  Uiso   1.00
H1281  H     0.17149   0.62891   0.75846   0.00000  Uiso   1.00
H1282  H     0.16218   0.37111   0.90829   0.00000  Uiso   1.00
H1283  H     0.10940   0.45358   0.94838   0.00000  Uiso   1.00
H1284  H     0.22433   0.54628   0.71819   0.00000  Uiso   1.00
N1285  N     0.16668   0.50001   0.95069   0.00000  Uiso   1.00
N1286  N     0.16665   0.49999   0.71597   0.00000  Uiso   1.00
O1287  O     0.16666   0.43989   0.87291   0.00000  Uiso   1.00
O1288  O     0.16667   0.56011   0.79375   0.00000  Uiso   1.00
O1289  O     0.16666   0.43988   0.79372   0.00000  Uiso   1.00
O1290  O     0.16667   0.56012   0.87294   0.00000  Uiso   1.00
O1291  O     0.09161   0.50000   0.86379   0.00000  Uiso   1.00
O1292  O     0.24172   0.50000   0.80288   0.00000  Uiso   1.00
O1293  O     0.09161   0.49999   0.78460   0.00000  Uiso   1.00
O1294  O     0.24172   0.50001   0.88207   0.00000  Uiso   1.00
O1295  O     0.32343   0.52636   0.77586   0.00000  Uiso   1.00
C1296  C     0.00573   0.56835   0.77509   0.00000  Uiso   1.00
H1297  H     0.00060   0.57819   0.73768   0.00000  Uiso   1.00
H1298  H     0.04712   0.57375   0.78848   0.00000  Uiso   1.00
C1299  C     0.30539   0.59529   0.80237   0.00000  Uiso   1.00
H1300  H     0.26445   0.59037   0.78777   0.00000  Uiso   1.00
H1301  H     0.31041   0.58644   0.84011   0.00000  Uiso   1.00
C1302  C     0.31917   0.64093   0.79885   0.00000  Uiso   1.00
H1303  H     0.02627   0.64689   0.81466   0.00000  Uiso   1.00
H1304  H     0.29345   0.65956   0.81814   0.00000  Uiso   1.00
H1305  H     0.31418   0.65068   0.76142   0.00000  Uiso   1.00
O1306  O     0.00868   0.47232   0.88943   0.00000  Uiso   1.00
C1307  C     0.00046   0.42942   0.88135   0.00000  Uiso   1.00
H1308  H     0.03331   0.41693   0.86512   0.00000  Uiso   1.00
H1309  H     0.29758   0.42175   0.85755   0.00000  Uiso   1.00
C1310  C     0.33073   0.40804   0.92834   0.00000  Uiso   1.00
H1311  H     0.03384   0.41324   0.95215   0.00000  Uiso   1.00
H1312  H     0.29890   0.42141   0.94527   0.00000  Uiso   1.00
C1313  C     0.32120   0.36172   0.92158   0.00000  Uiso   1.00
H1314  H     0.28385   0.35566   0.89932   0.00000  Uiso   1.00
H1315  H     0.31997   0.34709   0.95639   0.00000  Uiso   1.00
H1316  H     0.01924   0.34764   0.90469   0.00000  Uiso   1.00
C1317  C     0.09975   0.44610   0.70607   0.00000  Uiso   1.00
N1318  N     0.07170   0.42348   0.72117   0.00000  Uiso   1.00
C1319  C     0.23369   0.55387   0.96064   0.00000  Uiso   1.00
N1320  N     0.26178   0.57650   0.94560   0.00000  Uiso   1.00
C1321  C     0.50001   0.42072   0.83324   0.00000  Uiso   1.00
C1322  C     0.50007   0.57928   0.83345   0.00000  Uiso   1.00
C1323  C     0.40151   0.50080   0.82157   0.00000  Uiso   1.00
C1324  C     0.59849   0.49953   0.84507   0.00000  Uiso   1.00
C1325  C     0.34699   0.50725   0.81631   0.00000  Uiso   1.00
C1326  C     0.65303   0.49367   0.85025   0.00000  Uiso   1.00
C1327  C     0.50271   0.35440   0.79123   0.00000  Uiso   1.00
C1328  C     0.49769   0.64561   0.87553   0.00000  Uiso   1.00
C1329  C     0.50270   0.64513   0.79133   0.00000  Uiso   1.00
C1330  C     0.49760   0.35488   0.87541   0.00000  Uiso   1.00
C1331  C     0.50017   0.62391   0.83348   0.00000  Uiso   1.00
C1332  C     0.50010   0.37609   0.83325   0.00000  Uiso   1.00
C1333  C     0.46779   0.47410   0.68695   0.00000  Uiso   1.00
C1334  C     0.53226   0.52587   0.97971   0.00000  Uiso   1.00
C1335  C     0.46801   0.47421   0.97081   0.00000  Uiso   1.00
C1336  C     0.53211   0.52573   0.69585   0.00000  Uiso   1.00
Cu1337 Cu    0.50000   0.50001   0.88022   0.00000  Uiso   1.00
Cu1338 Cu    0.50000   0.49999   0.78645   0.00000  Uiso   1.00
H1339  H     0.50482   0.37023   0.75833   0.00000  Uiso   1.00
H1340  H     0.49567   0.62977   0.90845   0.00000  Uiso   1.00
H1341  H     0.50482   0.62891   0.75846   0.00000  Uiso   1.00
H1342  H     0.49551   0.37111   0.90829   0.00000  Uiso   1.00
H1343  H     0.44273   0.45358   0.94838   0.00000  Uiso   1.00
H1344  H     0.55767   0.54628   0.71819   0.00000  Uiso   1.00
N1345  N     0.50001   0.50001   0.95069   0.00000  Uiso   1.00
N1346  N     0.49999   0.49999   0.71597   0.00000  Uiso   1.00
O1347  O     0.50000   0.43989   0.87291   0.00000  Uiso   1.00
O1348  O     0.50000   0.56011   0.79375   0.00000  Uiso   1.00
O1349  O     0.50000   0.43988   0.79372   0.00000  Uiso   1.00
O1350  O     0.50000   0.56012   0.87294   0.00000  Uiso   1.00
O1351  O     0.42495   0.50000   0.86379   0.00000  Uiso   1.00
O1352  O     0.57505   0.50000   0.80288   0.00000  Uiso   1.00
O1353  O     0.42494   0.49999   0.78460   0.00000  Uiso   1.00
O1354  O     0.57506   0.50001   0.88207   0.00000  Uiso   1.00
O1355  O     0.65676   0.52636   0.77586   0.00000  Uiso   1.00
C1356  C     0.33906   0.56835   0.77509   0.00000  Uiso   1.00
H1357  H     0.33393   0.57819   0.73768   0.00000  Uiso   1.00
H1358  H     0.38045   0.57375   0.78848   0.00000  Uiso   1.00
C1359  C     0.63872   0.59529   0.80237   0.00000  Uiso   1.00
H1360  H     0.59778   0.59037   0.78777   0.00000  Uiso   1.00
H1361  H     0.64374   0.58644   0.84011   0.00000  Uiso   1.00
C1362  C     0.65251   0.64093   0.79885   0.00000  Uiso   1.00
H1363  H     0.35960   0.64689   0.81466   0.00000  Uiso   1.00
H1364  H     0.62679   0.65956   0.81814   0.00000  Uiso   1.00
H1365  H     0.64751   0.65068   0.76142   0.00000  Uiso   1.00
O1366  O     0.34201   0.47232   0.88943   0.00000  Uiso   1.00
C1367  C     0.33379   0.42942   0.88135   0.00000  Uiso   1.00
H1368  H     0.36665   0.41693   0.86512   0.00000  Uiso   1.00
H1369  H     0.63091   0.42175   0.85755   0.00000  Uiso   1.00
C1370  C     0.66406   0.40804   0.92834   0.00000  Uiso   1.00
H1371  H     0.36718   0.41324   0.95215   0.00000  Uiso   1.00
H1372  H     0.63224   0.42141   0.94527   0.00000  Uiso   1.00
C1373  C     0.65453   0.36172   0.92158   0.00000  Uiso   1.00
H1374  H     0.61719   0.35566   0.89932   0.00000  Uiso   1.00
H1375  H     0.65331   0.34709   0.95639   0.00000  Uiso   1.00
H1376  H     0.35257   0.34764   0.90469   0.00000  Uiso   1.00
C1377  C     0.43308   0.44610   0.70607   0.00000  Uiso   1.00
N1378  N     0.40503   0.42348   0.72117   0.00000  Uiso   1.00
C1379  C     0.56702   0.55387   0.96064   0.00000  Uiso   1.00
N1380  N     0.59511   0.57650   0.94560   0.00000  Uiso   1.00
C1381  C     0.83334   0.42072   0.83324   0.00000  Uiso   1.00
C1382  C     0.83341   0.57928   0.83345   0.00000  Uiso   1.00
C1383  C     0.73485   0.50080   0.82157   0.00000  Uiso   1.00
C1384  C     0.93183   0.49953   0.84507   0.00000  Uiso   1.00
C1385  C     0.68032   0.50725   0.81631   0.00000  Uiso   1.00
C1386  C     0.98636   0.49367   0.85025   0.00000  Uiso   1.00
C1387  C     0.83604   0.35440   0.79123   0.00000  Uiso   1.00
C1388  C     0.83102   0.64561   0.87553   0.00000  Uiso   1.00
C1389  C     0.83603   0.64513   0.79133   0.00000  Uiso   1.00
C1390  C     0.83093   0.35488   0.87541   0.00000  Uiso   1.00
C1391  C     0.83351   0.62391   0.83348   0.00000  Uiso   1.00
C1392  C     0.83343   0.37609   0.83325   0.00000  Uiso   1.00
C1393  C     0.80112   0.47410   0.68695   0.00000  Uiso   1.00
C1394  C     0.86559   0.52587   0.97971   0.00000  Uiso   1.00
C1395  C     0.80134   0.47421   0.97081   0.00000  Uiso   1.00
C1396  C     0.86545   0.52573   0.69585   0.00000  Uiso   1.00
Cu1397 Cu    0.83333   0.50001   0.88022   0.00000  Uiso   1.00
Cu1398 Cu    0.83333   0.49999   0.78645   0.00000  Uiso   1.00
H1399  H     0.83815   0.37023   0.75833   0.00000  Uiso   1.00
H1400  H     0.82900   0.62977   0.90845   0.00000  Uiso   1.00
H1401  H     0.83815   0.62891   0.75846   0.00000  Uiso   1.00
H1402  H     0.82885   0.37111   0.90829   0.00000  Uiso   1.00
H1403  H     0.77607   0.45358   0.94838   0.00000  Uiso   1.00
H1404  H     0.89100   0.54628   0.71819   0.00000  Uiso   1.00
N1405  N     0.83335   0.50001   0.95069   0.00000  Uiso   1.00
N1406  N     0.83332   0.49999   0.71597   0.00000  Uiso   1.00
O1407  O     0.83333   0.43989   0.87291   0.00000  Uiso   1.00
O1408  O     0.83334   0.56011   0.79375   0.00000  Uiso   1.00
O1409  O     0.83333   0.43988   0.79372   0.00000  Uiso   1.00
O1410  O     0.83334   0.56012   0.87294   0.00000  Uiso   1.00
O1411  O     0.75828   0.50000   0.86379   0.00000  Uiso   1.00
O1412  O     0.90839   0.50000   0.80288   0.00000  Uiso   1.00
O1413  O     0.75828   0.49999   0.78460   0.00000  Uiso   1.00
O1414  O     0.90839   0.50001   0.88207   0.00000  Uiso   1.00
O1415  O     0.99009   0.52636   0.77586   0.00000  Uiso   1.00
C1416  C     0.67240   0.56835   0.77509   0.00000  Uiso   1.00
H1417  H     0.66727   0.57819   0.73768   0.00000  Uiso   1.00
H1418  H     0.71378   0.57375   0.78848   0.00000  Uiso   1.00
C1419  C     0.97206   0.59529   0.80237   0.00000  Uiso   1.00
H1420  H     0.93111   0.59037   0.78777   0.00000  Uiso   1.00
H1421  H     0.97707   0.58644   0.84011   0.00000  Uiso   1.00
C1422  C     0.98584   0.64093   0.79885   0.00000  Uiso   1.00
H1423  H     0.69293   0.64689   0.81466   0.00000  Uiso   1.00
H1424  H     0.96012   0.65956   0.81814   0.00000  Uiso   1.00
H1425  H     0.98085   0.65068   0.76142   0.00000  Uiso   1.00
O1426  O     0.67535   0.47232   0.88943   0.00000  Uiso   1.00
C1427  C     0.66713   0.42942   0.88135   0.00000  Uiso   1.00
H1428  H     0.69998   0.41693   0.86512   0.00000  Uiso   1.00
H1429  H     0.96424   0.42175   0.85755   0.00000  Uiso   1.00
C1430  C     0.99739   0.40804   0.92834   0.00000  Uiso   1.00
H1431  H     0.70051   0.41324   0.95215   0.00000  Uiso   1.00
H1432  H     0.96557   0.42141   0.94527   0.00000  Uiso   1.00
C1433  C     0.98786   0.36172   0.92158   0.00000  Uiso   1.00
H1434  H     0.95052   0.35566   0.89932   0.00000  Uiso   1.00
H1435  H     0.98664   0.34709   0.95639   0.00000  Uiso   1.00
H1436  H     0.68590   0.34764   0.90469   0.00000  Uiso   1.00
C1437  C     0.76641   0.44610   0.70607   0.00000  Uiso   1.00
N1438  N     0.73837   0.42348   0.72117   0.00000  Uiso   1.00
C1439  C     0.90035   0.55387   0.96064   0.00000  Uiso   1.00
N1440  N     0.92844   0.57650   0.94560   0.00000  Uiso   1.00
C1441  C     0.16667   0.75405   0.83324   0.00000  Uiso   1.00
C1442  C     0.16674   0.91262   0.83345   0.00000  Uiso   1.00
C1443  C     0.06818   0.83414   0.82157   0.00000  Uiso   1.00
C1444  C     0.26516   0.83287   0.84507   0.00000  Uiso   1.00
C1445  C     0.01365   0.84058   0.81631   0.00000  Uiso   1.00
C1446  C     0.31970   0.82700   0.85025   0.00000  Uiso   1.00
C1447  C     0.16938   0.68773   0.79123   0.00000  Uiso   1.00
C1448  C     0.16436   0.97895   0.87553   0.00000  Uiso   1.00
C1449  C     0.16936   0.97846   0.79133   0.00000  Uiso   1.00
C1450  C     0.16427   0.68822   0.87541   0.00000  Uiso   1.00
C1451  C     0.16684   0.95724   0.83348   0.00000  Uiso   1.00
C1452  C     0.16677   0.70943   0.83325   0.00000  Uiso   1.00
C1453  C     0.13445   0.80744   0.68695   0.00000  Uiso   1.00
C1454  C     0.19893   0.85921   0.97971   0.00000  Uiso   1.00
C1455  C     0.13467   0.80754   0.97081   0.00000  Uiso   1.00
C1456  C     0.19878   0.85906   0.69585   0.00000  Uiso   1.00
Cu1457 Cu    0.16667   0.83334   0.88022   0.00000  Uiso   1.00
Cu1458 Cu    0.16667   0.83333   0.78645   0.00000  Uiso   1.00
H1459  H     0.17148   0.70357   0.75833   0.00000  Uiso   1.00
H1460  H     0.16234   0.96311   0.90845   0.00000  Uiso   1.00
H1461  H     0.17149   0.96224   0.75846   0.00000  Uiso   1.00
H1462  H     0.16218   0.70444   0.90829   0.00000  Uiso   1.00
H1463  H     0.10940   0.78691   0.94838   0.00000  Uiso   1.00
H1464  H     0.22433   0.87962   0.71819   0.00000  Uiso   1.00
N1465  N     0.16668   0.83334   0.95069   0.00000  Uiso   1.00
N1466  N     0.16665   0.83332   0.71597   0.00000  Uiso   1.00
O1467  O     0.16666   0.77322   0.87291   0.00000  Uiso   1.00
O1468  O     0.16667   0.89345   0.79375   0.00000  Uiso   1.00
O1469  O     0.16666   0.77321   0.79372   0.00000  Uiso   1.00
O1470  O     0.16667   0.89346   0.87294   0.00000  Uiso   1.00
O1471  O     0.09161   0.83334   0.86379   0.00000  Uiso   1.00
O1472  O     0.24172   0.83333   0.80288   0.00000  Uiso   1.00
O1473  O     0.09161   0.83333   0.78460   0.00000  Uiso   1.00
O1474  O     0.24172   0.83334   0.88207   0.00000  Uiso   1.00
O1475  O     0.32343   0.85970   0.77586   0.00000  Uiso   1.00
C1476  C     0.00573   0.90168   0.77509   0.00000  Uiso   1.00
H1477  H     0.00060   0.91153   0.73768   0.00000  Uiso   1.00
H1478  H     0.04712   0.90709   0.78848   0.00000  Uiso   1.00
C1479  C     0.30539   0.92863   0.80237   0.00000  Uiso   1.00
H1480  H     0.26445   0.92370   0.78777   0.00000  Uiso   1.00
H1481  H     0.31041   0.91978   0.84011   0.00000  Uiso   1.00
C1482  C     0.31917   0.97426   0.79885   0.00000  Uiso   1.00
H1483  H     0.02627   0.98023   0.81466   0.00000  Uiso   1.00
H1484  H     0.29345   0.99289   0.81814   0.00000  Uiso   1.00
H1485  H     0.31418   0.98401   0.76142   0.00000  Uiso   1.00
O1486  O     0.00868   0.80566   0.88943   0.00000  Uiso   1.00
C1487  C     0.00046   0.76276   0.88135   0.00000  Uiso   1.00
H1488  H     0.03331   0.75026   0.86512   0.00000  Uiso   1.00
H1489  H     0.29758   0.75509   0.85755   0.00000  Uiso   1.00
C1490  C     0.33073   0.74137   0.92834   0.00000  Uiso   1.00
H1491  H     0.03384   0.74658   0.95215   0.00000  Uiso   1.00
H1492  H     0.29890   0.75474   0.94527   0.00000  Uiso   1.00
C1493  C     0.32120   0.69505   0.92158   0.00000  Uiso   1.00
H1494  H     0.28385   0.68899   0.89932   0.00000  Uiso   1.00
H1495  H     0.31997   0.68042   0.95639   0.00000  Uiso   1.00
H1496  H     0.01924   0.68097   0.90469   0.00000  Uiso   1.00
C1497  C     0.09975   0.77943   0.70607   0.00000  Uiso   1.00
N1498  N     0.07170   0.75681   0.72117   0.00000  Uiso   1.00
C1499  C     0.23369   0.88721   0.96064   0.00000  Uiso   1.00
N1500  N     0.26178   0.90983   0.94560   0.00000  Uiso   1.00
C1501  C     0.50001   0.75405   0.83324   0.00000  Uiso   1.00
C1502  C     0.50007   0.91262   0.83345   0.00000  Uiso   1.00
C1503  C     0.40151   0.83414   0.82157   0.00000  Uiso   1.00
C1504  C     0.59849   0.83287   0.84507   0.00000  Uiso   1.00
C1505  C     0.34699   0.84058   0.81631   0.00000  Uiso   1.00
C1506  C     0.65303   0.82700   0.85025   0.00000  Uiso   1.00
C1507  C     0.50271   0.68773   0.79123   0.00000  Uiso   1.00
C1508  C     0.49769   0.97895   0.87553   0.00000  Uiso   1.00
C1509  C     0.50270   0.97846   0.79133   0.00000  Uiso   1.00
C1510  C     0.49760   0.68822   0.87541   0.00000  Uiso   1.00
C1511  C     0.50017   0.95724   0.83348   0.00000  Uiso   1.00
C1512  C     0.50010   0.70943   0.83325   0.00000  Uiso   1.00
C1513  C     0.46779   0.80744   0.68695   0.00000  Uiso   1.00
C1514  C     0.53226   0.85921   0.97971   0.00000  Uiso   1.00
C1515  C     0.46801   0.80754   0.97081   0.00000  Uiso   1.00
C1516  C     0.53211   0.85906   0.69585   0.00000  Uiso   1.00
Cu1517 Cu    0.50000   0.83334   0.88022   0.00000  Uiso   1.00
Cu1518 Cu    0.50000   0.83333   0.78645   0.00000  Uiso   1.00
H1519  H     0.50482   0.70357   0.75833   0.00000  Uiso   1.00
H1520  H     0.49567   0.96311   0.90845   0.00000  Uiso   1.00
H1521  H     0.50482   0.96224   0.75846   0.00000  Uiso   1.00
H1522  H     0.49551   0.70444   0.90829   0.00000  Uiso   1.00
H1523  H     0.44273   0.78691   0.94838   0.00000  Uiso   1.00
H1524  H     0.55767   0.87962   0.71819   0.00000  Uiso   1.00
N1525  N     0.50001   0.83334   0.95069   0.00000  Uiso   1.00
N1526  N     0.49999   0.83332   0.71597   0.00000  Uiso   1.00
O1527  O     0.50000   0.77322   0.87291   0.00000  Uiso   1.00
O1528  O     0.50000   0.89345   0.79375   0.00000  Uiso   1.00
O1529  O     0.50000   0.77321   0.79372   0.00000  Uiso   1.00
O1530  O     0.50000   0.89346   0.87294   0.00000  Uiso   1.00
O1531  O     0.42495   0.83334   0.86379   0.00000  Uiso   1.00
O1532  O     0.57505   0.83333   0.80288   0.00000  Uiso   1.00
O1533  O     0.42494   0.83333   0.78460   0.00000  Uiso   1.00
O1534  O     0.57506   0.83334   0.88207   0.00000  Uiso   1.00
O1535  O     0.65676   0.85970   0.77586   0.00000  Uiso   1.00
C1536  C     0.33906   0.90168   0.77509   0.00000  Uiso   1.00
H1537  H     0.33393   0.91153   0.73768   0.00000  Uiso   1.00
H1538  H     0.38045   0.90709   0.78848   0.00000  Uiso   1.00
C1539  C     0.63872   0.92863   0.80237   0.00000  Uiso   1.00
H1540  H     0.59778   0.92370   0.78777   0.00000  Uiso   1.00
H1541  H     0.64374   0.91978   0.84011   0.00000  Uiso   1.00
C1542  C     0.65251   0.97426   0.79885   0.00000  Uiso   1.00
H1543  H     0.35960   0.98023   0.81466   0.00000  Uiso   1.00
H1544  H     0.62679   0.99289   0.81814   0.00000  Uiso   1.00
H1545  H     0.64751   0.98401   0.76142   0.00000  Uiso   1.00
O1546  O     0.34201   0.80566   0.88943   0.00000  Uiso   1.00
C1547  C     0.33379   0.76276   0.88135   0.00000  Uiso   1.00
H1548  H     0.36665   0.75026   0.86512   0.00000  Uiso   1.00
H1549  H     0.63091   0.75509   0.85755   0.00000  Uiso   1.00
C1550  C     0.66406   0.74137   0.92834   0.00000  Uiso   1.00
H1551  H     0.36718   0.74658   0.95215   0.00000  Uiso   1.00
H1552  H     0.63224   0.75474   0.94527   0.00000  Uiso   1.00
C1553  C     0.65453   0.69505   0.92158   0.00000  Uiso   1.00
H1554  H     0.61719   0.68899   0.89932   0.00000  Uiso   1.00
H1555  H     0.65331   0.68042   0.95639   0.00000  Uiso   1.00
H1556  H     0.35257   0.68097   0.90469   0.00000  Uiso   1.00
C1557  C     0.43308   0.77943   0.70607   0.00000  Uiso   1.00
N1558  N     0.40503   0.75681   0.72117   0.00000  Uiso   1.00
C1559  C     0.56702   0.88721   0.96064   0.00000  Uiso   1.00
N1560  N     0.59511   0.90983   0.94560   0.00000  Uiso   1.00
C1561  C     0.83334   0.75405   0.83324   0.00000  Uiso   1.00
C1562  C     0.83341   0.91262   0.83345   0.00000  Uiso   1.00
C1563  C     0.73485   0.83414   0.82157   0.00000  Uiso   1.00
C1564  C     0.93183   0.83287   0.84507   0.00000  Uiso   1.00
C1565  C     0.68032   0.84058   0.81631   0.00000  Uiso   1.00
C1566  C     0.98636   0.82700   0.85025   0.00000  Uiso   1.00
C1567  C     0.83604   0.68773   0.79123   0.00000  Uiso   1.00
C1568  C     0.83102   0.97895   0.87553   0.00000  Uiso   1.00
C1569  C     0.83603   0.97846   0.79133   0.00000  Uiso   1.00
C1570  C     0.83093   0.68822   0.87541   0.00000  Uiso   1.00
C1571  C     0.83351   0.95724   0.83348   0.00000  Uiso   1.00
C1572  C     0.83343   0.70943   0.83325   0.00000  Uiso   1.00
C1573  C     0.80112   0.80744   0.68695   0.00000  Uiso   1.00
C1574  C     0.86559   0.85921   0.97971   0.00000  Uiso   1.00
C1575  C     0.80134   0.80754   0.97081   0.00000  Uiso   1.00
C1576  C     0.86545   0.85906   0.69585   0.00000  Uiso   1.00
Cu1577 Cu    0.83333   0.83334   0.88022   0.00000  Uiso   1.00
Cu1578 Cu    0.83333   0.83333   0.78645   0.00000  Uiso   1.00
H1579  H     0.83815   0.70357   0.75833   0.00000  Uiso   1.00
H1580  H     0.82900   0.96311   0.90845   0.00000  Uiso   1.00
H1581  H     0.83815   0.96224   0.75846   0.00000  Uiso   1.00
H1582  H     0.82885   0.70444   0.90829   0.00000  Uiso   1.00
H1583  H     0.77607   0.78691   0.94838   0.00000  Uiso   1.00
H1584  H     0.89100   0.87962   0.71819   0.00000  Uiso   1.00
N1585  N     0.83335   0.83334   0.95069   0.00000  Uiso   1.00
N1586  N     0.83332   0.83332   0.71597   0.00000  Uiso   1.00
O1587  O     0.83333   0.77322   0.87291   0.00000  Uiso   1.00
O1588  O     0.83334   0.89345   0.79375   0.00000  Uiso   1.00
O1589  O     0.83333   0.77321   0.79372   0.00000  Uiso   1.00
O1590  O     0.83334   0.89346   0.87294   0.00000  Uiso   1.00
O1591  O     0.75828   0.83334   0.86379   0.00000  Uiso   1.00
O1592  O     0.90839   0.83333   0.80288   0.00000  Uiso   1.00
O1593  O     0.75828   0.83333   0.78460   0.00000  Uiso   1.00
O1594  O     0.90839   0.83334   0.88207   0.00000  Uiso   1.00
O1595  O     0.99009   0.85970   0.77586   0.00000  Uiso   1.00
C1596  C     0.67240   0.90168   0.77509   0.00000  Uiso   1.00
H1597  H     0.66727   0.91153   0.73768   0.00000  Uiso   1.00
H1598  H     0.71378   0.90709   0.78848   0.00000  Uiso   1.00
C1599  C     0.97206   0.92863   0.80237   0.00000  Uiso   1.00
H1600  H     0.93111   0.92370   0.78777   0.00000  Uiso   1.00
H1601  H     0.97707   0.91978   0.84011   0.00000  Uiso   1.00
C1602  C     0.98584   0.97426   0.79885   0.00000  Uiso   1.00
H1603  H     0.69293   0.98023   0.81466   0.00000  Uiso   1.00
H1604  H     0.96012   0.99289   0.81814   0.00000  Uiso   1.00
H1605  H     0.98085   0.98401   0.76142   0.00000  Uiso   1.00
O1606  O     0.67535   0.80566   0.88943   0.00000  Uiso   1.00
C1607  C     0.66713   0.76276   0.88135   0.00000  Uiso   1.00
H1608  H     0.69998   0.75026   0.86512   0.00000  Uiso   1.00
H1609  H     0.96424   0.75509   0.85755   0.00000  Uiso   1.00
C1610  C     0.99739   0.74137   0.92834   0.00000  Uiso   1.00
H1611  H     0.70051   0.74658   0.95215   0.00000  Uiso   1.00
H1612  H     0.96557   0.75474   0.94527   0.00000  Uiso   1.00
C1613  C     0.98786   0.69505   0.92158   0.00000  Uiso   1.00
H1614  H     0.95052   0.68899   0.89932   0.00000  Uiso   1.00
H1615  H     0.98664   0.68042   0.95639   0.00000  Uiso   1.00
H1616  H     0.68590   0.68097   0.90469   0.00000  Uiso   1.00
C1617  C     0.76641   0.77943   0.70607   0.00000  Uiso   1.00
N1618  N     0.73837   0.75681   0.72117   0.00000  Uiso   1.00
C1619  C     0.90035   0.88721   0.96064   0.00000  Uiso   1.00
N1620  N     0.92844   0.90983   0.94560   0.00000  Uiso   1.00
loop_
_geom_bond_atom_site_label_1
_geom_bond_atom_site_label_2
_geom_bond_distance
_geom_bond_site_symmetry_2
_ccdc_geom_bond_type
C1     C12     1.448   .     S
C1     O29     1.294   .     A
C1     O27     1.291   .     A
C2     O30     1.294   .     A
C2     C11     1.448   .     S
C2     O28     1.291   .     A
C3     O31     1.282   .     A
C3     O33     1.293   .     A
C3     C5      1.438   .     S
C4     O32     1.281   .     A
C4     O34     1.293   .     A
C4     C6      1.436   .     S
C5     C126    1.353   1_455 S
C5     O155    1.393   1_455 S
C6     C65     1.353   .     S
C6     O106    1.389   .     S
C7     H19     1.083   .     S
C7     C12     1.400   .     A
C7     C369    1.382   1_545 S
C8     H20     1.083   .     S
C8     C11     1.400   .     A
C8     C190    1.382   .     S
C9     C11     1.402   .     A
C9     H21     1.083   .     S
C9     C187    1.382   .     S
C10    H22     1.083   .     S
C10    C12     1.402   .     A
C10    C368    1.382   1_545 S
C13    N26     1.377   .     A
C13    C57     1.438   .     S
C13    C1095   1.417   1_554 S
C14    C59     1.439   .     S
C14    N25     1.377   .     A
C14    C556    1.417   .     S
C15    H23     1.081   .     S
C15    N25     1.361   .     A
C15    C553    1.417   .     S
C16    H24     1.082   .     S
C16    N26     1.362   .     A
C16    C1094   1.417   1_554 S
Cu17   O30     1.963   .     S
Cu17   N25     2.017   .     S
Cu17   Cu18    2.684   .     S
Cu17   O31     1.965   .     S
Cu17   O34     1.965   .     S
Cu17   O27     1.960   .     S
Cu18   N26     2.017   .     S
Cu18   O29     1.963   .     S
Cu18   O33     1.965   .     S
Cu18   O32     1.965   .     S
Cu18   O28     1.960   .     S
O35    C65     1.393   .     S
O35    C96     1.418   .     S
C36    H37     1.111   .     S
C36    H38     1.115   .     S
C36    O155    1.418   1_455 S
C36    C159    1.533   1_455 S
C39    H41     1.111   .     S
C39    H40     1.110   .     S
C39    C42     1.526   .     S
C39    C96     1.533   .     S
C42    H44     1.110   .     S
C42    H45     1.111   .     S
C42    H103    1.111   .     S
H43    C162    1.111   1_455 S
O46    C47     1.418   .     S
O46    C126    1.389   1_455 S
C47    H48     1.113   .     S
C47    H169    1.118   1_455 S
C47    C170    1.528   1_455 S
H49    C107    1.118   .     S
C50    H52     1.112   .     S
C50    C53     1.527   .     S
C50    C107    1.528   .     S
C50    H111    1.109   .     S
H51    C170    1.109   1_455 S
C53    H54     1.111   .     S
C53    H55     1.110   .     S
C53    H116    1.111   .     S
H56    C173    1.111   1_455 S
C57    N58     1.158   .     T
C59    N60     1.158   .     T
C61    C72     1.448   .     S
C61    O89     1.294   .     A
C61    O87     1.291   .     A
C62    O90     1.294   .     A
C62    C71     1.448   .     S
C62    O88     1.291   .     A
C63    O91     1.282   .     A
C63    O93     1.293   .     A
C63    C65     1.438   .     S
C64    O92     1.281   .     A
C64    O94     1.293   .     A
C64    C66     1.436   .     S
C66    C125    1.353   .     S
C66    O166    1.389   .     S
C67    H79     1.083   .     S
C67    C72     1.400   .     A
C67    C429    1.382   1_545 S
C68    H80     1.083   .     S
C68    C71     1.400   .     A
C68    C250    1.382   .     S
C69    C71     1.402   .     A
C69    H81     1.083   .     S
C69    C247    1.382   .     S
C70    H82     1.083   .     S
C70    C72     1.402   .     A
C70    C428    1.382   1_545 S
C73    N86     1.377   .     A
C73    C117    1.438   .     S
C73    C1155   1.417   1_554 S
C74    C119    1.439   .     S
C74    N85     1.377   .     A
C74    C616    1.417   .     S
C75    H83     1.081   .     S
C75    N85     1.361   .     A
C75    C613    1.417   .     S
C76    H84     1.082   .     S
C76    N86     1.362   .     A
C76    C1154   1.417   1_554 S
Cu77   O90     1.963   .     S
Cu77   N85     2.017   .     S
Cu77   Cu78    2.684   .     S
Cu77   O91     1.965   .     S
Cu77   O94     1.965   .     S
Cu77   O87     1.960   .     S
Cu78   N86     2.017   .     S
Cu78   O89     1.963   .     S
Cu78   O93     1.965   .     S
Cu78   O92     1.965   .     S
Cu78   O88     1.960   .     S
O95    C125    1.393   .     S
O95    C156    1.418   .     S
C96    H97     1.111   .     S
C96    H98     1.115   .     S
C99    H101    1.111   .     S
C99    H100    1.110   .     S
C99    C102    1.526   .     S
C99    C156    1.533   .     S
C102   H104    1.110   .     S
C102   H105    1.111   .     S
C102   H163    1.111   .     S
O106   C107    1.418   .     S
C107   H108    1.113   .     S
H109   C167    1.118   .     S
C110   H112    1.112   .     S
C110   C113    1.527   .     S
C110   C167    1.528   .     S
C110   H171    1.109   .     S
C113   H114    1.111   .     S
C113   H115    1.110   .     S
C113   H176    1.111   .     S
C117   N118    1.158   .     T
C119   N120    1.158   .     T
C121   C132    1.448   .     S
C121   O149    1.294   .     A
C121   O147    1.291   .     A
C122   O150    1.294   .     A
C122   C131    1.448   .     S
C122   O148    1.291   .     A
C123   O151    1.282   .     A
C123   O153    1.293   .     A
C123   C125    1.438   .     S
C124   O152    1.281   .     A
C124   O154    1.293   .     A
C124   C126    1.436   .     S
C126   C5      1.353   1_655 S
C126   O46     1.389   1_655 S
C127   H139    1.083   .     S
C127   C132    1.400   .     A
C127   C489    1.382   1_545 S
C128   H140    1.083   .     S
C128   C131    1.400   .     A
C128   C310    1.382   .     S
C129   C131    1.402   .     A
C129   H141    1.083   .     S
C129   C307    1.382   .     S
C130   H142    1.083   .     S
C130   C132    1.402   .     A
C130   C488    1.382   1_545 S
C133   N146    1.377   .     A
C133   C177    1.438   .     S
C133   C1215   1.417   1_554 S
C134   C179    1.439   .     S
C134   N145    1.377   .     A
C134   C676    1.417   .     S
C135   H143    1.081   .     S
C135   N145    1.361   .     A
C135   C673    1.417   .     S
C136   H144    1.082   .     S
C136   N146    1.362   .     A
C136   C1214   1.417   1_554 S
Cu137  O150    1.963   .     S
Cu137  N145    2.017   .     S
Cu137  Cu138   2.684   .     S
Cu137  O151    1.965   .     S
Cu137  O154    1.965   .     S
Cu137  O147    1.960   .     S
Cu138  N146    2.017   .     S
Cu138  O149    1.963   .     S
Cu138  O153    1.965   .     S
Cu138  O152    1.965   .     S
Cu138  O148    1.960   .     S
O155   C5      1.393   1_655 S
O155   C36     1.418   1_655 S
C156   H157    1.111   .     S
C156   H158    1.115   .     S
C159   H161    1.111   .     S
C159   H160    1.110   .     S
C159   C162    1.526   .     S
C159   C36     1.533   1_655 S
C162   H164    1.110   .     S
C162   H165    1.111   .     S
C162   H43     1.111   1_655 S
O166   C167    1.418   .     S
C167   H168    1.113   .     S
H169   C47     1.118   1_655 S
C170   H172    1.112   .     S
C170   C173    1.527   .     S
C170   C47     1.528   1_655 S
C170   H51     1.109   1_655 S
C173   H174    1.111   .     S
C173   H175    1.110   .     S
C173   H56     1.111   1_655 S
C177   N178    1.158   .     T
C179   N180    1.158   .     T
C181   C192    1.448   .     S
C181   O209    1.294   .     A
C181   O207    1.291   .     A
C182   O210    1.294   .     A
C182   C191    1.448   .     S
C182   O208    1.291   .     A
C183   O211    1.282   .     A
C183   O213    1.293   .     A
C183   C185    1.438   .     S
C184   O212    1.281   .     A
C184   O214    1.293   .     A
C184   C186    1.436   .     S
C185   C306    1.353   1_455 S
C185   O335    1.393   1_455 S
C186   C245    1.353   .     S
C186   O286    1.389   .     S
C187   H199    1.083   .     S
C187   C192    1.400   .     A
C188   H200    1.083   .     S
C188   C191    1.400   .     A
C188   C370    1.382   .     S
C189   C191    1.402   .     A
C189   H201    1.083   .     S
C189   C367    1.382   .     S
C190   H202    1.083   .     S
C190   C192    1.402   .     A
C193   N206    1.377   .     A
C193   C237    1.438   .     S
C193   C1275   1.417   1_554 S
C194   C239    1.439   .     S
C194   N205    1.377   .     A
C194   C736    1.417   .     S
C195   H203    1.081   .     S
C195   N205    1.361   .     A
C195   C733    1.417   .     S
C196   H204    1.082   .     S
C196   N206    1.362   .     A
C196   C1274   1.417   1_554 S
Cu197  O210    1.963   .     S
Cu197  N205    2.017   .     S
Cu197  Cu198   2.684   .     S
Cu197  O211    1.965   .     S
Cu197  O214    1.965   .     S
Cu197  O207    1.960   .     S
Cu198  N206    2.017   .     S
Cu198  O209    1.963   .     S
Cu198  O213    1.965   .     S
Cu198  O212    1.965   .     S
Cu198  O208    1.960   .     S
O215   C245    1.393   .     S
O215   C276    1.418   .     S
C216   H217    1.111   .     S
C216   H218    1.115   .     S
C216   O335    1.418   1_455 S
C216   C339    1.533   1_455 S
C219   H221    1.111   .     S
C219   H220    1.110   .     S
C219   C222    1.526   .     S
C219   C276    1.533   .     S
C222   H224    1.110   .     S
C222   H225    1.111   .     S
C222   H283    1.111   .     S
H223   C342    1.111   1_455 S
O226   C227    1.418   .     S
O226   C306    1.389   1_455 S
C227   H228    1.113   .     S
C227   H349    1.118   1_455 S
C227   C350    1.528   1_455 S
H229   C287    1.118   .     S
C230   H232    1.112   .     S
C230   C233    1.527   .     S
C230   C287    1.528   .     S
C230   H291    1.109   .     S
H231   C350    1.109   1_455 S
C233   H234    1.111   .     S
C233   H235    1.110   .     S
C233   H296    1.111   .     S
H236   C353    1.111   1_455 S
C237   N238    1.158   .     T
C239   N240    1.158   .     T
C241   C252    1.448   .     S
C241   O269    1.294   .     A
C241   O267    1.291   .     A
C242   O270    1.294   .     A
C242   C251    1.448   .     S
C242   O268    1.291   .     A
C243   O271    1.282   .     A
C243   O273    1.293   .     A
C243   C245    1.438   .     S
C244   O272    1.281   .     A
C244   O274    1.293   .     A
C244   C246    1.436   .     S
C246   C305    1.353   .     S
C246   O346    1.389   .     S
C247   H259    1.083   .     S
C247   C252    1.400   .     A
C248   H260    1.083   .     S
C248   C251    1.400   .     A
C248   C430    1.382   .     S
C249   C251    1.402   .     A
C249   H261    1.083   .     S
C249   C427    1.382   .     S
C250   H262    1.083   .     S
C250   C252    1.402   .     A
C253   N266    1.377   .     A
C253   C297    1.438   .     S
C253   C1335   1.417   1_554 S
C254   C299    1.439   .     S
C254   N265    1.377   .     A
C254   C796    1.417   .     S
C255   H263    1.081   .     S
C255   N265    1.361   .     A
C255   C793    1.417   .     S
C256   H264    1.082   .     S
C256   N266    1.362   .     A
C256   C1334   1.417   1_554 S
Cu257  O270    1.963   .     S
Cu257  N265    2.017   .     S
Cu257  Cu258   2.684   .     S
Cu257  O271    1.965   .     S
Cu257  O274    1.965   .     S
Cu257  O267    1.960   .     S
Cu258  N266    2.017   .     S
Cu258  O269    1.963   .     S
Cu258  O273    1.965   .     S
Cu258  O272    1.965   .     S
Cu258  O268    1.960   .     S
O275   C305    1.393   .     S
O275   C336    1.418   .     S
C276   H277    1.111   .     S
C276   H278    1.115   .     S
C279   H281    1.111   .     S
C279   H280    1.110   .     S
C279   C282    1.526   .     S
C279   C336    1.533   .     S
C282   H284    1.110   .     S
C282   H285    1.111   .     S
C282   H343    1.111   .     S
O286   C287    1.418   .     S
C287   H288    1.113   .     S
H289   C347    1.118   .     S
C290   H292    1.112   .     S
C290   C293    1.527   .     S
C290   C347    1.528   .     S
C290   H351    1.109   .     S
C293   H294    1.111   .     S
C293   H295    1.110   .     S
C293   H356    1.111   .     S
C297   N298    1.158   .     T
C299   N300    1.158   .     T
C301   C312    1.448   .     S
C301   O329    1.294   .     A
C301   O327    1.291   .     A
C302   O330    1.294   .     A
C302   C311    1.448   .     S
C302   O328    1.291   .     A
C303   O331    1.282   .     A
C303   O333    1.293   .     A
C303   C305    1.438   .     S
C304   O332    1.281   .     A
C304   O334    1.293   .     A
C304   C306    1.436   .     S
C306   C185    1.353   1_655 S
C306   O226    1.389   1_655 S
C307   H319    1.083   .     S
C307   C312    1.400   .     A
C308   H320    1.083   .     S
C308   C311    1.400   .     A
C308   C490    1.382   .     S
C309   C311    1.402   .     A
C309   H321    1.083   .     S
C309   C487    1.382   .     S
C310   H322    1.083   .     S
C310   C312    1.402   .     A
C313   N326    1.377   .     A
C313   C357    1.438   .     S
C313   C1395   1.417   1_554 S
C314   C359    1.439   .     S
C314   N325    1.377   .     A
C314   C856    1.417   .     S
C315   H323    1.081   .     S
C315   N325    1.361   .     A
C315   C853    1.417   .     S
C316   H324    1.082   .     S
C316   N326    1.362   .     A
C316   C1394   1.417   1_554 S
Cu317  O330    1.963   .     S
Cu317  N325    2.017   .     S
Cu317  Cu318   2.684   .     S
Cu317  O331    1.965   .     S
Cu317  O334    1.965   .     S
Cu317  O327    1.960   .     S
Cu318  N326    2.017   .     S
Cu318  O329    1.963   .     S
Cu318  O333    1.965   .     S
Cu318  O332    1.965   .     S
Cu318  O328    1.960   .     S
O335   C185    1.393   1_655 S
O335   C216    1.418   1_655 S
C336   H337    1.111   .     S
C336   H338    1.115   .     S
C339   H341    1.111   .     S
C339   H340    1.110   .     S
C339   C342    1.526   .     S
C339   C216    1.533   1_655 S
C342   H344    1.110   .     S
C342   H345    1.111   .     S
C342   H223    1.111   1_655 S
O346   C347    1.418   .     S
C347   H348    1.113   .     S
H349   C227    1.118   1_655 S
C350   H352    1.112   .     S
C350   C353    1.527   .     S
C350   C227    1.528   1_655 S
C350   H231    1.109   1_655 S
C353   H354    1.111   .     S
C353   H355    1.110   .     S
C353   H236    1.111   1_655 S
C357   N358    1.158   .     T
C359   N360    1.158   .     T
C361   C372    1.448   .     S
C361   O389    1.294   .     A
C361   O387    1.291   .     A
C362   O390    1.294   .     A
C362   C371    1.448   .     S
C362   O388    1.291   .     A
C363   O391    1.282   .     A
C363   O393    1.293   .     A
C363   C365    1.438   .     S
C364   O392    1.281   .     A
C364   O394    1.293   .     A
C364   C366    1.436   .     S
C365   C486    1.353   1_455 S
C365   O515    1.393   1_455 S
C366   C425    1.353   .     S
C366   O466    1.389   .     S
C367   H379    1.083   .     S
C367   C372    1.400   .     A
C368   H380    1.083   .     S
C368   C371    1.400   .     A
C368   C10     1.382   1_565 S
C369   C371    1.402   .     A
C369   H381    1.083   .     S
C369   C7      1.382   1_565 S
C370   H382    1.083   .     S
C370   C372    1.402   .     A
C373   N386    1.377   .     A
C373   C417    1.438   .     S
C373   C1455   1.417   1_554 S
C374   C419    1.439   .     S
C374   N385    1.377   .     A
C374   C916    1.417   .     S
C375   H383    1.081   .     S
C375   N385    1.361   .     A
C375   C913    1.417   .     S
C376   H384    1.082   .     S
C376   N386    1.362   .     A
C376   C1454   1.417   1_554 S
Cu377  O390    1.963   .     S
Cu377  N385    2.017   .     S
Cu377  Cu378   2.684   .     S
Cu377  O391    1.965   .     S
Cu377  O394    1.965   .     S
Cu377  O387    1.960   .     S
Cu378  N386    2.017   .     S
Cu378  O389    1.963   .     S
Cu378  O393    1.965   .     S
Cu378  O392    1.965   .     S
Cu378  O388    1.960   .     S
O395   C425    1.393   .     S
O395   C456    1.418   .     S
C396   H397    1.111   .     S
C396   H398    1.115   .     S
C396   O515    1.418   1_455 S
C396   C519    1.533   1_455 S
C399   H401    1.111   .     S
C399   H400    1.110   .     S
C399   C402    1.526   .     S
C399   C456    1.533   .     S
C402   H404    1.110   .     S
C402   H405    1.111   .     S
C402   H463    1.111   .     S
H403   C522    1.111   1_455 S
O406   C407    1.418   .     S
O406   C486    1.389   1_455 S
C407   H408    1.113   .     S
C407   H529    1.118   1_455 S
C407   C530    1.528   1_455 S
H409   C467    1.118   .     S
C410   H412    1.112   .     S
C410   C413    1.527   .     S
C410   C467    1.528   .     S
C410   H471    1.109   .     S
H411   C530    1.109   1_455 S
C413   H414    1.111   .     S
C413   H415    1.110   .     S
C413   H476    1.111   .     S
H416   C533    1.111   1_455 S
C417   N418    1.158   .     T
C419   N420    1.158   .     T
C421   C432    1.448   .     S
C421   O449    1.294   .     A
C421   O447    1.291   .     A
C422   O450    1.294   .     A
C422   C431    1.448   .     S
C422   O448    1.291   .     A
C423   O451    1.282   .     A
C423   O453    1.293   .     A
C423   C425    1.438   .     S
C424   O452    1.281   .     A
C424   O454    1.293   .     A
C424   C426    1.436   .     S
C426   C485    1.353   .     S
C426   O526    1.389   .     S
C427   H439    1.083   .     S
C427   C432    1.400   .     A
C428   H440    1.083   .     S
C428   C431    1.400   .     A
C428   C70     1.382   1_565 S
C429   C431    1.402   .     A
C429   H441    1.083   .     S
C429   C67     1.382   1_565 S
C430   H442    1.083   .     S
C430   C432    1.402   .     A
C433   N446    1.377   .     A
C433   C477    1.438   .     S
C433   C1515   1.417   1_554 S
C434   C479    1.439   .     S
C434   N445    1.377   .     A
C434   C976    1.417   .     S
C435   H443    1.081   .     S
C435   N445    1.361   .     A
C435   C973    1.417   .     S
C436   H444    1.082   .     S
C436   N446    1.362   .     A
C436   C1514   1.417   1_554 S
Cu437  O450    1.963   .     S
Cu437  N445    2.017   .     S
Cu437  Cu438   2.684   .     S
Cu437  O451    1.965   .     S
Cu437  O454    1.965   .     S
Cu437  O447    1.960   .     S
Cu438  N446    2.017   .     S
Cu438  O449    1.963   .     S
Cu438  O453    1.965   .     S
Cu438  O452    1.965   .     S
Cu438  O448    1.960   .     S
O455   C485    1.393   .     S
O455   C516    1.418   .     S
C456   H457    1.111   .     S
C456   H458    1.115   .     S
C459   H461    1.111   .     S
C459   H460    1.110   .     S
C459   C462    1.526   .     S
C459   C516    1.533   .     S
C462   H464    1.110   .     S
C462   H465    1.111   .     S
C462   H523    1.111   .     S
O466   C467    1.418   .     S
C467   H468    1.113   .     S
H469   C527    1.118   .     S
C470   H472    1.112   .     S
C470   C473    1.527   .     S
C470   C527    1.528   .     S
C470   H531    1.109   .     S
C473   H474    1.111   .     S
C473   H475    1.110   .     S
C473   H536    1.111   .     S
C477   N478    1.158   .     T
C479   N480    1.158   .     T
C481   C492    1.448   .     S
C481   O509    1.294   .     A
C481   O507    1.291   .     A
C482   O510    1.294   .     A
C482   C491    1.448   .     S
C482   O508    1.291   .     A
C483   O511    1.282   .     A
C483   O513    1.293   .     A
C483   C485    1.438   .     S
C484   O512    1.281   .     A
C484   O514    1.293   .     A
C484   C486    1.436   .     S
C486   C365    1.353   1_655 S
C486   O406    1.389   1_655 S
C487   H499    1.083   .     S
C487   C492    1.400   .     A
C488   H500    1.083   .     S
C488   C491    1.400   .     A
C488   C130    1.382   1_565 S
C489   C491    1.402   .     A
C489   H501    1.083   .     S
C489   C127    1.382   1_565 S
C490   H502    1.083   .     S
C490   C492    1.402   .     A
C493   N506    1.377   .     A
C493   C537    1.438   .     S
C493   C1575   1.417   1_554 S
C494   C539    1.439   .     S
C494   N505    1.377   .     A
C494   C1036   1.417   .     S
C495   H503    1.081   .     S
C495   N505    1.361   .     A
C495   C1033   1.417   .     S
C496   H504    1.082   .     S
C496   N506    1.362   .     A
C496   C1574   1.417   1_554 S
Cu497  O510    1.963   .     S
Cu497  N505    2.017   .     S
Cu497  Cu498   2.684   .     S
Cu497  O511    1.965   .     S
Cu497  O514    1.965   .     S
Cu497  O507    1.960   .     S
Cu498  N506    2.017   .     S
Cu498  O509    1.963   .     S
Cu498  O513    1.965   .     S
Cu498  O512    1.965   .     S
Cu498  O508    1.960   .     S
O515   C365    1.393   1_655 S
O515   C396    1.418   1_655 S
C516   H517    1.111   .     S
C516   H518    1.115   .     S
C519   H521    1.111   .     S
C519   H520    1.110   .     S
C519   C522    1.526   .     S
C519   C396    1.533   1_655 S
C522   H524    1.110   .     S
C522   H525    1.111   .     S
C522   H403    1.111   1_655 S
O526   C527    1.418   .     S
C527   H528    1.113   .     S
H529   C407    1.118   1_655 S
C530   H532    1.112   .     S
C530   C533    1.527   .     S
C530   C407    1.528   1_655 S
C530   H411    1.109   1_655 S
C533   H534    1.111   .     S
C533   H535    1.110   .     S
C533   H416    1.111   1_655 S
C537   N538    1.158   .     T
C539   N540    1.158   .     T
C541   C552    1.448   .     S
C541   O569    1.294   .     A
C541   O567    1.291   .     A
C542   O570    1.294   .     A
C542   C551    1.448   .     S
C542   O568    1.291   .     A
C543   O571    1.282   .     A
C543   O573    1.293   .     A
C543   C545    1.438   .     S
C544   O572    1.281   .     A
C544   O574    1.293   .     A
C544   C546    1.436   .     S
C545   C666    1.353   1_455 S
C545   O695    1.393   1_455 S
C546   C605    1.353   .     S
C546   O646    1.389   .     S
C547   H559    1.083   .     S
C547   C552    1.400   .     A
C547   C909    1.382   1_545 S
C548   H560    1.083   .     S
C548   C551    1.400   .     A
C548   C730    1.382   .     S
C549   C551    1.402   .     A
C549   H561    1.083   .     S
C549   C727    1.382   .     S
C550   H562    1.083   .     S
C550   C552    1.402   .     A
C550   C908    1.382   1_545 S
C553   N566    1.377   .     A
C553   C597    1.438   .     S
C554   C599    1.439   .     S
C554   N565    1.377   .     A
C554   C1096   1.417   .     S
C555   H563    1.081   .     S
C555   N565    1.361   .     A
C555   C1093   1.417   .     S
C556   H564    1.082   .     S
C556   N566    1.362   .     A
Cu557  O570    1.963   .     S
Cu557  N565    2.017   .     S
Cu557  Cu558   2.684   .     S
Cu557  O571    1.965   .     S
Cu557  O574    1.965   .     S
Cu557  O567    1.960   .     S
Cu558  N566    2.017   .     S
Cu558  O569    1.963   .     S
Cu558  O573    1.965   .     S
Cu558  O572    1.965   .     S
Cu558  O568    1.960   .     S
O575   C605    1.393   .     S
O575   C636    1.418   .     S
C576   H577    1.111   .     S
C576   H578    1.115   .     S
C576   O695    1.418   1_455 S
C576   C699    1.533   1_455 S
C579   H581    1.111   .     S
C579   H580    1.110   .     S
C579   C582    1.526   .     S
C579   C636    1.533   .     S
C582   H584    1.110   .     S
C582   H585    1.111   .     S
C582   H643    1.111   .     S
H583   C702    1.111   1_455 S
O586   C587    1.418   .     S
O586   C666    1.389   1_455 S
C587   H588    1.113   .     S
C587   H709    1.118   1_455 S
C587   C710    1.528   1_455 S
H589   C647    1.118   .     S
C590   H592    1.112   .     S
C590   C593    1.527   .     S
C590   C647    1.528   .     S
C590   H651    1.109   .     S
H591   C710    1.109   1_455 S
C593   H594    1.111   .     S
C593   H595    1.110   .     S
C593   H656    1.111   .     S
H596   C713    1.111   1_455 S
C597   N598    1.158   .     T
C599   N600    1.158   .     T
C601   C612    1.448   .     S
C601   O629    1.294   .     A
C601   O627    1.291   .     A
C602   O630    1.294   .     A
C602   C611    1.448   .     S
C602   O628    1.291   .     A
C603   O631    1.282   .     A
C603   O633    1.293   .     A
C603   C605    1.438   .     S
C604   O632    1.281   .     A
C604   O634    1.293   .     A
C604   C606    1.436   .     S
C606   C665    1.353   .     S
C606   O706    1.389   .     S
C607   H619    1.083   .     S
C607   C612    1.400   .     A
C607   C969    1.382   1_545 S
C608   H620    1.083   .     S
C608   C611    1.400   .     A
C608   C790    1.382   .     S
C609   C611    1.402   .     A
C609   H621    1.083   .     S
C609   C787    1.382   .     S
C610   H622    1.083   .     S
C610   C612    1.402   .     A
C610   C968    1.382   1_545 S
C613   N626    1.377   .     A
C613   C657    1.438   .     S
C614   C659    1.439   .     S
C614   N625    1.377   .     A
C614   C1156   1.417   .     S
C615   H623    1.081   .     S
C615   N625    1.361   .     A
C615   C1153   1.417   .     S
C616   H624    1.082   .     S
C616   N626    1.362   .     A
Cu617  O630    1.963   .     S
Cu617  N625    2.017   .     S
Cu617  Cu618   2.684   .     S
Cu617  O631    1.965   .     S
Cu617  O634    1.965   .     S
Cu617  O627    1.960   .     S
Cu618  N626    2.017   .     S
Cu618  O629    1.963   .     S
Cu618  O633    1.965   .     S
Cu618  O632    1.965   .     S
Cu618  O628    1.960   .     S
O635   C665    1.393   .     S
O635   C696    1.418   .     S
C636   H637    1.111   .     S
C636   H638    1.115   .     S
C639   H641    1.111   .     S
C639   H640    1.110   .     S
C639   C642    1.526   .     S
C639   C696    1.533   .     S
C642   H644    1.110   .     S
C642   H645    1.111   .     S
C642   H703    1.111   .     S
O646   C647    1.418   .     S
C647   H648    1.113   .     S
H649   C707    1.118   .     S
C650   H652    1.112   .     S
C650   C653    1.527   .     S
C650   C707    1.528   .     S
C650   H711    1.109   .     S
C653   H654    1.111   .     S
C653   H655    1.110   .     S
C653   H716    1.111   .     S
C657   N658    1.158   .     T
C659   N660    1.158   .     T
C661   C672    1.448   .     S
C661   O689    1.294   .     A
C661   O687    1.291   .     A
C662   O690    1.294   .     A
C662   C671    1.448   .     S
C662   O688    1.291   .     A
C663   O691    1.282   .     A
C663   O693    1.293   .     A
C663   C665    1.438   .     S
C664   O692    1.281   .     A
C664   O694    1.293   .     A
C664   C666    1.436   .     S
C666   C545    1.353   1_655 S
C666   O586    1.389   1_655 S
C667   H679    1.083   .     S
C667   C672    1.400   .     A
C667   C1029   1.382   1_545 S
C668   H680    1.083   .     S
C668   C671    1.400   .     A
C668   C850    1.382   .     S
C669   C671    1.402   .     A
C669   H681    1.083   .     S
C669   C847    1.382   .     S
C670   H682    1.083   .     S
C670   C672    1.402   .     A
C670   C1028   1.382   1_545 S
C673   N686    1.377   .     A
C673   C717    1.438   .     S
C674   C719    1.439   .     S
C674   N685    1.377   .     A
C674   C1216   1.417   .     S
C675   H683    1.081   .     S
C675   N685    1.361   .     A
C675   C1213   1.417   .     S
C676   H684    1.082   .     S
C676   N686    1.362   .     A
Cu677  O690    1.963   .     S
Cu677  N685    2.017   .     S
Cu677  Cu678   2.684   .     S
Cu677  O691    1.965   .     S
Cu677  O694    1.965   .     S
Cu677  O687    1.960   .     S
Cu678  N686    2.017   .     S
Cu678  O689    1.963   .     S
Cu678  O693    1.965   .     S
Cu678  O692    1.965   .     S
Cu678  O688    1.960   .     S
O695   C545    1.393   1_655 S
O695   C576    1.418   1_655 S
C696   H697    1.111   .     S
C696   H698    1.115   .     S
C699   H701    1.111   .     S
C699   H700    1.110   .     S
C699   C702    1.526   .     S
C699   C576    1.533   1_655 S
C702   H704    1.110   .     S
C702   H705    1.111   .     S
C702   H583    1.111   1_655 S
O706   C707    1.418   .     S
C707   H708    1.113   .     S
H709   C587    1.118   1_655 S
C710   H712    1.112   .     S
C710   C713    1.527   .     S
C710   C587    1.528   1_655 S
C710   H591    1.109   1_655 S
C713   H714    1.111   .     S
C713   H715    1.110   .     S
C713   H596    1.111   1_655 S
C717   N718    1.158   .     T
C719   N720    1.158   .     T
C721   C732    1.448   .     S
C721   O749    1.294   .     A
C721   O747    1.291   .     A
C722   O750    1.294   .     A
C722   C731    1.448   .     S
C722   O748    1.291   .     A
C723   O751    1.282   .     A
C723   O753    1.293   .     A
C723   C725    1.438   .     S
C724   O752    1.281   .     A
C724   O754    1.293   .     A
C724   C726    1.436   .     S
C725   C846    1.353   1_455 S
C725   O875    1.393   1_455 S
C726   C785    1.353   .     S
C726   O826    1.389   .     S
C727   H739    1.083   .     S
C727   C732    1.400   .     A
C728   H740    1.083   .     S
C728   C731    1.400   .     A
C728   C910    1.382   .     S
C729   C731    1.402   .     A
C729   H741    1.083   .     S
C729   C907    1.382   .     S
C730   H742    1.083   .     S
C730   C732    1.402   .     A
C733   N746    1.377   .     A
C733   C777    1.438   .     S
C734   C779    1.439   .     S
C734   N745    1.377   .     A
C734   C1276   1.417   .     S
C735   H743    1.081   .     S
C735   N745    1.361   .     A
C735   C1273   1.417   .     S
C736   H744    1.082   .     S
C736   N746    1.362   .     A
Cu737  O750    1.963   .     S
Cu737  N745    2.017   .     S
Cu737  Cu738   2.684   .     S
Cu737  O751    1.965   .     S
Cu737  O754    1.965   .     S
Cu737  O747    1.960   .     S
Cu738  N746    2.017   .     S
Cu738  O749    1.963   .     S
Cu738  O753    1.965   .     S
Cu738  O752    1.965   .     S
Cu738  O748    1.960   .     S
O755   C785    1.393   .     S
O755   C816    1.418   .     S
C756   H757    1.111   .     S
C756   H758    1.115   .     S
C756   O875    1.418   1_455 S
C756   C879    1.533   1_455 S
C759   H761    1.111   .     S
C759   H760    1.110   .     S
C759   C762    1.526   .     S
C759   C816    1.533   .     S
C762   H764    1.110   .     S
C762   H765    1.111   .     S
C762   H823    1.111   .     S
H763   C882    1.111   1_455 S
O766   C767    1.418   .     S
O766   C846    1.389   1_455 S
C767   H768    1.113   .     S
C767   H889    1.118   1_455 S
C767   C890    1.528   1_455 S
H769   C827    1.118   .     S
C770   H772    1.112   .     S
C770   C773    1.527   .     S
C770   C827    1.528   .     S
C770   H831    1.109   .     S
H771   C890    1.109   1_455 S
C773   H774    1.111   .     S
C773   H775    1.110   .     S
C773   H836    1.111   .     S
H776   C893    1.111   1_455 S
C777   N778    1.158   .     T
C779   N780    1.158   .     T
C781   C792    1.448   .     S
C781   O809    1.294   .     A
C781   O807    1.291   .     A
C782   O810    1.294   .     A
C782   C791    1.448   .     S
C782   O808    1.291   .     A
C783   O811    1.282   .     A
C783   O813    1.293   .     A
C783   C785    1.438   .     S
C784   O812    1.281   .     A
C784   O814    1.293   .     A
C784   C786    1.436   .     S
C786   C845    1.353   .     S
C786   O886    1.389   .     S
C787   H799    1.083   .     S
C787   C792    1.400   .     A
C788   H800    1.083   .     S
C788   C791    1.400   .     A
C788   C970    1.382   .     S
C789   C791    1.402   .     A
C789   H801    1.083   .     S
C789   C967    1.382   .     S
C790   H802    1.083   .     S
C790   C792    1.402   .     A
C793   N806    1.377   .     A
C793   C837    1.438   .     S
C794   C839    1.439   .     S
C794   N805    1.377   .     A
C794   C1336   1.417   .     S
C795   H803    1.081   .     S
C795   N805    1.361   .     A
C795   C1333   1.417   .     S
C796   H804    1.082   .     S
C796   N806    1.362   .     A
Cu797  O810    1.963   .     S
Cu797  N805    2.017   .     S
Cu797  Cu798   2.684   .     S
Cu797  O811    1.965   .     S
Cu797  O814    1.965   .     S
Cu797  O807    1.960   .     S
Cu798  N806    2.017   .     S
Cu798  O809    1.963   .     S
Cu798  O813    1.965   .     S
Cu798  O812    1.965   .     S
Cu798  O808    1.960   .     S
O815   C845    1.393   .     S
O815   C876    1.418   .     S
C816   H817    1.111   .     S
C816   H818    1.115   .     S
C819   H821    1.111   .     S
C819   H820    1.110   .     S
C819   C822    1.526   .     S
C819   C876    1.533   .     S
C822   H824    1.110   .     S
C822   H825    1.111   .     S
C822   H883    1.111   .     S
O826   C827    1.418   .     S
C827   H828    1.113   .     S
H829   C887    1.118   .     S
C830   H832    1.112   .     S
C830   C833    1.527   .     S
C830   C887    1.528   .     S
C830   H891    1.109   .     S
C833   H834    1.111   .     S
C833   H835    1.110   .     S
C833   H896    1.111   .     S
C837   N838    1.158   .     T
C839   N840    1.158   .     T
C841   C852    1.448   .     S
C841   O869    1.294   .     A
C841   O867    1.291   .     A
C842   O870    1.294   .     A
C842   C851    1.448   .     S
C842   O868    1.291   .     A
C843   O871    1.282   .     A
C843   O873    1.293   .     A
C843   C845    1.438   .     S
C844   O872    1.281   .     A
C844   O874    1.293   .     A
C844   C846    1.436   .     S
C846   C725    1.353   1_655 S
C846   O766    1.389   1_655 S
C847   H859    1.083   .     S
C847   C852    1.400   .     A
C848   H860    1.083   .     S
C848   C851    1.400   .     A
C848   C1030   1.382   .     S
C849   C851    1.402   .     A
C849   H861    1.083   .     S
C849   C1027   1.382   .     S
C850   H862    1.083   .     S
C850   C852    1.402   .     A
C853   N866    1.377   .     A
C853   C897    1.438   .     S
C854   C899    1.439   .     S
C854   N865    1.377   .     A
C854   C1396   1.417   .     S
C855   H863    1.081   .     S
C855   N865    1.361   .     A
C855   C1393   1.417   .     S
C856   H864    1.082   .     S
C856   N866    1.362   .     A
Cu857  O870    1.963   .     S
Cu857  N865    2.017   .     S
Cu857  Cu858   2.684   .     S
Cu857  O871    1.965   .     S
Cu857  O874    1.965   .     S
Cu857  O867    1.960   .     S
Cu858  N866    2.017   .     S
Cu858  O869    1.963   .     S
Cu858  O873    1.965   .     S
Cu858  O872    1.965   .     S
Cu858  O868    1.960   .     S
O875   C725    1.393   1_655 S
O875   C756    1.418   1_655 S
C876   H877    1.111   .     S
C876   H878    1.115   .     S
C879   H881    1.111   .     S
C879   H880    1.110   .     S
C879   C882    1.526   .     S
C879   C756    1.533   1_655 S
C882   H884    1.110   .     S
C882   H885    1.111   .     S
C882   H763    1.111   1_655 S
O886   C887    1.418   .     S
C887   H888    1.113   .     S
H889   C767    1.118   1_655 S
C890   H892    1.112   .     S
C890   C893    1.527   .     S
C890   C767    1.528   1_655 S
C890   H771    1.109   1_655 S
C893   H894    1.111   .     S
C893   H895    1.110   .     S
C893   H776    1.111   1_655 S
C897   N898    1.158   .     T
C899   N900    1.158   .     T
C901   C912    1.448   .     S
C901   O929    1.294   .     A
C901   O927    1.291   .     A
C902   O930    1.294   .     A
C902   C911    1.448   .     S
C902   O928    1.291   .     A
C903   O931    1.282   .     A
C903   O933    1.293   .     A
C903   C905    1.438   .     S
C904   O932    1.281   .     A
C904   O934    1.293   .     A
C904   C906    1.436   .     S
C905   C1026   1.353   1_455 S
C905   O1055   1.393   1_455 S
C906   C965    1.353   .     S
C906   O1006   1.389   .     S
C907   H919    1.083   .     S
C907   C912    1.400   .     A
C908   H920    1.083   .     S
C908   C911    1.400   .     A
C908   C550    1.382   1_565 S
C909   C911    1.402   .     A
C909   H921    1.083   .     S
C909   C547    1.382   1_565 S
C910   H922    1.083   .     S
C910   C912    1.402   .     A
C913   N926    1.377   .     A
C913   C957    1.438   .     S
C914   C959    1.439   .     S
C914   N925    1.377   .     A
C914   C1456   1.417   .     S
C915   H923    1.081   .     S
C915   N925    1.361   .     A
C915   C1453   1.417   .     S
C916   H924    1.082   .     S
C916   N926    1.362   .     A
Cu917  O930    1.963   .     S
Cu917  N925    2.017   .     S
Cu917  Cu918   2.684   .     S
Cu917  O931    1.965   .     S
Cu917  O934    1.965   .     S
Cu917  O927    1.960   .     S
Cu918  N926    2.017   .     S
Cu918  O929    1.963   .     S
Cu918  O933    1.965   .     S
Cu918  O932    1.965   .     S
Cu918  O928    1.960   .     S
O935   C965    1.393   .     S
O935   C996    1.418   .     S
C936   H937    1.111   .     S
C936   H938    1.115   .     S
C936   O1055   1.418   1_455 S
C936   C1059   1.533   1_455 S
C939   H941    1.111   .     S
C939   H940    1.110   .     S
C939   C942    1.526   .     S
C939   C996    1.533   .     S
C942   H944    1.110   .     S
C942   H945    1.111   .     S
C942   H1003   1.111   .     S
H943   C1062   1.111   1_455 S
O946   C947    1.418   .     S
O946   C1026   1.389   1_455 S
C947   H948    1.113   .     S
C947   H1069   1.118   1_455 S
C947   C1070   1.528   1_455 S
H949   C1007   1.118   .     S
C950   H952    1.112   .     S
C950   C953    1.527   .     S
C950   C1007   1.528   .     S
C950   H1011   1.109   .     S
H951   C1070   1.109   1_455 S
C953   H954    1.111   .     S
C953   H955    1.110   .     S
C953   H1016   1.111   .     S
H956   C1073   1.111   1_455 S
C957   N958    1.158   .     T
C959   N960    1.158   .     T
C961   C972    1.448   .     S
C961   O989    1.294   .     A
C961   O987    1.291   .     A
C962   O990    1.294   .     A
C962   C971    1.448   .     S
C962   O988    1.291   .     A
C963   O991    1.282   .     A
C963   O993    1.293   .     A
C963   C965    1.438   .     S
C964   O992    1.281   .     A
C964   O994    1.293   .     A
C964   C966    1.436   .     S
C966   C1025   1.353   .     S
C966   O1066   1.389   .     S
C967   H979    1.083   .     S
C967   C972    1.400   .     A
C968   H980    1.083   .     S
C968   C971    1.400   .     A
C968   C610    1.382   1_565 S
C969   C971    1.402   .     A
C969   H981    1.083   .     S
C969   C607    1.382   1_565 S
C970   H982    1.083   .     S
C970   C972    1.402   .     A
C973   N986    1.377   .     A
C973   C1017   1.438   .     S
C974   C1019   1.439   .     S
C974   N985    1.377   .     A
C974   C1516   1.417   .     S
C975   H983    1.081   .     S
C975   N985    1.361   .     A
C975   C1513   1.417   .     S
C976   H984    1.082   .     S
C976   N986    1.362   .     A
Cu977  O990    1.963   .     S
Cu977  N985    2.017   .     S
Cu977  Cu978   2.684   .     S
Cu977  O991    1.965   .     S
Cu977  O994    1.965   .     S
Cu977  O987    1.960   .     S
Cu978  N986    2.017   .     S
Cu978  O989    1.963   .     S
Cu978  O993    1.965   .     S
Cu978  O992    1.965   .     S
Cu978  O988    1.960   .     S
O995   C1025   1.393   .     S
O995   C1056   1.418   .     S
C996   H997    1.111   .     S
C996   H998    1.115   .     S
C999   H1001   1.111   .     S
C999   H1000   1.110   .     S
C999   C1002   1.526   .     S
C999   C1056   1.533   .     S
C1002  H1004   1.110   .     S
C1002  H1005   1.111   .     S
C1002  H1063   1.111   .     S
O1006  C1007   1.418   .     S
C1007  H1008   1.113   .     S
H1009  C1067   1.118   .     S
C1010  H1012   1.112   .     S
C1010  C1013   1.527   .     S
C1010  C1067   1.528   .     S
C1010  H1071   1.109   .     S
C1013  H1014   1.111   .     S
C1013  H1015   1.110   .     S
C1013  H1076   1.111   .     S
C1017  N1018   1.158   .     T
C1019  N1020   1.158   .     T
C1021  C1032   1.448   .     S
C1021  O1049   1.294   .     A
C1021  O1047   1.291   .     A
C1022  O1050   1.294   .     A
C1022  C1031   1.448   .     S
C1022  O1048   1.291   .     A
C1023  O1051   1.282   .     A
C1023  O1053   1.293   .     A
C1023  C1025   1.438   .     S
C1024  O1052   1.281   .     A
C1024  O1054   1.293   .     A
C1024  C1026   1.436   .     S
C1026  C905    1.353   1_655 S
C1026  O946    1.389   1_655 S
C1027  H1039   1.083   .     S
C1027  C1032   1.400   .     A
C1028  H1040   1.083   .     S
C1028  C1031   1.400   .     A
C1028  C670    1.382   1_565 S
C1029  C1031   1.402   .     A
C1029  H1041   1.083   .     S
C1029  C667    1.382   1_565 S
C1030  H1042   1.083   .     S
C1030  C1032   1.402   .     A
C1033  N1046   1.377   .     A
C1033  C1077   1.438   .     S
C1034  C1079   1.439   .     S
C1034  N1045   1.377   .     A
C1034  C1576   1.417   .     S
C1035  H1043   1.081   .     S
C1035  N1045   1.361   .     A
C1035  C1573   1.417   .     S
C1036  H1044   1.082   .     S
C1036  N1046   1.362   .     A
Cu1037 O1050   1.963   .     S
Cu1037 N1045   2.017   .     S
Cu1037 Cu1038  2.684   .     S
Cu1037 O1051   1.965   .     S
Cu1037 O1054   1.965   .     S
Cu1037 O1047   1.960   .     S
Cu1038 N1046   2.017   .     S
Cu1038 O1049   1.963   .     S
Cu1038 O1053   1.965   .     S
Cu1038 O1052   1.965   .     S
Cu1038 O1048   1.960   .     S
O1055  C905    1.393   1_655 S
O1055  C936    1.418   1_655 S
C1056  H1057   1.111   .     S
C1056  H1058   1.115   .     S
C1059  H1061   1.111   .     S
C1059  H1060   1.110   .     S
C1059  C1062   1.526   .     S
C1059  C936    1.533   1_655 S
C1062  H1064   1.110   .     S
C1062  H1065   1.111   .     S
C1062  H943    1.111   1_655 S
O1066  C1067   1.418   .     S
C1067  H1068   1.113   .     S
H1069  C947    1.118   1_655 S
C1070  H1072   1.112   .     S
C1070  C1073   1.527   .     S
C1070  C947    1.528   1_655 S
C1070  H951    1.109   1_655 S
C1073  H1074   1.111   .     S
C1073  H1075   1.110   .     S
C1073  H956    1.111   1_655 S
C1077  N1078   1.158   .     T
C1079  N1080   1.158   .     T
C1081  C1092   1.448   .     S
C1081  O1109   1.294   .     A
C1081  O1107   1.291   .     A
C1082  O1110   1.294   .     A
C1082  C1091   1.448   .     S
C1082  O1108   1.291   .     A
C1083  O1111   1.282   .     A
C1083  O1113   1.293   .     A
C1083  C1085   1.438   .     S
C1084  O1112   1.281   .     A
C1084  O1114   1.293   .     A
C1084  C1086   1.436   .     S
C1085  C1206   1.353   1_455 S
C1085  O1235   1.393   1_455 S
C1086  C1145   1.353   .     S
C1086  O1186   1.389   .     S
C1087  H1099   1.083   .     S
C1087  C1092   1.400   .     A
C1087  C1449   1.382   1_545 S
C1088  H1100   1.083   .     S
C1088  C1091   1.400   .     A
C1088  C1270   1.382   .     S
C1089  C1091   1.402   .     A
C1089  H1101   1.083   .     S
C1089  C1267   1.382   .     S
C1090  H1102   1.083   .     S
C1090  C1092   1.402   .     A
C1090  C1448   1.382   1_545 S
C1093  N1106   1.377   .     A
C1093  C1137   1.438   .     S
C1094  C1139   1.439   .     S
C1094  N1105   1.377   .     A
C1094  C16     1.417   1_556 S
C1095  H1103   1.081   .     S
C1095  N1105   1.361   .     A
C1095  C13     1.417   1_556 S
C1096  H1104   1.082   .     S
C1096  N1106   1.362   .     A
Cu1097 O1110   1.963   .     S
Cu1097 N1105   2.017   .     S
Cu1097 Cu1098  2.684   .     S
Cu1097 O1111   1.965   .     S
Cu1097 O1114   1.965   .     S
Cu1097 O1107   1.960   .     S
Cu1098 N1106   2.017   .     S
Cu1098 O1109   1.963   .     S
Cu1098 O1113   1.965   .     S
Cu1098 O1112   1.965   .     S
Cu1098 O1108   1.960   .     S
O1115  C1145   1.393   .     S
O1115  C1176   1.418   .     S
C1116  H1117   1.111   .     S
C1116  H1118   1.115   .     S
C1116  O1235   1.418   1_455 S
C1116  C1239   1.533   1_455 S
C1119  H1121   1.111   .     S
C1119  H1120   1.110   .     S
C1119  C1122   1.526   .     S
C1119  C1176   1.533   .     S
C1122  H1124   1.110   .     S
C1122  H1125   1.111   .     S
C1122  H1183   1.111   .     S
H1123  C1242   1.111   1_455 S
O1126  C1127   1.418   .     S
O1126  C1206   1.389   1_455 S
C1127  H1128   1.113   .     S
C1127  H1249   1.118   1_455 S
C1127  C1250   1.528   1_455 S
H1129  C1187   1.118   .     S
C1130  H1132   1.112   .     S
C1130  C1133   1.527   .     S
C1130  C1187   1.528   .     S
C1130  H1191   1.109   .     S
H1131  C1250   1.109   1_455 S
C1133  H1134   1.111   .     S
C1133  H1135   1.110   .     S
C1133  H1196   1.111   .     S
H1136  C1253   1.111   1_455 S
C1137  N1138   1.158   .     T
C1139  N1140   1.158   .     T
C1141  C1152   1.448   .     S
C1141  O1169   1.294   .     A
C1141  O1167   1.291   .     A
C1142  O1170   1.294   .     A
C1142  C1151   1.448   .     S
C1142  O1168   1.291   .     A
C1143  O1171   1.282   .     A
C1143  O1173   1.293   .     A
C1143  C1145   1.438   .     S
C1144  O1172   1.281   .     A
C1144  O1174   1.293   .     A
C1144  C1146   1.436   .     S
C1146  C1205   1.353   .     S
C1146  O1246   1.389   .     S
C1147  H1159   1.083   .     S
C1147  C1152   1.400   .     A
C1147  C1509   1.382   1_545 S
C1148  H1160   1.083   .     S
C1148  C1151   1.400   .     A
C1148  C1330   1.382   .     S
C1149  C1151   1.402   .     A
C1149  H1161   1.083   .     S
C1149  C1327   1.382   .     S
C1150  H1162   1.083   .     S
C1150  C1152   1.402   .     A
C1150  C1508   1.382   1_545 S
C1153  N1166   1.377   .     A
C1153  C1197   1.438   .     S
C1154  C1199   1.439   .     S
C1154  N1165   1.377   .     A
C1154  C76     1.417   1_556 S
C1155  H1163   1.081   .     S
C1155  N1165   1.361   .     A
C1155  C73     1.417   1_556 S
C1156  H1164   1.082   .     S
C1156  N1166   1.362   .     A
Cu1157 O1170   1.963   .     S
Cu1157 N1165   2.017   .     S
Cu1157 Cu1158  2.684   .     S
Cu1157 O1171   1.965   .     S
Cu1157 O1174   1.965   .     S
Cu1157 O1167   1.960   .     S
Cu1158 N1166   2.017   .     S
Cu1158 O1169   1.963   .     S
Cu1158 O1173   1.965   .     S
Cu1158 O1172   1.965   .     S
Cu1158 O1168   1.960   .     S
O1175  C1205   1.393   .     S
O1175  C1236   1.418   .     S
C1176  H1177   1.111   .     S
C1176  H1178   1.115   .     S
C1179  H1181   1.111   .     S
C1179  H1180   1.110   .     S
C1179  C1182   1.526   .     S
C1179  C1236   1.533   .     S
C1182  H1184   1.110   .     S
C1182  H1185   1.111   .     S
C1182  H1243   1.111   .     S
O1186  C1187   1.418   .     S
C1187  H1188   1.113   .     S
H1189  C1247   1.118   .     S
C1190  H1192   1.112   .     S
C1190  C1193   1.527   .     S
C1190  C1247   1.528   .     S
C1190  H1251   1.109   .     S
C1193  H1194   1.111   .     S
C1193  H1195   1.110   .     S
C1193  H1256   1.111   .     S
C1197  N1198   1.158   .     T
C1199  N1200   1.158   .     T
C1201  C1212   1.448   .     S
C1201  O1229   1.294   .     A
C1201  O1227   1.291   .     A
C1202  O1230   1.294   .     A
C1202  C1211   1.448   .     S
C1202  O1228   1.291   .     A
C1203  O1231   1.282   .     A
C1203  O1233   1.293   .     A
C1203  C1205   1.438   .     S
C1204  O1232   1.281   .     A
C1204  O1234   1.293   .     A
C1204  C1206   1.436   .     S
C1206  C1085   1.353   1_655 S
C1206  O1126   1.389   1_655 S
C1207  H1219   1.083   .     S
C1207  C1212   1.400   .     A
C1207  C1569   1.382   1_545 S
C1208  H1220   1.083   .     S
C1208  C1211   1.400   .     A
C1208  C1390   1.382   .     S
C1209  C1211   1.402   .     A
C1209  H1221   1.083   .     S
C1209  C1387   1.382   .     S
C1210  H1222   1.083   .     S
C1210  C1212   1.402   .     A
C1210  C1568   1.382   1_545 S
C1213  N1226   1.377   .     A
C1213  C1257   1.438   .     S
C1214  C1259   1.439   .     S
C1214  N1225   1.377   .     A
C1214  C136    1.417   1_556 S
C1215  H1223   1.081   .     S
C1215  N1225   1.361   .     A
C1215  C133    1.417   1_556 S
C1216  H1224   1.082   .     S
C1216  N1226   1.362   .     A
Cu1217 O1230   1.963   .     S
Cu1217 N1225   2.017   .     S
Cu1217 Cu1218  2.684   .     S
Cu1217 O1231   1.965   .     S
Cu1217 O1234   1.965   .     S
Cu1217 O1227   1.960   .     S
Cu1218 N1226   2.017   .     S
Cu1218 O1229   1.963   .     S
Cu1218 O1233   1.965   .     S
Cu1218 O1232   1.965   .     S
Cu1218 O1228   1.960   .     S
O1235  C1085   1.393   1_655 S
O1235  C1116   1.418   1_655 S
C1236  H1237   1.111   .     S
C1236  H1238   1.115   .     S
C1239  H1241   1.111   .     S
C1239  H1240   1.110   .     S
C1239  C1242   1.526   .     S
C1239  C1116   1.533   1_655 S
C1242  H1244   1.110   .     S
C1242  H1245   1.111   .     S
C1242  H1123   1.111   1_655 S
O1246  C1247   1.418   .     S
C1247  H1248   1.113   .     S
H1249  C1127   1.118   1_655 S
C1250  H1252   1.112   .     S
C1250  C1253   1.527   .     S
C1250  C1127   1.528   1_655 S
C1250  H1131   1.109   1_655 S
C1253  H1254   1.111   .     S
C1253  H1255   1.110   .     S
C1253  H1136   1.111   1_655 S
C1257  N1258   1.158   .     T
C1259  N1260   1.158   .     T
C1261  C1272   1.448   .     S
C1261  O1289   1.294   .     A
C1261  O1287   1.291   .     A
C1262  O1290   1.294   .     A
C1262  C1271   1.448   .     S
C1262  O1288   1.291   .     A
C1263  O1291   1.282   .     A
C1263  O1293   1.293   .     A
C1263  C1265   1.438   .     S
C1264  O1292   1.281   .     A
C1264  O1294   1.293   .     A
C1264  C1266   1.436   .     S
C1265  C1386   1.353   1_455 S
C1265  O1415   1.393   1_455 S
C1266  C1325   1.353   .     S
C1266  O1366   1.389   .     S
C1267  H1279   1.083   .     S
C1267  C1272   1.400   .     A
C1268  H1280   1.083   .     S
C1268  C1271   1.400   .     A
C1268  C1450   1.382   .     S
C1269  C1271   1.402   .     A
C1269  H1281   1.083   .     S
C1269  C1447   1.382   .     S
C1270  H1282   1.083   .     S
C1270  C1272   1.402   .     A
C1273  N1286   1.377   .     A
C1273  C1317   1.438   .     S
C1274  C1319   1.439   .     S
C1274  N1285   1.377   .     A
C1274  C196    1.417   1_556 S
C1275  H1283   1.081   .     S
C1275  N1285   1.361   .     A
C1275  C193    1.417   1_556 S
C1276  H1284   1.082   .     S
C1276  N1286   1.362   .     A
Cu1277 O1290   1.963   .     S
Cu1277 N1285   2.017   .     S
Cu1277 Cu1278  2.684   .     S
Cu1277 O1291   1.965   .     S
Cu1277 O1294   1.965   .     S
Cu1277 O1287   1.960   .     S
Cu1278 N1286   2.017   .     S
Cu1278 O1289   1.963   .     S
Cu1278 O1293   1.965   .     S
Cu1278 O1292   1.965   .     S
Cu1278 O1288   1.960   .     S
O1295  C1325   1.393   .     S
O1295  C1356   1.418   .     S
C1296  H1297   1.111   .     S
C1296  H1298   1.115   .     S
C1296  O1415   1.418   1_455 S
C1296  C1419   1.533   1_455 S
C1299  H1301   1.111   .     S
C1299  H1300   1.110   .     S
C1299  C1302   1.526   .     S
C1299  C1356   1.533   .     S
C1302  H1304   1.110   .     S
C1302  H1305   1.111   .     S
C1302  H1363   1.111   .     S
H1303  C1422   1.111   1_455 S
O1306  C1307   1.418   .     S
O1306  C1386   1.389   1_455 S
C1307  H1308   1.113   .     S
C1307  H1429   1.118   1_455 S
C1307  C1430   1.528   1_455 S
H1309  C1367   1.118   .     S
C1310  H1312   1.112   .     S
C1310  C1313   1.527   .     S
C1310  C1367   1.528   .     S
C1310  H1371   1.109   .     S
H1311  C1430   1.109   1_455 S
C1313  H1314   1.111   .     S
C1313  H1315   1.110   .     S
C1313  H1376   1.111   .     S
H1316  C1433   1.111   1_455 S
C1317  N1318   1.158   .     T
C1319  N1320   1.158   .     T
C1321  C1332   1.448   .     S
C1321  O1349   1.294   .     A
C1321  O1347   1.291   .     A
C1322  O1350   1.294   .     A
C1322  C1331   1.448   .     S
C1322  O1348   1.291   .     A
C1323  O1351   1.282   .     A
C1323  O1353   1.293   .     A
C1323  C1325   1.438   .     S
C1324  O1352   1.281   .     A
C1324  O1354   1.293   .     A
C1324  C1326   1.436   .     S
C1326  C1385   1.353   .     S
C1326  O1426   1.389   .     S
C1327  H1339   1.083   .     S
C1327  C1332   1.400   .     A
C1328  H1340   1.083   .     S
C1328  C1331   1.400   .     A
C1328  C1510   1.382   .     S
C1329  C1331   1.402   .     A
C1329  H1341   1.083   .     S
C1329  C1507   1.382   .     S
C1330  H1342   1.083   .     S
C1330  C1332   1.402   .     A
C1333  N1346   1.377   .     A
C1333  C1377   1.438   .     S
C1334  C1379   1.439   .     S
C1334  N1345   1.377   .     A
C1334  C256    1.417   1_556 S
C1335  H1343   1.081   .     S
C1335  N1345   1.361   .     A
C1335  C253    1.417   1_556 S
C1336  H1344   1.082   .     S
C1336  N1346   1.362   .     A
Cu1337 O1350   1.963   .     S
Cu1337 N1345   2.017   .     S
Cu1337 Cu1338  2.684   .     S
Cu1337 O1351   1.965   .     S
Cu1337 O1354   1.965   .     S
Cu1337 O1347   1.960   .     S
Cu1338 N1346   2.017   .     S
Cu1338 O1349   1.963   .     S
Cu1338 O1353   1.965   .     S
Cu1338 O1352   1.965   .     S
Cu1338 O1348   1.960   .     S
O1355  C1385   1.393   .     S
O1355  C1416   1.418   .     S
C1356  H1357   1.111   .     S
C1356  H1358   1.115   .     S
C1359  H1361   1.111   .     S
C1359  H1360   1.110   .     S
C1359  C1362   1.526   .     S
C1359  C1416   1.533   .     S
C1362  H1364   1.110   .     S
C1362  H1365   1.111   .     S
C1362  H1423   1.111   .     S
O1366  C1367   1.418   .     S
C1367  H1368   1.113   .     S
H1369  C1427   1.118   .     S
C1370  H1372   1.112   .     S
C1370  C1373   1.527   .     S
C1370  C1427   1.528   .     S
C1370  H1431   1.109   .     S
C1373  H1374   1.111   .     S
C1373  H1375   1.110   .     S
C1373  H1436   1.111   .     S
C1377  N1378   1.158   .     T
C1379  N1380   1.158   .     T
C1381  C1392   1.448   .     S
C1381  O1409   1.294   .     A
C1381  O1407   1.291   .     A
C1382  O1410   1.294   .     A
C1382  C1391   1.448   .     S
C1382  O1408   1.291   .     A
C1383  O1411   1.282   .     A
C1383  O1413   1.293   .     A
C1383  C1385   1.438   .     S
C1384  O1412   1.281   .     A
C1384  O1414   1.293   .     A
C1384  C1386   1.436   .     S
C1386  C1265   1.353   1_655 S
C1386  O1306   1.389   1_655 S
C1387  H1399   1.083   .     S
C1387  C1392   1.400   .     A
C1388  H1400   1.083   .     S
C1388  C1391   1.400   .     A
C1388  C1570   1.382   .     S
C1389  C1391   1.402   .     A
C1389  H1401   1.083   .     S
C1389  C1567   1.382   .     S
C1390  H1402   1.083   .     S
C1390  C1392   1.402   .     A
C1393  N1406   1.377   .     A
C1393  C1437   1.438   .     S
C1394  C1439   1.439   .     S
C1394  N1405   1.377   .     A
C1394  C316    1.417   1_556 S
C1395  H1403   1.081   .     S
C1395  N1405   1.361   .     A
C1395  C313    1.417   1_556 S
C1396  H1404   1.082   .     S
C1396  N1406   1.362   .     A
Cu1397 O1410   1.963   .     S
Cu1397 N1405   2.017   .     S
Cu1397 Cu1398  2.684   .     S
Cu1397 O1411   1.965   .     S
Cu1397 O1414   1.965   .     S
Cu1397 O1407   1.960   .     S
Cu1398 N1406   2.017   .     S
Cu1398 O1409   1.963   .     S
Cu1398 O1413   1.965   .     S
Cu1398 O1412   1.965   .     S
Cu1398 O1408   1.960   .     S
O1415  C1265   1.393   1_655 S
O1415  C1296   1.418   1_655 S
C1416  H1417   1.111   .     S
C1416  H1418   1.115   .     S
C1419  H1421   1.111   .     S
C1419  H1420   1.110   .     S
C1419  C1422   1.526   .     S
C1419  C1296   1.533   1_655 S
C1422  H1424   1.110   .     S
C1422  H1425   1.111   .     S
C1422  H1303   1.111   1_655 S
O1426  C1427   1.418   .     S
C1427  H1428   1.113   .     S
H1429  C1307   1.118   1_655 S
C1430  H1432   1.112   .     S
C1430  C1433   1.527   .     S
C1430  C1307   1.528   1_655 S
C1430  H1311   1.109   1_655 S
C1433  H1434   1.111   .     S
C1433  H1435   1.110   .     S
C1433  H1316   1.111   1_655 S
C1437  N1438   1.158   .     T
C1439  N1440   1.158   .     T
C1441  C1452   1.448   .     S
C1441  O1469   1.294   .     A
C1441  O1467   1.291   .     A
C1442  O1470   1.294   .     A
C1442  C1451   1.448   .     S
C1442  O1468   1.291   .     A
C1443  O1471   1.282   .     A
C1443  O1473   1.293   .     A
C1443  C1445   1.438   .     S
C1444  O1472   1.281   .     A
C1444  O1474   1.293   .     A
C1444  C1446   1.436   .     S
C1445  C1566   1.353   1_455 S
C1445  O1595   1.393   1_455 S
C1446  C1505   1.353   .     S
C1446  O1546   1.389   .     S
C1447  H1459   1.083   .     S
C1447  C1452   1.400   .     A
C1448  H1460   1.083   .     S
C1448  C1451   1.400   .     A
C1448  C1090   1.382   1_565 S
C1449  C1451   1.402   .     A
C1449  H1461   1.083   .     S
C1449  C1087   1.382   1_565 S
C1450  H1462   1.083   .     S
C1450  C1452   1.402   .     A
C1453  N1466   1.377   .     A
C1453  C1497   1.438   .     S
C1454  C1499   1.439   .     S
C1454  N1465   1.377   .     A
C1454  C376    1.417   1_556 S
C1455  H1463   1.081   .     S
C1455  N1465   1.361   .     A
C1455  C373    1.417   1_556 S
C1456  H1464   1.082   .     S
C1456  N1466   1.362   .     A
Cu1457 O1470   1.963   .     S
Cu1457 N1465   2.017   .     S
Cu1457 Cu1458  2.684   .     S
Cu1457 O1471   1.965   .     S
Cu1457 O1474   1.965   .     S
Cu1457 O1467   1.960   .     S
Cu1458 N1466   2.017   .     S
Cu1458 O1469   1.963   .     S
Cu1458 O1473   1.965   .     S
Cu1458 O1472   1.965   .     S
Cu1458 O1468   1.960   .     S
O1475  C1505   1.393   .     S
O1475  C1536   1.418   .     S
C1476  H1477   1.111   .     S
C1476  H1478   1.115   .     S
C1476  O1595   1.418   1_455 S
C1476  C1599   1.533   1_455 S
C1479  H1481   1.111   .     S
C1479  H1480   1.110   .     S
C1479  C1482   1.526   .     S
C1479  C1536   1.533   .     S
C1482  H1484   1.110   .     S
C1482  H1485   1.111   .     S
C1482  H1543   1.111   .     S
H1483  C1602   1.111   1_455 S
O1486  C1487   1.418   .     S
O1486  C1566   1.389   1_455 S
C1487  H1488   1.113   .     S
C1487  H1609   1.118   1_455 S
C1487  C1610   1.528   1_455 S
H1489  C1547   1.118   .     S
C1490  H1492   1.112   .     S
C1490  C1493   1.527   .     S
C1490  C1547   1.528   .     S
C1490  H1551   1.109   .     S
H1491  C1610   1.109   1_455 S
C1493  H1494   1.111   .     S
C1493  H1495   1.110   .     S
C1493  H1556   1.111   .     S
H1496  C1613   1.111   1_455 S
C1497  N1498   1.158   .     T
C1499  N1500   1.158   .     T
C1501  C1512   1.448   .     S
C1501  O1529   1.294   .     A
C1501  O1527   1.291   .     A
C1502  O1530   1.294   .     A
C1502  C1511   1.448   .     S
C1502  O1528   1.291   .     A
C1503  O1531   1.282   .     A
C1503  O1533   1.293   .     A
C1503  C1505   1.438   .     S
C1504  O1532   1.281   .     A
C1504  O1534   1.293   .     A
C1504  C1506   1.436   .     S
C1506  C1565   1.353   .     S
C1506  O1606   1.389   .     S
C1507  H1519   1.083   .     S
C1507  C1512   1.400   .     A
C1508  H1520   1.083   .     S
C1508  C1511   1.400   .     A
C1508  C1150   1.382   1_565 S
C1509  C1511   1.402   .     A
C1509  H1521   1.083   .     S
C1509  C1147   1.382   1_565 S
C1510  H1522   1.083   .     S
C1510  C1512   1.402   .     A
C1513  N1526   1.377   .     A
C1513  C1557   1.438   .     S
C1514  C1559   1.439   .     S
C1514  N1525   1.377   .     A
C1514  C436    1.417   1_556 S
C1515  H1523   1.081   .     S
C1515  N1525   1.361   .     A
C1515  C433    1.417   1_556 S
C1516  H1524   1.082   .     S
C1516  N1526   1.362   .     A
Cu1517 O1530   1.963   .     S
Cu1517 N1525   2.017   .     S
Cu1517 Cu1518  2.684   .     S
Cu1517 O1531   1.965   .     S
Cu1517 O1534   1.965   .     S
Cu1517 O1527   1.960   .     S
Cu1518 N1526   2.017   .     S
Cu1518 O1529   1.963   .     S
Cu1518 O1533   1.965   .     S
Cu1518 O1532   1.965   .     S
Cu1518 O1528   1.960   .     S
O1535  C1565   1.393   .     S
O1535  C1596   1.418   .     S
C1536  H1537   1.111   .     S
C1536  H1538   1.115   .     S
C1539  H1541   1.111   .     S
C1539  H1540   1.110   .     S
C1539  C1542   1.526   .     S
C1539  C1596   1.533   .     S
C1542  H1544   1.110   .     S
C1542  H1545   1.111   .     S
C1542  H1603   1.111   .     S
O1546  C1547   1.418   .     S
C1547  H1548   1.113   .     S
H1549  C1607   1.118   .     S
C1550  H1552   1.112   .     S
C1550  C1553   1.527   .     S
C1550  C1607   1.528   .     S
C1550  H1611   1.109   .     S
C1553  H1554   1.111   .     S
C1553  H1555   1.110   .     S
C1553  H1616   1.111   .     S
C1557  N1558   1.158   .     T
C1559  N1560   1.158   .     T
C1561  C1572   1.448   .     S
C1561  O1589   1.294   .     A
C1561  O1587   1.291   .     A
C1562  O1590   1.294   .     A
C1562  C1571   1.448   .     S
C1562  O1588   1.291   .     A
C1563  O1591   1.282   .     A
C1563  O1593   1.293   .     A
C1563  C1565   1.438   .     S
C1564  O1592   1.281   .     A
C1564  O1594   1.293   .     A
C1564  C1566   1.436   .     S
C1566  C1445   1.353   1_655 S
C1566  O1486   1.389   1_655 S
C1567  H1579   1.083   .     S
C1567  C1572   1.400   .     A
C1568  H1580   1.083   .     S
C1568  C1571   1.400   .     A
C1568  C1210   1.382   1_565 S
C1569  C1571   1.402   .     A
C1569  H1581   1.083   .     S
C1569  C1207   1.382   1_565 S
C1570  H1582   1.083   .     S
C1570  C1572   1.402   .     A
C1573  N1586   1.377   .     A
C1573  C1617   1.438   .     S
C1574  C1619   1.439   .     S
C1574  N1585   1.377   .     A
C1574  C496    1.417   1_556 S
C1575  H1583   1.081   .     S
C1575  N1585   1.361   .     A
C1575  C493    1.417   1_556 S
C1576  H1584   1.082   .     S
C1576  N1586   1.362   .     A
Cu1577 O1590   1.963   .     S
Cu1577 N1585   2.017   .     S
Cu1577 Cu1578  2.684   .     S
Cu1577 O1591   1.965   .     S
Cu1577 O1594   1.965   .     S
Cu1577 O1587   1.960   .     S
Cu1578 N1586   2.017   .     S
Cu1578 O1589   1.963   .     S
Cu1578 O1593   1.965   .     S
Cu1578 O1592   1.965   .     S
Cu1578 O1588   1.960   .     S
O1595  C1445   1.393   1_655 S
O1595  C1476   1.418   1_655 S
C1596  H1597   1.111   .     S
C1596  H1598   1.115   .     S
C1599  H1601   1.111   .     S
C1599  H1600   1.110   .     S
C1599  C1602   1.526   .     S
C1599  C1476   1.533   1_655 S
C1602  H1604   1.110   .     S
C1602  H1605   1.111   .     S
C1602  H1483   1.111   1_655 S
O1606  C1607   1.418   .     S
C1607  H1608   1.113   .     S
H1609  C1487   1.118   1_655 S
C1610  H1612   1.112   .     S
C1610  C1613   1.527   .     S
C1610  C1487   1.528   1_655 S
C1610  H1491   1.109   1_655 S
C1613  H1614   1.111   .     S
C1613  H1615   1.110   .     S
C1613  H1496   1.111   1_655 S
C1617  N1618   1.158   .     T
C1619  N1620   1.158   .     T
