data_str_m2_o1_o17_pcu_sym.217
_audit_creation_date              2020-01-03
_audit_creation_method            'Materials Studio'
_symmetry_space_group_name_H-M    'P1'
_symmetry_Int_Tables_number       1
_symmetry_cell_setting            triclinic
loop_
_symmetry_equiv_pos_as_xyz
  x,y,z
_cell_length_a                    32.2686
_cell_length_b                    28.9462
_cell_length_c                    30.1032
_cell_angle_alpha                 89.5113
_cell_angle_beta                  92.4378
_cell_angle_gamma                 89.3675
loop_
_atom_site_label
_atom_site_type_symbol
_atom_site_fract_x
_atom_site_fract_y
_atom_site_fract_z
_atom_site_U_iso_or_equiv
_atom_site_adp_type
_atom_site_occupancy
C1     C     0.08759   0.16686   0.24978   0.00000  Uiso   1.00
C2     C     0.24574   0.16647   0.25021   0.00000  Uiso   1.00
C3     C     0.11799   0.23151   0.02297   0.00000  Uiso   1.00
C4     C     0.21531   0.10181   0.47703   0.00000  Uiso   1.00
C5     C     0.02359   0.14672   0.28604   0.00000  Uiso   1.00
C6     C     0.30974   0.18661   0.21396   0.00000  Uiso   1.00
C7     C     0.31330   0.14751   0.28663   0.00000  Uiso   1.00
C8     C     0.02003   0.18582   0.21337   0.00000  Uiso   1.00
C9     C     0.29045   0.16608   0.24991   0.00000  Uiso   1.00
C10    C     0.04289   0.16725   0.25009   0.00000  Uiso   1.00
C11    C     0.14215   0.02553   0.21998   0.00000  Uiso   1.00
C12    C     0.19118   0.30780   0.28002   0.00000  Uiso   1.00
C13    C     0.19045   0.02393   0.28091   0.00000  Uiso   1.00
C14    C     0.14289   0.30941   0.21909   0.00000  Uiso   1.00
C15    C     0.16735   0.16679   0.16465   0.00000  Uiso   1.00
C16    C     0.16599   0.16655   0.33535   0.00000  Uiso   1.00
C17    C     0.19070   0.13684   0.40765   0.00000  Uiso   1.00
C18    C     0.14262   0.19649   0.09235   0.00000  Uiso   1.00
C19    C     0.16406   0.16643   0.38355   0.00000  Uiso   1.00
C20    C     0.16927   0.16690   0.11645   0.00000  Uiso   1.00
C21    C     0.13674   0.19618   0.40526   0.00000  Uiso   1.00
C22    C     0.19659   0.13715   0.09474   0.00000  Uiso   1.00
C23    C     0.13980   0.19941   0.45234   0.00000  Uiso   1.00
C24    C     0.19351   0.13392   0.04765   0.00000  Uiso   1.00
C25    C     0.16613   0.16719   0.47660   0.00000  Uiso   1.00
C26    C     0.16718   0.16613   0.02340   0.00000  Uiso   1.00
C27    C     0.19104   0.13547   0.45389   0.00000  Uiso   1.00
C28    C     0.14227   0.19785   0.04611   0.00000  Uiso   1.00
C29    C     0.11632   0.23243   0.47599   0.00000  Uiso   1.00
C30    C     0.21697   0.10088   0.02401   0.00000  Uiso   1.00
Cu31   Cu    0.16667   0.21355   0.25000   0.00000  Uiso   1.00
Cu32   Cu    0.16667   0.11978   0.25000   0.00000  Uiso   1.00
H33    H     0.21140   0.11477   0.38976   0.00000  Uiso   1.00
H34    H     0.12192   0.21855   0.11024   0.00000  Uiso   1.00
N35    N     0.16667   0.28402   0.25000   0.00000  Uiso   1.00
N36    N     0.16667   0.04931   0.25000   0.00000  Uiso   1.00
O37    O     0.10655   0.20625   0.24999   0.00000  Uiso   1.00
O38    O     0.22679   0.12709   0.25000   0.00000  Uiso   1.00
O39    O     0.22679   0.20625   0.25000   0.00000  Uiso   1.00
O40    O     0.10655   0.12709   0.24999   0.00000  Uiso   1.00
O41    O     0.16666   0.20627   0.18513   0.00000  Uiso   1.00
O42    O     0.16668   0.12707   0.31487   0.00000  Uiso   1.00
O43    O     0.16668   0.20627   0.31487   0.00000  Uiso   1.00
O44    O     0.16666   0.12707   0.18513   0.00000  Uiso   1.00
O45    O     0.10589   0.22034   0.38131   0.00000  Uiso   1.00
H46    H     0.09873   0.20407   0.35327   0.00000  Uiso   1.00
O47    O     0.22745   0.11300   0.11868   0.00000  Uiso   1.00
H48    H     0.23461   0.12928   0.14672   0.00000  Uiso   1.00
C49    C     0.09081   0.26890   0.45258   0.00000  Uiso   1.00
H50    H     0.10410   0.28991   0.42689   0.00000  Uiso   1.00
O51    O     0.05467   0.27539   0.46162   0.00000  Uiso   1.00
C52    C     0.24246   0.06439   0.04742   0.00000  Uiso   1.00
H53    H     0.22916   0.04341   0.07314   0.00000  Uiso   1.00
O54    O     0.27858   0.05784   0.03836   0.00000  Uiso   1.00
O55    O     0.09691   0.26379   0.04745   0.00000  Uiso   1.00
H56    H     0.09584   0.29373   0.03130   0.00000  Uiso   1.00
O57    O     0.23638   0.06951   0.45255   0.00000  Uiso   1.00
H58    H     0.23740   0.03956   0.46869   0.00000  Uiso   1.00
O59    O     0.04816   0.12621   0.31958   0.00000  Uiso   1.00
H60    H     0.03246   0.10092   0.33316   0.00000  Uiso   1.00
O61    O     0.28518   0.20712   0.18042   0.00000  Uiso   1.00
H62    H     0.30087   0.23242   0.16684   0.00000  Uiso   1.00
O63    O     0.29219   0.13292   0.32309   0.00000  Uiso   1.00
H64    H     0.31027   0.13638   0.35024   0.00000  Uiso   1.00
O65    O     0.04114   0.20042   0.17690   0.00000  Uiso   1.00
H66    H     0.02306   0.19695   0.14976   0.00000  Uiso   1.00
C67    C     0.11236   0.05108   0.19018   0.00000  Uiso   1.00
H68    H     0.12223   0.06581   0.15922   0.00000  Uiso   1.00
O69    O     0.07577   0.05307   0.19881   0.00000  Uiso   1.00
C70    C     0.22098   0.28226   0.30982   0.00000  Uiso   1.00
H71    H     0.21111   0.26752   0.34078   0.00000  Uiso   1.00
O72    O     0.25757   0.28027   0.30118   0.00000  Uiso   1.00
C73    C     0.21445   0.04744   0.31697   0.00000  Uiso   1.00
H74    H     0.23134   0.07834   0.31079   0.00000  Uiso   1.00
O75    O     0.21520   0.03227   0.35498   0.00000  Uiso   1.00
C76    C     0.11889   0.28589   0.18303   0.00000  Uiso   1.00
H77    H     0.10200   0.25499   0.18921   0.00000  Uiso   1.00
O78    O     0.11814   0.30106   0.14501   0.00000  Uiso   1.00
C79    C     0.42092   0.16686   0.24978   0.00000  Uiso   1.00
C80    C     0.57908   0.16647   0.25021   0.00000  Uiso   1.00
C81    C     0.45132   0.23151   0.02297   0.00000  Uiso   1.00
C82    C     0.54865   0.10181   0.47703   0.00000  Uiso   1.00
C83    C     0.35693   0.14672   0.28604   0.00000  Uiso   1.00
C84    C     0.64308   0.18661   0.21396   0.00000  Uiso   1.00
C85    C     0.64664   0.14751   0.28663   0.00000  Uiso   1.00
C86    C     0.35336   0.18582   0.21337   0.00000  Uiso   1.00
C87    C     0.62378   0.16608   0.24991   0.00000  Uiso   1.00
C88    C     0.37622   0.16725   0.25009   0.00000  Uiso   1.00
C89    C     0.47549   0.02553   0.21998   0.00000  Uiso   1.00
C90    C     0.52451   0.30780   0.28002   0.00000  Uiso   1.00
C91    C     0.52378   0.02393   0.28091   0.00000  Uiso   1.00
C92    C     0.47622   0.30941   0.21909   0.00000  Uiso   1.00
C93    C     0.50068   0.16679   0.16465   0.00000  Uiso   1.00
C94    C     0.49932   0.16655   0.33535   0.00000  Uiso   1.00
C95    C     0.52403   0.13684   0.40765   0.00000  Uiso   1.00
C96    C     0.47595   0.19649   0.09235   0.00000  Uiso   1.00
C97    C     0.49739   0.16643   0.38355   0.00000  Uiso   1.00
C98    C     0.50260   0.16690   0.11645   0.00000  Uiso   1.00
C99    C     0.47007   0.19618   0.40526   0.00000  Uiso   1.00
C100   C     0.52992   0.13715   0.09474   0.00000  Uiso   1.00
C101   C     0.47313   0.19941   0.45234   0.00000  Uiso   1.00
C102   C     0.52685   0.13392   0.04765   0.00000  Uiso   1.00
C103   C     0.49947   0.16719   0.47660   0.00000  Uiso   1.00
C104   C     0.50051   0.16613   0.02340   0.00000  Uiso   1.00
C105   C     0.52437   0.13547   0.45389   0.00000  Uiso   1.00
C106   C     0.47561   0.19785   0.04611   0.00000  Uiso   1.00
C107   C     0.44966   0.23243   0.47599   0.00000  Uiso   1.00
C108   C     0.55031   0.10088   0.02401   0.00000  Uiso   1.00
Cu109  Cu    0.50000   0.21355   0.25000   0.00000  Uiso   1.00
Cu110  Cu    0.50000   0.11978   0.25000   0.00000  Uiso   1.00
H111   H     0.54474   0.11477   0.38976   0.00000  Uiso   1.00
H112   H     0.45525   0.21855   0.11024   0.00000  Uiso   1.00
N113   N     0.50000   0.28402   0.25000   0.00000  Uiso   1.00
N114   N     0.50000   0.04931   0.25000   0.00000  Uiso   1.00
O115   O     0.43988   0.20625   0.24999   0.00000  Uiso   1.00
O116   O     0.56012   0.12709   0.25000   0.00000  Uiso   1.00
O117   O     0.56012   0.20625   0.25000   0.00000  Uiso   1.00
O118   O     0.43988   0.12709   0.24999   0.00000  Uiso   1.00
O119   O     0.49999   0.20627   0.18513   0.00000  Uiso   1.00
O120   O     0.50001   0.12707   0.31487   0.00000  Uiso   1.00
O121   O     0.50001   0.20627   0.31487   0.00000  Uiso   1.00
O122   O     0.49999   0.12707   0.18513   0.00000  Uiso   1.00
O123   O     0.43922   0.22034   0.38131   0.00000  Uiso   1.00
H124   H     0.43206   0.20407   0.35327   0.00000  Uiso   1.00
O125   O     0.56078   0.11300   0.11868   0.00000  Uiso   1.00
H126   H     0.56794   0.12928   0.14672   0.00000  Uiso   1.00
C127   C     0.42415   0.26890   0.45258   0.00000  Uiso   1.00
H128   H     0.43744   0.28991   0.42689   0.00000  Uiso   1.00
O129   O     0.38801   0.27539   0.46162   0.00000  Uiso   1.00
C130   C     0.57579   0.06439   0.04742   0.00000  Uiso   1.00
H131   H     0.56249   0.04341   0.07314   0.00000  Uiso   1.00
O132   O     0.61192   0.05784   0.03836   0.00000  Uiso   1.00
O133   O     0.43024   0.26379   0.04745   0.00000  Uiso   1.00
H134   H     0.42918   0.29373   0.03130   0.00000  Uiso   1.00
O135   O     0.56972   0.06951   0.45255   0.00000  Uiso   1.00
H136   H     0.57073   0.03956   0.46869   0.00000  Uiso   1.00
O137   O     0.38149   0.12621   0.31958   0.00000  Uiso   1.00
H138   H     0.36579   0.10092   0.33316   0.00000  Uiso   1.00
O139   O     0.61851   0.20712   0.18042   0.00000  Uiso   1.00
H140   H     0.63421   0.23242   0.16684   0.00000  Uiso   1.00
O141   O     0.62552   0.13292   0.32309   0.00000  Uiso   1.00
H142   H     0.64360   0.13638   0.35024   0.00000  Uiso   1.00
O143   O     0.37448   0.20042   0.17690   0.00000  Uiso   1.00
H144   H     0.35640   0.19695   0.14976   0.00000  Uiso   1.00
C145   C     0.44569   0.05108   0.19018   0.00000  Uiso   1.00
H146   H     0.45556   0.06581   0.15922   0.00000  Uiso   1.00
O147   O     0.40910   0.05307   0.19881   0.00000  Uiso   1.00
C148   C     0.55431   0.28226   0.30982   0.00000  Uiso   1.00
H149   H     0.54444   0.26752   0.34078   0.00000  Uiso   1.00
O150   O     0.59090   0.28027   0.30118   0.00000  Uiso   1.00
C151   C     0.54778   0.04744   0.31697   0.00000  Uiso   1.00
H152   H     0.56467   0.07834   0.31079   0.00000  Uiso   1.00
O153   O     0.54854   0.03227   0.35498   0.00000  Uiso   1.00
C154   C     0.45222   0.28589   0.18303   0.00000  Uiso   1.00
H155   H     0.43533   0.25499   0.18921   0.00000  Uiso   1.00
O156   O     0.45147   0.30106   0.14501   0.00000  Uiso   1.00
C157   C     0.75426   0.16686   0.24978   0.00000  Uiso   1.00
C158   C     0.91241   0.16647   0.25021   0.00000  Uiso   1.00
C159   C     0.78465   0.23151   0.02297   0.00000  Uiso   1.00
C160   C     0.88198   0.10181   0.47703   0.00000  Uiso   1.00
C161   C     0.69026   0.14672   0.28604   0.00000  Uiso   1.00
C162   C     0.97641   0.18661   0.21396   0.00000  Uiso   1.00
C163   C     0.97997   0.14751   0.28663   0.00000  Uiso   1.00
C164   C     0.68670   0.18582   0.21337   0.00000  Uiso   1.00
C165   C     0.95712   0.16608   0.24991   0.00000  Uiso   1.00
C166   C     0.70955   0.16725   0.25009   0.00000  Uiso   1.00
C167   C     0.80882   0.02553   0.21998   0.00000  Uiso   1.00
C168   C     0.85785   0.30780   0.28002   0.00000  Uiso   1.00
C169   C     0.85711   0.02393   0.28091   0.00000  Uiso   1.00
C170   C     0.80955   0.30941   0.21909   0.00000  Uiso   1.00
C171   C     0.83401   0.16679   0.16465   0.00000  Uiso   1.00
C172   C     0.83265   0.16655   0.33535   0.00000  Uiso   1.00
C173   C     0.85737   0.13684   0.40765   0.00000  Uiso   1.00
C174   C     0.80929   0.19649   0.09235   0.00000  Uiso   1.00
C175   C     0.83072   0.16643   0.38355   0.00000  Uiso   1.00
C176   C     0.83594   0.16690   0.11645   0.00000  Uiso   1.00
C177   C     0.80340   0.19618   0.40526   0.00000  Uiso   1.00
C178   C     0.86325   0.13715   0.09474   0.00000  Uiso   1.00
C179   C     0.80646   0.19941   0.45234   0.00000  Uiso   1.00
C180   C     0.86018   0.13392   0.04765   0.00000  Uiso   1.00
C181   C     0.83280   0.16719   0.47660   0.00000  Uiso   1.00
C182   C     0.83385   0.16613   0.02340   0.00000  Uiso   1.00
C183   C     0.85771   0.13547   0.45389   0.00000  Uiso   1.00
C184   C     0.80894   0.19785   0.04611   0.00000  Uiso   1.00
C185   C     0.78299   0.23243   0.47599   0.00000  Uiso   1.00
C186   C     0.88364   0.10088   0.02401   0.00000  Uiso   1.00
Cu187  Cu    0.83333   0.21355   0.25000   0.00000  Uiso   1.00
Cu188  Cu    0.83333   0.11978   0.25000   0.00000  Uiso   1.00
H189   H     0.87807   0.11477   0.38976   0.00000  Uiso   1.00
H190   H     0.78858   0.21855   0.11024   0.00000  Uiso   1.00
N191   N     0.83333   0.28402   0.25000   0.00000  Uiso   1.00
N192   N     0.83333   0.04931   0.25000   0.00000  Uiso   1.00
O193   O     0.77321   0.20625   0.24999   0.00000  Uiso   1.00
O194   O     0.89345   0.12709   0.25000   0.00000  Uiso   1.00
O195   O     0.89345   0.20625   0.25000   0.00000  Uiso   1.00
O196   O     0.77321   0.12709   0.24999   0.00000  Uiso   1.00
O197   O     0.83332   0.20627   0.18513   0.00000  Uiso   1.00
O198   O     0.83334   0.12707   0.31487   0.00000  Uiso   1.00
O199   O     0.83334   0.20627   0.31487   0.00000  Uiso   1.00
O200   O     0.83332   0.12707   0.18513   0.00000  Uiso   1.00
O201   O     0.77256   0.22034   0.38131   0.00000  Uiso   1.00
H202   H     0.76539   0.20407   0.35327   0.00000  Uiso   1.00
O203   O     0.89411   0.11300   0.11868   0.00000  Uiso   1.00
H204   H     0.90127   0.12928   0.14672   0.00000  Uiso   1.00
C205   C     0.75748   0.26890   0.45258   0.00000  Uiso   1.00
H206   H     0.77077   0.28991   0.42689   0.00000  Uiso   1.00
O207   O     0.72134   0.27539   0.46162   0.00000  Uiso   1.00
C208   C     0.90912   0.06439   0.04742   0.00000  Uiso   1.00
H209   H     0.89583   0.04341   0.07314   0.00000  Uiso   1.00
O210   O     0.94525   0.05784   0.03836   0.00000  Uiso   1.00
O211   O     0.76357   0.26379   0.04745   0.00000  Uiso   1.00
H212   H     0.76251   0.29373   0.03130   0.00000  Uiso   1.00
O213   O     0.90305   0.06951   0.45255   0.00000  Uiso   1.00
H214   H     0.90406   0.03956   0.46869   0.00000  Uiso   1.00
O215   O     0.71482   0.12621   0.31958   0.00000  Uiso   1.00
H216   H     0.69913   0.10092   0.33316   0.00000  Uiso   1.00
O217   O     0.95184   0.20712   0.18042   0.00000  Uiso   1.00
H218   H     0.96754   0.23242   0.16684   0.00000  Uiso   1.00
O219   O     0.95886   0.13292   0.32309   0.00000  Uiso   1.00
H220   H     0.97694   0.13638   0.35024   0.00000  Uiso   1.00
O221   O     0.70781   0.20042   0.17690   0.00000  Uiso   1.00
H222   H     0.68973   0.19695   0.14976   0.00000  Uiso   1.00
C223   C     0.77903   0.05108   0.19018   0.00000  Uiso   1.00
H224   H     0.78889   0.06581   0.15922   0.00000  Uiso   1.00
O225   O     0.74243   0.05307   0.19881   0.00000  Uiso   1.00
C226   C     0.88764   0.28226   0.30982   0.00000  Uiso   1.00
H227   H     0.87778   0.26752   0.34078   0.00000  Uiso   1.00
O228   O     0.92423   0.28027   0.30118   0.00000  Uiso   1.00
C229   C     0.88111   0.04744   0.31697   0.00000  Uiso   1.00
H230   H     0.89800   0.07834   0.31079   0.00000  Uiso   1.00
O231   O     0.88187   0.03227   0.35498   0.00000  Uiso   1.00
C232   C     0.78555   0.28589   0.18303   0.00000  Uiso   1.00
H233   H     0.76866   0.25499   0.18921   0.00000  Uiso   1.00
O234   O     0.78480   0.30106   0.14501   0.00000  Uiso   1.00
C235   C     0.08759   0.50020   0.24978   0.00000  Uiso   1.00
C236   C     0.24574   0.49980   0.25021   0.00000  Uiso   1.00
C237   C     0.11799   0.56484   0.02297   0.00000  Uiso   1.00
C238   C     0.21531   0.43514   0.47703   0.00000  Uiso   1.00
C239   C     0.02359   0.48006   0.28604   0.00000  Uiso   1.00
C240   C     0.30974   0.51994   0.21396   0.00000  Uiso   1.00
C241   C     0.31330   0.48085   0.28663   0.00000  Uiso   1.00
C242   C     0.02003   0.51915   0.21337   0.00000  Uiso   1.00
C243   C     0.29045   0.49942   0.24991   0.00000  Uiso   1.00
C244   C     0.04289   0.50058   0.25009   0.00000  Uiso   1.00
C245   C     0.14215   0.35887   0.21998   0.00000  Uiso   1.00
C246   C     0.19118   0.64113   0.28002   0.00000  Uiso   1.00
C247   C     0.19045   0.35726   0.28091   0.00000  Uiso   1.00
C248   C     0.14289   0.64274   0.21909   0.00000  Uiso   1.00
C249   C     0.16735   0.50012   0.16465   0.00000  Uiso   1.00
C250   C     0.16599   0.49988   0.33535   0.00000  Uiso   1.00
C251   C     0.19070   0.47017   0.40765   0.00000  Uiso   1.00
C252   C     0.14262   0.52982   0.09235   0.00000  Uiso   1.00
C253   C     0.16406   0.49976   0.38355   0.00000  Uiso   1.00
C254   C     0.16927   0.50024   0.11645   0.00000  Uiso   1.00
C255   C     0.13674   0.52951   0.40526   0.00000  Uiso   1.00
C256   C     0.19659   0.47049   0.09474   0.00000  Uiso   1.00
C257   C     0.13980   0.53274   0.45234   0.00000  Uiso   1.00
C258   C     0.19351   0.46725   0.04765   0.00000  Uiso   1.00
C259   C     0.16613   0.50052   0.47660   0.00000  Uiso   1.00
C260   C     0.16718   0.49947   0.02340   0.00000  Uiso   1.00
C261   C     0.19104   0.46880   0.45389   0.00000  Uiso   1.00
C262   C     0.14227   0.53119   0.04611   0.00000  Uiso   1.00
C263   C     0.11632   0.56576   0.47599   0.00000  Uiso   1.00
C264   C     0.21697   0.43422   0.02401   0.00000  Uiso   1.00
Cu265  Cu    0.16667   0.54689   0.25000   0.00000  Uiso   1.00
Cu266  Cu    0.16667   0.45311   0.25000   0.00000  Uiso   1.00
H267   H     0.21140   0.44810   0.38976   0.00000  Uiso   1.00
H268   H     0.12192   0.55189   0.11024   0.00000  Uiso   1.00
N269   N     0.16667   0.61736   0.25000   0.00000  Uiso   1.00
N270   N     0.16667   0.38264   0.25000   0.00000  Uiso   1.00
O271   O     0.10655   0.53958   0.24999   0.00000  Uiso   1.00
O272   O     0.22679   0.46042   0.25000   0.00000  Uiso   1.00
O273   O     0.22679   0.53958   0.25000   0.00000  Uiso   1.00
O274   O     0.10655   0.46042   0.24999   0.00000  Uiso   1.00
O275   O     0.16666   0.53960   0.18513   0.00000  Uiso   1.00
O276   O     0.16668   0.46040   0.31487   0.00000  Uiso   1.00
O277   O     0.16668   0.53960   0.31487   0.00000  Uiso   1.00
O278   O     0.16666   0.46040   0.18513   0.00000  Uiso   1.00
O279   O     0.10589   0.55368   0.38131   0.00000  Uiso   1.00
H280   H     0.09873   0.53740   0.35327   0.00000  Uiso   1.00
O281   O     0.22745   0.44633   0.11868   0.00000  Uiso   1.00
H282   H     0.23461   0.46261   0.14672   0.00000  Uiso   1.00
C283   C     0.09081   0.60223   0.45258   0.00000  Uiso   1.00
H284   H     0.10410   0.62324   0.42689   0.00000  Uiso   1.00
O285   O     0.05467   0.60872   0.46162   0.00000  Uiso   1.00
C286   C     0.24246   0.39772   0.04742   0.00000  Uiso   1.00
H287   H     0.22916   0.37675   0.07314   0.00000  Uiso   1.00
O288   O     0.27858   0.39117   0.03836   0.00000  Uiso   1.00
O289   O     0.09691   0.59712   0.04745   0.00000  Uiso   1.00
H290   H     0.09584   0.62707   0.03130   0.00000  Uiso   1.00
O291   O     0.23638   0.40285   0.45255   0.00000  Uiso   1.00
H292   H     0.23740   0.37289   0.46869   0.00000  Uiso   1.00
O293   O     0.04816   0.45955   0.31958   0.00000  Uiso   1.00
H294   H     0.03246   0.43425   0.33316   0.00000  Uiso   1.00
O295   O     0.28518   0.54045   0.18042   0.00000  Uiso   1.00
H296   H     0.30087   0.56575   0.16684   0.00000  Uiso   1.00
O297   O     0.29219   0.46625   0.32309   0.00000  Uiso   1.00
H298   H     0.31027   0.46971   0.35024   0.00000  Uiso   1.00
O299   O     0.04114   0.53375   0.17690   0.00000  Uiso   1.00
H300   H     0.02306   0.53029   0.14976   0.00000  Uiso   1.00
C301   C     0.11236   0.38441   0.19018   0.00000  Uiso   1.00
H302   H     0.12223   0.39915   0.15922   0.00000  Uiso   1.00
O303   O     0.07577   0.38640   0.19881   0.00000  Uiso   1.00
C304   C     0.22098   0.61559   0.30982   0.00000  Uiso   1.00
H305   H     0.21111   0.60085   0.34078   0.00000  Uiso   1.00
O306   O     0.25757   0.61360   0.30118   0.00000  Uiso   1.00
C307   C     0.21445   0.38077   0.31697   0.00000  Uiso   1.00
H308   H     0.23134   0.41168   0.31079   0.00000  Uiso   1.00
O309   O     0.21520   0.36560   0.35498   0.00000  Uiso   1.00
C310   C     0.11889   0.61923   0.18303   0.00000  Uiso   1.00
H311   H     0.10200   0.58833   0.18921   0.00000  Uiso   1.00
O312   O     0.11814   0.63440   0.14501   0.00000  Uiso   1.00
C313   C     0.42092   0.50020   0.24978   0.00000  Uiso   1.00
C314   C     0.57908   0.49980   0.25021   0.00000  Uiso   1.00
C315   C     0.45132   0.56484   0.02297   0.00000  Uiso   1.00
C316   C     0.54865   0.43514   0.47703   0.00000  Uiso   1.00
C317   C     0.35693   0.48006   0.28604   0.00000  Uiso   1.00
C318   C     0.64308   0.51994   0.21396   0.00000  Uiso   1.00
C319   C     0.64664   0.48085   0.28663   0.00000  Uiso   1.00
C320   C     0.35336   0.51915   0.21337   0.00000  Uiso   1.00
C321   C     0.62378   0.49942   0.24991   0.00000  Uiso   1.00
C322   C     0.37622   0.50058   0.25009   0.00000  Uiso   1.00
C323   C     0.47549   0.35887   0.21998   0.00000  Uiso   1.00
C324   C     0.52451   0.64113   0.28002   0.00000  Uiso   1.00
C325   C     0.52378   0.35726   0.28091   0.00000  Uiso   1.00
C326   C     0.47622   0.64274   0.21909   0.00000  Uiso   1.00
C327   C     0.50068   0.50012   0.16465   0.00000  Uiso   1.00
C328   C     0.49932   0.49988   0.33535   0.00000  Uiso   1.00
C329   C     0.52403   0.47017   0.40765   0.00000  Uiso   1.00
C330   C     0.47595   0.52982   0.09235   0.00000  Uiso   1.00
C331   C     0.49739   0.49976   0.38355   0.00000  Uiso   1.00
C332   C     0.50260   0.50024   0.11645   0.00000  Uiso   1.00
C333   C     0.47007   0.52951   0.40526   0.00000  Uiso   1.00
C334   C     0.52992   0.47049   0.09474   0.00000  Uiso   1.00
C335   C     0.47313   0.53274   0.45234   0.00000  Uiso   1.00
C336   C     0.52685   0.46725   0.04765   0.00000  Uiso   1.00
C337   C     0.49947   0.50052   0.47660   0.00000  Uiso   1.00
C338   C     0.50051   0.49947   0.02340   0.00000  Uiso   1.00
C339   C     0.52437   0.46880   0.45389   0.00000  Uiso   1.00
C340   C     0.47561   0.53119   0.04611   0.00000  Uiso   1.00
C341   C     0.44966   0.56576   0.47599   0.00000  Uiso   1.00
C342   C     0.55031   0.43422   0.02401   0.00000  Uiso   1.00
Cu343  Cu    0.50000   0.54689   0.25000   0.00000  Uiso   1.00
Cu344  Cu    0.50000   0.45311   0.25000   0.00000  Uiso   1.00
H345   H     0.54474   0.44810   0.38976   0.00000  Uiso   1.00
H346   H     0.45525   0.55189   0.11024   0.00000  Uiso   1.00
N347   N     0.50000   0.61736   0.25000   0.00000  Uiso   1.00
N348   N     0.50000   0.38264   0.25000   0.00000  Uiso   1.00
O349   O     0.43988   0.53958   0.24999   0.00000  Uiso   1.00
O350   O     0.56012   0.46042   0.25000   0.00000  Uiso   1.00
O351   O     0.56012   0.53958   0.25000   0.00000  Uiso   1.00
O352   O     0.43988   0.46042   0.24999   0.00000  Uiso   1.00
O353   O     0.49999   0.53960   0.18513   0.00000  Uiso   1.00
O354   O     0.50001   0.46040   0.31487   0.00000  Uiso   1.00
O355   O     0.50001   0.53960   0.31487   0.00000  Uiso   1.00
O356   O     0.49999   0.46040   0.18513   0.00000  Uiso   1.00
O357   O     0.43922   0.55368   0.38131   0.00000  Uiso   1.00
H358   H     0.43206   0.53740   0.35327   0.00000  Uiso   1.00
O359   O     0.56078   0.44633   0.11868   0.00000  Uiso   1.00
H360   H     0.56794   0.46261   0.14672   0.00000  Uiso   1.00
C361   C     0.42415   0.60223   0.45258   0.00000  Uiso   1.00
H362   H     0.43744   0.62324   0.42689   0.00000  Uiso   1.00
O363   O     0.38801   0.60872   0.46162   0.00000  Uiso   1.00
C364   C     0.57579   0.39772   0.04742   0.00000  Uiso   1.00
H365   H     0.56249   0.37675   0.07314   0.00000  Uiso   1.00
O366   O     0.61192   0.39117   0.03836   0.00000  Uiso   1.00
O367   O     0.43024   0.59712   0.04745   0.00000  Uiso   1.00
H368   H     0.42918   0.62707   0.03130   0.00000  Uiso   1.00
O369   O     0.56972   0.40285   0.45255   0.00000  Uiso   1.00
H370   H     0.57073   0.37289   0.46869   0.00000  Uiso   1.00
O371   O     0.38149   0.45955   0.31958   0.00000  Uiso   1.00
H372   H     0.36579   0.43425   0.33316   0.00000  Uiso   1.00
O373   O     0.61851   0.54045   0.18042   0.00000  Uiso   1.00
H374   H     0.63421   0.56575   0.16684   0.00000  Uiso   1.00
O375   O     0.62552   0.46625   0.32309   0.00000  Uiso   1.00
H376   H     0.64360   0.46971   0.35024   0.00000  Uiso   1.00
O377   O     0.37448   0.53375   0.17690   0.00000  Uiso   1.00
H378   H     0.35640   0.53029   0.14976   0.00000  Uiso   1.00
C379   C     0.44569   0.38441   0.19018   0.00000  Uiso   1.00
H380   H     0.45556   0.39915   0.15922   0.00000  Uiso   1.00
O381   O     0.40910   0.38640   0.19881   0.00000  Uiso   1.00
C382   C     0.55431   0.61559   0.30982   0.00000  Uiso   1.00
H383   H     0.54444   0.60085   0.34078   0.00000  Uiso   1.00
O384   O     0.59090   0.61360   0.30118   0.00000  Uiso   1.00
C385   C     0.54778   0.38077   0.31697   0.00000  Uiso   1.00
H386   H     0.56467   0.41168   0.31079   0.00000  Uiso   1.00
O387   O     0.54854   0.36560   0.35498   0.00000  Uiso   1.00
C388   C     0.45222   0.61923   0.18303   0.00000  Uiso   1.00
H389   H     0.43533   0.58833   0.18921   0.00000  Uiso   1.00
O390   O     0.45147   0.63440   0.14501   0.00000  Uiso   1.00
C391   C     0.75426   0.50020   0.24978   0.00000  Uiso   1.00
C392   C     0.91241   0.49980   0.25021   0.00000  Uiso   1.00
C393   C     0.78465   0.56484   0.02297   0.00000  Uiso   1.00
C394   C     0.88198   0.43514   0.47703   0.00000  Uiso   1.00
C395   C     0.69026   0.48006   0.28604   0.00000  Uiso   1.00
C396   C     0.97641   0.51994   0.21396   0.00000  Uiso   1.00
C397   C     0.97997   0.48085   0.28663   0.00000  Uiso   1.00
C398   C     0.68670   0.51915   0.21337   0.00000  Uiso   1.00
C399   C     0.95712   0.49942   0.24991   0.00000  Uiso   1.00
C400   C     0.70955   0.50058   0.25009   0.00000  Uiso   1.00
C401   C     0.80882   0.35887   0.21998   0.00000  Uiso   1.00
C402   C     0.85785   0.64113   0.28002   0.00000  Uiso   1.00
C403   C     0.85711   0.35726   0.28091   0.00000  Uiso   1.00
C404   C     0.80955   0.64274   0.21909   0.00000  Uiso   1.00
C405   C     0.83401   0.50012   0.16465   0.00000  Uiso   1.00
C406   C     0.83265   0.49988   0.33535   0.00000  Uiso   1.00
C407   C     0.85737   0.47017   0.40765   0.00000  Uiso   1.00
C408   C     0.80929   0.52982   0.09235   0.00000  Uiso   1.00
C409   C     0.83072   0.49976   0.38355   0.00000  Uiso   1.00
C410   C     0.83594   0.50024   0.11645   0.00000  Uiso   1.00
C411   C     0.80340   0.52951   0.40526   0.00000  Uiso   1.00
C412   C     0.86325   0.47049   0.09474   0.00000  Uiso   1.00
C413   C     0.80646   0.53274   0.45234   0.00000  Uiso   1.00
C414   C     0.86018   0.46725   0.04765   0.00000  Uiso   1.00
C415   C     0.83280   0.50052   0.47660   0.00000  Uiso   1.00
C416   C     0.83385   0.49947   0.02340   0.00000  Uiso   1.00
C417   C     0.85771   0.46880   0.45389   0.00000  Uiso   1.00
C418   C     0.80894   0.53119   0.04611   0.00000  Uiso   1.00
C419   C     0.78299   0.56576   0.47599   0.00000  Uiso   1.00
C420   C     0.88364   0.43422   0.02401   0.00000  Uiso   1.00
Cu421  Cu    0.83333   0.54689   0.25000   0.00000  Uiso   1.00
Cu422  Cu    0.83333   0.45311   0.25000   0.00000  Uiso   1.00
H423   H     0.87807   0.44810   0.38976   0.00000  Uiso   1.00
H424   H     0.78858   0.55189   0.11024   0.00000  Uiso   1.00
N425   N     0.83333   0.61736   0.25000   0.00000  Uiso   1.00
N426   N     0.83333   0.38264   0.25000   0.00000  Uiso   1.00
O427   O     0.77321   0.53958   0.24999   0.00000  Uiso   1.00
O428   O     0.89345   0.46042   0.25000   0.00000  Uiso   1.00
O429   O     0.89345   0.53958   0.25000   0.00000  Uiso   1.00
O430   O     0.77321   0.46042   0.24999   0.00000  Uiso   1.00
O431   O     0.83332   0.53960   0.18513   0.00000  Uiso   1.00
O432   O     0.83334   0.46040   0.31487   0.00000  Uiso   1.00
O433   O     0.83334   0.53960   0.31487   0.00000  Uiso   1.00
O434   O     0.83332   0.46040   0.18513   0.00000  Uiso   1.00
O435   O     0.77256   0.55368   0.38131   0.00000  Uiso   1.00
H436   H     0.76539   0.53740   0.35327   0.00000  Uiso   1.00
O437   O     0.89411   0.44633   0.11868   0.00000  Uiso   1.00
H438   H     0.90127   0.46261   0.14672   0.00000  Uiso   1.00
C439   C     0.75748   0.60223   0.45258   0.00000  Uiso   1.00
H440   H     0.77077   0.62324   0.42689   0.00000  Uiso   1.00
O441   O     0.72134   0.60872   0.46162   0.00000  Uiso   1.00
C442   C     0.90912   0.39772   0.04742   0.00000  Uiso   1.00
H443   H     0.89583   0.37675   0.07314   0.00000  Uiso   1.00
O444   O     0.94525   0.39117   0.03836   0.00000  Uiso   1.00
O445   O     0.76357   0.59712   0.04745   0.00000  Uiso   1.00
H446   H     0.76251   0.62707   0.03130   0.00000  Uiso   1.00
O447   O     0.90305   0.40285   0.45255   0.00000  Uiso   1.00
H448   H     0.90406   0.37289   0.46869   0.00000  Uiso   1.00
O449   O     0.71482   0.45955   0.31958   0.00000  Uiso   1.00
H450   H     0.69913   0.43425   0.33316   0.00000  Uiso   1.00
O451   O     0.95184   0.54045   0.18042   0.00000  Uiso   1.00
H452   H     0.96754   0.56575   0.16684   0.00000  Uiso   1.00
O453   O     0.95886   0.46625   0.32309   0.00000  Uiso   1.00
H454   H     0.97694   0.46971   0.35024   0.00000  Uiso   1.00
O455   O     0.70781   0.53375   0.17690   0.00000  Uiso   1.00
H456   H     0.68973   0.53029   0.14976   0.00000  Uiso   1.00
C457   C     0.77903   0.38441   0.19018   0.00000  Uiso   1.00
H458   H     0.78889   0.39915   0.15922   0.00000  Uiso   1.00
O459   O     0.74243   0.38640   0.19881   0.00000  Uiso   1.00
C460   C     0.88764   0.61559   0.30982   0.00000  Uiso   1.00
H461   H     0.87778   0.60085   0.34078   0.00000  Uiso   1.00
O462   O     0.92423   0.61360   0.30118   0.00000  Uiso   1.00
C463   C     0.88111   0.38077   0.31697   0.00000  Uiso   1.00
H464   H     0.89800   0.41168   0.31079   0.00000  Uiso   1.00
O465   O     0.88187   0.36560   0.35498   0.00000  Uiso   1.00
C466   C     0.78555   0.61923   0.18303   0.00000  Uiso   1.00
H467   H     0.76866   0.58833   0.18921   0.00000  Uiso   1.00
O468   O     0.78480   0.63440   0.14501   0.00000  Uiso   1.00
C469   C     0.08759   0.83353   0.24978   0.00000  Uiso   1.00
C470   C     0.24574   0.83314   0.25021   0.00000  Uiso   1.00
C471   C     0.11799   0.89817   0.02297   0.00000  Uiso   1.00
C472   C     0.21531   0.76847   0.47703   0.00000  Uiso   1.00
C473   C     0.02359   0.81339   0.28604   0.00000  Uiso   1.00
C474   C     0.30974   0.85328   0.21396   0.00000  Uiso   1.00
C475   C     0.31330   0.81418   0.28663   0.00000  Uiso   1.00
C476   C     0.02003   0.85248   0.21337   0.00000  Uiso   1.00
C477   C     0.29045   0.83275   0.24991   0.00000  Uiso   1.00
C478   C     0.04289   0.83392   0.25009   0.00000  Uiso   1.00
C479   C     0.14215   0.69220   0.21998   0.00000  Uiso   1.00
C480   C     0.19118   0.97447   0.28002   0.00000  Uiso   1.00
C481   C     0.19045   0.69059   0.28091   0.00000  Uiso   1.00
C482   C     0.14289   0.97607   0.21909   0.00000  Uiso   1.00
C483   C     0.16735   0.83345   0.16465   0.00000  Uiso   1.00
C484   C     0.16599   0.83321   0.33535   0.00000  Uiso   1.00
C485   C     0.19070   0.80350   0.40765   0.00000  Uiso   1.00
C486   C     0.14262   0.86316   0.09235   0.00000  Uiso   1.00
C487   C     0.16406   0.83310   0.38355   0.00000  Uiso   1.00
C488   C     0.16927   0.83357   0.11645   0.00000  Uiso   1.00
C489   C     0.13674   0.86284   0.40526   0.00000  Uiso   1.00
C490   C     0.19659   0.80382   0.09474   0.00000  Uiso   1.00
C491   C     0.13980   0.86607   0.45234   0.00000  Uiso   1.00
C492   C     0.19351   0.80058   0.04765   0.00000  Uiso   1.00
C493   C     0.16613   0.83386   0.47660   0.00000  Uiso   1.00
C494   C     0.16718   0.83280   0.02340   0.00000  Uiso   1.00
C495   C     0.19104   0.80213   0.45389   0.00000  Uiso   1.00
C496   C     0.14227   0.86452   0.04611   0.00000  Uiso   1.00
C497   C     0.11632   0.89909   0.47599   0.00000  Uiso   1.00
C498   C     0.21697   0.76755   0.02401   0.00000  Uiso   1.00
Cu499  Cu    0.16667   0.88022   0.25000   0.00000  Uiso   1.00
Cu500  Cu    0.16667   0.78645   0.25000   0.00000  Uiso   1.00
H501   H     0.21140   0.78144   0.38976   0.00000  Uiso   1.00
H502   H     0.12192   0.88522   0.11024   0.00000  Uiso   1.00
N503   N     0.16667   0.95069   0.25000   0.00000  Uiso   1.00
N504   N     0.16667   0.71598   0.25000   0.00000  Uiso   1.00
O505   O     0.10655   0.87291   0.24999   0.00000  Uiso   1.00
O506   O     0.22679   0.79375   0.25000   0.00000  Uiso   1.00
O507   O     0.22679   0.87291   0.25000   0.00000  Uiso   1.00
O508   O     0.10655   0.79375   0.24999   0.00000  Uiso   1.00
O509   O     0.16666   0.87293   0.18513   0.00000  Uiso   1.00
O510   O     0.16668   0.79373   0.31487   0.00000  Uiso   1.00
O511   O     0.16668   0.87293   0.31487   0.00000  Uiso   1.00
O512   O     0.16666   0.79373   0.18513   0.00000  Uiso   1.00
O513   O     0.10589   0.88701   0.38131   0.00000  Uiso   1.00
H514   H     0.09873   0.87073   0.35327   0.00000  Uiso   1.00
O515   O     0.22745   0.77967   0.11868   0.00000  Uiso   1.00
H516   H     0.23461   0.79594   0.14672   0.00000  Uiso   1.00
C517   C     0.09081   0.93556   0.45258   0.00000  Uiso   1.00
H518   H     0.10410   0.95658   0.42689   0.00000  Uiso   1.00
O519   O     0.05467   0.94206   0.46162   0.00000  Uiso   1.00
C520   C     0.24246   0.73106   0.04742   0.00000  Uiso   1.00
H521   H     0.22916   0.71008   0.07314   0.00000  Uiso   1.00
O522   O     0.27858   0.72450   0.03836   0.00000  Uiso   1.00
O523   O     0.09691   0.93046   0.04745   0.00000  Uiso   1.00
H524   H     0.09584   0.96040   0.03130   0.00000  Uiso   1.00
O525   O     0.23638   0.73618   0.45255   0.00000  Uiso   1.00
H526   H     0.23740   0.70623   0.46869   0.00000  Uiso   1.00
O527   O     0.04816   0.79288   0.31958   0.00000  Uiso   1.00
H528   H     0.03246   0.76758   0.33316   0.00000  Uiso   1.00
O529   O     0.28518   0.87379   0.18042   0.00000  Uiso   1.00
H530   H     0.30087   0.89908   0.16684   0.00000  Uiso   1.00
O531   O     0.29219   0.79958   0.32309   0.00000  Uiso   1.00
H532   H     0.31027   0.80305   0.35024   0.00000  Uiso   1.00
O533   O     0.04114   0.86708   0.17690   0.00000  Uiso   1.00
H534   H     0.02306   0.86362   0.14976   0.00000  Uiso   1.00
C535   C     0.11236   0.71774   0.19018   0.00000  Uiso   1.00
H536   H     0.12223   0.73248   0.15922   0.00000  Uiso   1.00
O537   O     0.07577   0.71974   0.19881   0.00000  Uiso   1.00
C538   C     0.22098   0.94892   0.30982   0.00000  Uiso   1.00
H539   H     0.21111   0.93418   0.34078   0.00000  Uiso   1.00
O540   O     0.25757   0.94693   0.30118   0.00000  Uiso   1.00
C541   C     0.21445   0.71410   0.31697   0.00000  Uiso   1.00
H542   H     0.23134   0.74501   0.31079   0.00000  Uiso   1.00
O543   O     0.21520   0.69893   0.35498   0.00000  Uiso   1.00
C544   C     0.11889   0.95256   0.18303   0.00000  Uiso   1.00
H545   H     0.10200   0.92166   0.18921   0.00000  Uiso   1.00
O546   O     0.11814   0.96773   0.14501   0.00000  Uiso   1.00
C547   C     0.42092   0.83353   0.24978   0.00000  Uiso   1.00
C548   C     0.57908   0.83314   0.25021   0.00000  Uiso   1.00
C549   C     0.45132   0.89817   0.02297   0.00000  Uiso   1.00
C550   C     0.54865   0.76847   0.47703   0.00000  Uiso   1.00
C551   C     0.35693   0.81339   0.28604   0.00000  Uiso   1.00
C552   C     0.64308   0.85328   0.21396   0.00000  Uiso   1.00
C553   C     0.64664   0.81418   0.28663   0.00000  Uiso   1.00
C554   C     0.35336   0.85248   0.21337   0.00000  Uiso   1.00
C555   C     0.62378   0.83275   0.24991   0.00000  Uiso   1.00
C556   C     0.37622   0.83392   0.25009   0.00000  Uiso   1.00
C557   C     0.47549   0.69220   0.21998   0.00000  Uiso   1.00
C558   C     0.52451   0.97447   0.28002   0.00000  Uiso   1.00
C559   C     0.52378   0.69059   0.28091   0.00000  Uiso   1.00
C560   C     0.47622   0.97607   0.21909   0.00000  Uiso   1.00
C561   C     0.50068   0.83345   0.16465   0.00000  Uiso   1.00
C562   C     0.49932   0.83321   0.33535   0.00000  Uiso   1.00
C563   C     0.52403   0.80350   0.40765   0.00000  Uiso   1.00
C564   C     0.47595   0.86316   0.09235   0.00000  Uiso   1.00
C565   C     0.49739   0.83310   0.38355   0.00000  Uiso   1.00
C566   C     0.50260   0.83357   0.11645   0.00000  Uiso   1.00
C567   C     0.47007   0.86284   0.40526   0.00000  Uiso   1.00
C568   C     0.52992   0.80382   0.09474   0.00000  Uiso   1.00
C569   C     0.47313   0.86607   0.45234   0.00000  Uiso   1.00
C570   C     0.52685   0.80058   0.04765   0.00000  Uiso   1.00
C571   C     0.49947   0.83386   0.47660   0.00000  Uiso   1.00
C572   C     0.50051   0.83280   0.02340   0.00000  Uiso   1.00
C573   C     0.52437   0.80213   0.45389   0.00000  Uiso   1.00
C574   C     0.47561   0.86452   0.04611   0.00000  Uiso   1.00
C575   C     0.44966   0.89909   0.47599   0.00000  Uiso   1.00
C576   C     0.55031   0.76755   0.02401   0.00000  Uiso   1.00
Cu577  Cu    0.50000   0.88022   0.25000   0.00000  Uiso   1.00
Cu578  Cu    0.50000   0.78645   0.25000   0.00000  Uiso   1.00
H579   H     0.54474   0.78144   0.38976   0.00000  Uiso   1.00
H580   H     0.45525   0.88522   0.11024   0.00000  Uiso   1.00
N581   N     0.50000   0.95069   0.25000   0.00000  Uiso   1.00
N582   N     0.50000   0.71598   0.25000   0.00000  Uiso   1.00
O583   O     0.43988   0.87291   0.24999   0.00000  Uiso   1.00
O584   O     0.56012   0.79375   0.25000   0.00000  Uiso   1.00
O585   O     0.56012   0.87291   0.25000   0.00000  Uiso   1.00
O586   O     0.43988   0.79375   0.24999   0.00000  Uiso   1.00
O587   O     0.49999   0.87293   0.18513   0.00000  Uiso   1.00
O588   O     0.50001   0.79373   0.31487   0.00000  Uiso   1.00
O589   O     0.50001   0.87293   0.31487   0.00000  Uiso   1.00
O590   O     0.49999   0.79373   0.18513   0.00000  Uiso   1.00
O591   O     0.43922   0.88701   0.38131   0.00000  Uiso   1.00
H592   H     0.43206   0.87073   0.35327   0.00000  Uiso   1.00
O593   O     0.56078   0.77967   0.11868   0.00000  Uiso   1.00
H594   H     0.56794   0.79594   0.14672   0.00000  Uiso   1.00
C595   C     0.42415   0.93556   0.45258   0.00000  Uiso   1.00
H596   H     0.43744   0.95658   0.42689   0.00000  Uiso   1.00
O597   O     0.38801   0.94206   0.46162   0.00000  Uiso   1.00
C598   C     0.57579   0.73106   0.04742   0.00000  Uiso   1.00
H599   H     0.56249   0.71008   0.07314   0.00000  Uiso   1.00
O600   O     0.61192   0.72450   0.03836   0.00000  Uiso   1.00
O601   O     0.43024   0.93046   0.04745   0.00000  Uiso   1.00
H602   H     0.42918   0.96040   0.03130   0.00000  Uiso   1.00
O603   O     0.56972   0.73618   0.45255   0.00000  Uiso   1.00
H604   H     0.57073   0.70623   0.46869   0.00000  Uiso   1.00
O605   O     0.38149   0.79288   0.31958   0.00000  Uiso   1.00
H606   H     0.36579   0.76758   0.33316   0.00000  Uiso   1.00
O607   O     0.61851   0.87379   0.18042   0.00000  Uiso   1.00
H608   H     0.63421   0.89908   0.16684   0.00000  Uiso   1.00
O609   O     0.62552   0.79958   0.32309   0.00000  Uiso   1.00
H610   H     0.64360   0.80305   0.35024   0.00000  Uiso   1.00
O611   O     0.37448   0.86708   0.17690   0.00000  Uiso   1.00
H612   H     0.35640   0.86362   0.14976   0.00000  Uiso   1.00
C613   C     0.44569   0.71774   0.19018   0.00000  Uiso   1.00
H614   H     0.45556   0.73248   0.15922   0.00000  Uiso   1.00
O615   O     0.40910   0.71974   0.19881   0.00000  Uiso   1.00
C616   C     0.55431   0.94892   0.30982   0.00000  Uiso   1.00
H617   H     0.54444   0.93418   0.34078   0.00000  Uiso   1.00
O618   O     0.59090   0.94693   0.30118   0.00000  Uiso   1.00
C619   C     0.54778   0.71410   0.31697   0.00000  Uiso   1.00
H620   H     0.56467   0.74501   0.31079   0.00000  Uiso   1.00
O621   O     0.54854   0.69893   0.35498   0.00000  Uiso   1.00
C622   C     0.45222   0.95256   0.18303   0.00000  Uiso   1.00
H623   H     0.43533   0.92166   0.18921   0.00000  Uiso   1.00
O624   O     0.45147   0.96773   0.14501   0.00000  Uiso   1.00
C625   C     0.75426   0.83353   0.24978   0.00000  Uiso   1.00
C626   C     0.91241   0.83314   0.25021   0.00000  Uiso   1.00
C627   C     0.78465   0.89817   0.02297   0.00000  Uiso   1.00
C628   C     0.88198   0.76847   0.47703   0.00000  Uiso   1.00
C629   C     0.69026   0.81339   0.28604   0.00000  Uiso   1.00
C630   C     0.97641   0.85328   0.21396   0.00000  Uiso   1.00
C631   C     0.97997   0.81418   0.28663   0.00000  Uiso   1.00
C632   C     0.68670   0.85248   0.21337   0.00000  Uiso   1.00
C633   C     0.95712   0.83275   0.24991   0.00000  Uiso   1.00
C634   C     0.70955   0.83392   0.25009   0.00000  Uiso   1.00
C635   C     0.80882   0.69220   0.21998   0.00000  Uiso   1.00
C636   C     0.85785   0.97447   0.28002   0.00000  Uiso   1.00
C637   C     0.85711   0.69059   0.28091   0.00000  Uiso   1.00
C638   C     0.80955   0.97607   0.21909   0.00000  Uiso   1.00
C639   C     0.83401   0.83345   0.16465   0.00000  Uiso   1.00
C640   C     0.83265   0.83321   0.33535   0.00000  Uiso   1.00
C641   C     0.85737   0.80350   0.40765   0.00000  Uiso   1.00
C642   C     0.80929   0.86316   0.09235   0.00000  Uiso   1.00
C643   C     0.83072   0.83310   0.38355   0.00000  Uiso   1.00
C644   C     0.83594   0.83357   0.11645   0.00000  Uiso   1.00
C645   C     0.80340   0.86284   0.40526   0.00000  Uiso   1.00
C646   C     0.86325   0.80382   0.09474   0.00000  Uiso   1.00
C647   C     0.80646   0.86607   0.45234   0.00000  Uiso   1.00
C648   C     0.86018   0.80058   0.04765   0.00000  Uiso   1.00
C649   C     0.83280   0.83386   0.47660   0.00000  Uiso   1.00
C650   C     0.83385   0.83280   0.02340   0.00000  Uiso   1.00
C651   C     0.85771   0.80213   0.45389   0.00000  Uiso   1.00
C652   C     0.80894   0.86452   0.04611   0.00000  Uiso   1.00
C653   C     0.78299   0.89909   0.47599   0.00000  Uiso   1.00
C654   C     0.88364   0.76755   0.02401   0.00000  Uiso   1.00
Cu655  Cu    0.83333   0.88022   0.25000   0.00000  Uiso   1.00
Cu656  Cu    0.83333   0.78645   0.25000   0.00000  Uiso   1.00
H657   H     0.87807   0.78144   0.38976   0.00000  Uiso   1.00
H658   H     0.78858   0.88522   0.11024   0.00000  Uiso   1.00
N659   N     0.83333   0.95069   0.25000   0.00000  Uiso   1.00
N660   N     0.83333   0.71598   0.25000   0.00000  Uiso   1.00
O661   O     0.77321   0.87291   0.24999   0.00000  Uiso   1.00
O662   O     0.89345   0.79375   0.25000   0.00000  Uiso   1.00
O663   O     0.89345   0.87291   0.25000   0.00000  Uiso   1.00
O664   O     0.77321   0.79375   0.24999   0.00000  Uiso   1.00
O665   O     0.83332   0.87293   0.18513   0.00000  Uiso   1.00
O666   O     0.83334   0.79373   0.31487   0.00000  Uiso   1.00
O667   O     0.83334   0.87293   0.31487   0.00000  Uiso   1.00
O668   O     0.83332   0.79373   0.18513   0.00000  Uiso   1.00
O669   O     0.77256   0.88701   0.38131   0.00000  Uiso   1.00
H670   H     0.76539   0.87073   0.35327   0.00000  Uiso   1.00
O671   O     0.89411   0.77967   0.11868   0.00000  Uiso   1.00
H672   H     0.90127   0.79594   0.14672   0.00000  Uiso   1.00
C673   C     0.75748   0.93556   0.45258   0.00000  Uiso   1.00
H674   H     0.77077   0.95658   0.42689   0.00000  Uiso   1.00
O675   O     0.72134   0.94206   0.46162   0.00000  Uiso   1.00
C676   C     0.90912   0.73106   0.04742   0.00000  Uiso   1.00
H677   H     0.89583   0.71008   0.07314   0.00000  Uiso   1.00
O678   O     0.94525   0.72450   0.03836   0.00000  Uiso   1.00
O679   O     0.76357   0.93046   0.04745   0.00000  Uiso   1.00
H680   H     0.76251   0.96040   0.03130   0.00000  Uiso   1.00
O681   O     0.90305   0.73618   0.45255   0.00000  Uiso   1.00
H682   H     0.90406   0.70623   0.46869   0.00000  Uiso   1.00
O683   O     0.71482   0.79288   0.31958   0.00000  Uiso   1.00
H684   H     0.69913   0.76758   0.33316   0.00000  Uiso   1.00
O685   O     0.95184   0.87379   0.18042   0.00000  Uiso   1.00
H686   H     0.96754   0.89908   0.16684   0.00000  Uiso   1.00
O687   O     0.95886   0.79958   0.32309   0.00000  Uiso   1.00
H688   H     0.97694   0.80305   0.35024   0.00000  Uiso   1.00
O689   O     0.70781   0.86708   0.17690   0.00000  Uiso   1.00
H690   H     0.68973   0.86362   0.14976   0.00000  Uiso   1.00
C691   C     0.77903   0.71774   0.19018   0.00000  Uiso   1.00
H692   H     0.78889   0.73248   0.15922   0.00000  Uiso   1.00
O693   O     0.74243   0.71974   0.19881   0.00000  Uiso   1.00
C694   C     0.88764   0.94892   0.30982   0.00000  Uiso   1.00
H695   H     0.87778   0.93418   0.34078   0.00000  Uiso   1.00
O696   O     0.92423   0.94693   0.30118   0.00000  Uiso   1.00
C697   C     0.88111   0.71410   0.31697   0.00000  Uiso   1.00
H698   H     0.89800   0.74501   0.31079   0.00000  Uiso   1.00
O699   O     0.88187   0.69893   0.35498   0.00000  Uiso   1.00
C700   C     0.78555   0.95256   0.18303   0.00000  Uiso   1.00
H701   H     0.76866   0.92166   0.18921   0.00000  Uiso   1.00
O702   O     0.78480   0.96773   0.14501   0.00000  Uiso   1.00
C703   C     0.08759   0.16686   0.74978   0.00000  Uiso   1.00
C704   C     0.24574   0.16647   0.75021   0.00000  Uiso   1.00
C705   C     0.11799   0.23151   0.52297   0.00000  Uiso   1.00
C706   C     0.21531   0.10181   0.97703   0.00000  Uiso   1.00
C707   C     0.02359   0.14672   0.78604   0.00000  Uiso   1.00
C708   C     0.30974   0.18661   0.71396   0.00000  Uiso   1.00
C709   C     0.31330   0.14751   0.78663   0.00000  Uiso   1.00
C710   C     0.02003   0.18582   0.71337   0.00000  Uiso   1.00
C711   C     0.29045   0.16608   0.74991   0.00000  Uiso   1.00
C712   C     0.04289   0.16725   0.75009   0.00000  Uiso   1.00
C713   C     0.14215   0.02553   0.71998   0.00000  Uiso   1.00
C714   C     0.19118   0.30780   0.78002   0.00000  Uiso   1.00
C715   C     0.19045   0.02393   0.78091   0.00000  Uiso   1.00
C716   C     0.14289   0.30941   0.71909   0.00000  Uiso   1.00
C717   C     0.16735   0.16679   0.66465   0.00000  Uiso   1.00
C718   C     0.16599   0.16655   0.83535   0.00000  Uiso   1.00
C719   C     0.19070   0.13684   0.90765   0.00000  Uiso   1.00
C720   C     0.14262   0.19649   0.59235   0.00000  Uiso   1.00
C721   C     0.16406   0.16643   0.88355   0.00000  Uiso   1.00
C722   C     0.16927   0.16690   0.61645   0.00000  Uiso   1.00
C723   C     0.13674   0.19618   0.90526   0.00000  Uiso   1.00
C724   C     0.19659   0.13715   0.59474   0.00000  Uiso   1.00
C725   C     0.13980   0.19941   0.95234   0.00000  Uiso   1.00
C726   C     0.19351   0.13392   0.54765   0.00000  Uiso   1.00
C727   C     0.16613   0.16719   0.97660   0.00000  Uiso   1.00
C728   C     0.16718   0.16613   0.52340   0.00000  Uiso   1.00
C729   C     0.19104   0.13547   0.95389   0.00000  Uiso   1.00
C730   C     0.14227   0.19785   0.54611   0.00000  Uiso   1.00
C731   C     0.11632   0.23243   0.97599   0.00000  Uiso   1.00
C732   C     0.21697   0.10088   0.52401   0.00000  Uiso   1.00
Cu733  Cu    0.16667   0.21355   0.75000   0.00000  Uiso   1.00
Cu734  Cu    0.16667   0.11978   0.75000   0.00000  Uiso   1.00
H735   H     0.21140   0.11477   0.88976   0.00000  Uiso   1.00
H736   H     0.12192   0.21855   0.61024   0.00000  Uiso   1.00
N737   N     0.16667   0.28402   0.75000   0.00000  Uiso   1.00
N738   N     0.16667   0.04931   0.75000   0.00000  Uiso   1.00
O739   O     0.10655   0.20625   0.74999   0.00000  Uiso   1.00
O740   O     0.22679   0.12709   0.75000   0.00000  Uiso   1.00
O741   O     0.22679   0.20625   0.75000   0.00000  Uiso   1.00
O742   O     0.10655   0.12709   0.74999   0.00000  Uiso   1.00
O743   O     0.16666   0.20627   0.68513   0.00000  Uiso   1.00
O744   O     0.16668   0.12707   0.81487   0.00000  Uiso   1.00
O745   O     0.16668   0.20627   0.81487   0.00000  Uiso   1.00
O746   O     0.16666   0.12707   0.68513   0.00000  Uiso   1.00
O747   O     0.10589   0.22034   0.88131   0.00000  Uiso   1.00
H748   H     0.09873   0.20407   0.85327   0.00000  Uiso   1.00
O749   O     0.22745   0.11300   0.61868   0.00000  Uiso   1.00
H750   H     0.23461   0.12928   0.64672   0.00000  Uiso   1.00
C751   C     0.09081   0.26890   0.95258   0.00000  Uiso   1.00
H752   H     0.10410   0.28991   0.92689   0.00000  Uiso   1.00
O753   O     0.05467   0.27539   0.96162   0.00000  Uiso   1.00
C754   C     0.24246   0.06439   0.54742   0.00000  Uiso   1.00
H755   H     0.22916   0.04341   0.57314   0.00000  Uiso   1.00
O756   O     0.27858   0.05784   0.53836   0.00000  Uiso   1.00
O757   O     0.09691   0.26379   0.54745   0.00000  Uiso   1.00
H758   H     0.09584   0.29373   0.53130   0.00000  Uiso   1.00
O759   O     0.23638   0.06951   0.95255   0.00000  Uiso   1.00
H760   H     0.23740   0.03956   0.96869   0.00000  Uiso   1.00
O761   O     0.04816   0.12621   0.81958   0.00000  Uiso   1.00
H762   H     0.03246   0.10092   0.83316   0.00000  Uiso   1.00
O763   O     0.28518   0.20712   0.68042   0.00000  Uiso   1.00
H764   H     0.30087   0.23242   0.66684   0.00000  Uiso   1.00
O765   O     0.29219   0.13292   0.82309   0.00000  Uiso   1.00
H766   H     0.31027   0.13638   0.85024   0.00000  Uiso   1.00
O767   O     0.04114   0.20042   0.67690   0.00000  Uiso   1.00
H768   H     0.02306   0.19695   0.64976   0.00000  Uiso   1.00
C769   C     0.11236   0.05108   0.69018   0.00000  Uiso   1.00
H770   H     0.12223   0.06581   0.65922   0.00000  Uiso   1.00
O771   O     0.07577   0.05307   0.69881   0.00000  Uiso   1.00
C772   C     0.22098   0.28226   0.80982   0.00000  Uiso   1.00
H773   H     0.21111   0.26752   0.84078   0.00000  Uiso   1.00
O774   O     0.25757   0.28027   0.80118   0.00000  Uiso   1.00
C775   C     0.21445   0.04744   0.81697   0.00000  Uiso   1.00
H776   H     0.23134   0.07834   0.81079   0.00000  Uiso   1.00
O777   O     0.21520   0.03227   0.85498   0.00000  Uiso   1.00
C778   C     0.11889   0.28589   0.68303   0.00000  Uiso   1.00
H779   H     0.10200   0.25499   0.68921   0.00000  Uiso   1.00
O780   O     0.11814   0.30106   0.64501   0.00000  Uiso   1.00
C781   C     0.42092   0.16686   0.74978   0.00000  Uiso   1.00
C782   C     0.57908   0.16647   0.75021   0.00000  Uiso   1.00
C783   C     0.45132   0.23151   0.52297   0.00000  Uiso   1.00
C784   C     0.54865   0.10181   0.97703   0.00000  Uiso   1.00
C785   C     0.35693   0.14672   0.78604   0.00000  Uiso   1.00
C786   C     0.64308   0.18661   0.71396   0.00000  Uiso   1.00
C787   C     0.64664   0.14751   0.78663   0.00000  Uiso   1.00
C788   C     0.35336   0.18582   0.71337   0.00000  Uiso   1.00
C789   C     0.62378   0.16608   0.74991   0.00000  Uiso   1.00
C790   C     0.37622   0.16725   0.75009   0.00000  Uiso   1.00
C791   C     0.47549   0.02553   0.71998   0.00000  Uiso   1.00
C792   C     0.52451   0.30780   0.78002   0.00000  Uiso   1.00
C793   C     0.52378   0.02393   0.78091   0.00000  Uiso   1.00
C794   C     0.47622   0.30941   0.71909   0.00000  Uiso   1.00
C795   C     0.50068   0.16679   0.66465   0.00000  Uiso   1.00
C796   C     0.49932   0.16655   0.83535   0.00000  Uiso   1.00
C797   C     0.52403   0.13684   0.90765   0.00000  Uiso   1.00
C798   C     0.47595   0.19649   0.59235   0.00000  Uiso   1.00
C799   C     0.49739   0.16643   0.88355   0.00000  Uiso   1.00
C800   C     0.50260   0.16690   0.61645   0.00000  Uiso   1.00
C801   C     0.47007   0.19618   0.90526   0.00000  Uiso   1.00
C802   C     0.52992   0.13715   0.59474   0.00000  Uiso   1.00
C803   C     0.47313   0.19941   0.95234   0.00000  Uiso   1.00
C804   C     0.52685   0.13392   0.54765   0.00000  Uiso   1.00
C805   C     0.49947   0.16719   0.97660   0.00000  Uiso   1.00
C806   C     0.50051   0.16613   0.52340   0.00000  Uiso   1.00
C807   C     0.52437   0.13547   0.95389   0.00000  Uiso   1.00
C808   C     0.47561   0.19785   0.54611   0.00000  Uiso   1.00
C809   C     0.44966   0.23243   0.97599   0.00000  Uiso   1.00
C810   C     0.55031   0.10088   0.52401   0.00000  Uiso   1.00
Cu811  Cu    0.50000   0.21355   0.75000   0.00000  Uiso   1.00
Cu812  Cu    0.50000   0.11978   0.75000   0.00000  Uiso   1.00
H813   H     0.54474   0.11477   0.88976   0.00000  Uiso   1.00
H814   H     0.45525   0.21855   0.61024   0.00000  Uiso   1.00
N815   N     0.50000   0.28402   0.75000   0.00000  Uiso   1.00
N816   N     0.50000   0.04931   0.75000   0.00000  Uiso   1.00
O817   O     0.43988   0.20625   0.74999   0.00000  Uiso   1.00
O818   O     0.56012   0.12709   0.75000   0.00000  Uiso   1.00
O819   O     0.56012   0.20625   0.75000   0.00000  Uiso   1.00
O820   O     0.43988   0.12709   0.74999   0.00000  Uiso   1.00
O821   O     0.49999   0.20627   0.68513   0.00000  Uiso   1.00
O822   O     0.50001   0.12707   0.81487   0.00000  Uiso   1.00
O823   O     0.50001   0.20627   0.81487   0.00000  Uiso   1.00
O824   O     0.49999   0.12707   0.68513   0.00000  Uiso   1.00
O825   O     0.43922   0.22034   0.88131   0.00000  Uiso   1.00
H826   H     0.43206   0.20407   0.85327   0.00000  Uiso   1.00
O827   O     0.56078   0.11300   0.61868   0.00000  Uiso   1.00
H828   H     0.56794   0.12928   0.64672   0.00000  Uiso   1.00
C829   C     0.42415   0.26890   0.95258   0.00000  Uiso   1.00
H830   H     0.43744   0.28991   0.92689   0.00000  Uiso   1.00
O831   O     0.38801   0.27539   0.96162   0.00000  Uiso   1.00
C832   C     0.57579   0.06439   0.54742   0.00000  Uiso   1.00
H833   H     0.56249   0.04341   0.57314   0.00000  Uiso   1.00
O834   O     0.61192   0.05784   0.53836   0.00000  Uiso   1.00
O835   O     0.43024   0.26379   0.54745   0.00000  Uiso   1.00
H836   H     0.42918   0.29373   0.53130   0.00000  Uiso   1.00
O837   O     0.56972   0.06951   0.95255   0.00000  Uiso   1.00
H838   H     0.57073   0.03956   0.96869   0.00000  Uiso   1.00
O839   O     0.38149   0.12621   0.81958   0.00000  Uiso   1.00
H840   H     0.36579   0.10092   0.83316   0.00000  Uiso   1.00
O841   O     0.61851   0.20712   0.68042   0.00000  Uiso   1.00
H842   H     0.63421   0.23242   0.66684   0.00000  Uiso   1.00
O843   O     0.62552   0.13292   0.82309   0.00000  Uiso   1.00
H844   H     0.64360   0.13638   0.85024   0.00000  Uiso   1.00
O845   O     0.37448   0.20042   0.67690   0.00000  Uiso   1.00
H846   H     0.35640   0.19695   0.64976   0.00000  Uiso   1.00
C847   C     0.44569   0.05108   0.69018   0.00000  Uiso   1.00
H848   H     0.45556   0.06581   0.65922   0.00000  Uiso   1.00
O849   O     0.40910   0.05307   0.69881   0.00000  Uiso   1.00
C850   C     0.55431   0.28226   0.80982   0.00000  Uiso   1.00
H851   H     0.54444   0.26752   0.84078   0.00000  Uiso   1.00
O852   O     0.59090   0.28027   0.80118   0.00000  Uiso   1.00
C853   C     0.54778   0.04744   0.81697   0.00000  Uiso   1.00
H854   H     0.56467   0.07834   0.81079   0.00000  Uiso   1.00
O855   O     0.54854   0.03227   0.85498   0.00000  Uiso   1.00
C856   C     0.45222   0.28589   0.68303   0.00000  Uiso   1.00
H857   H     0.43533   0.25499   0.68921   0.00000  Uiso   1.00
O858   O     0.45147   0.30106   0.64501   0.00000  Uiso   1.00
C859   C     0.75426   0.16686   0.74978   0.00000  Uiso   1.00
C860   C     0.91241   0.16647   0.75021   0.00000  Uiso   1.00
C861   C     0.78465   0.23151   0.52297   0.00000  Uiso   1.00
C862   C     0.88198   0.10181   0.97703   0.00000  Uiso   1.00
C863   C     0.69026   0.14672   0.78604   0.00000  Uiso   1.00
C864   C     0.97641   0.18661   0.71396   0.00000  Uiso   1.00
C865   C     0.97997   0.14751   0.78663   0.00000  Uiso   1.00
C866   C     0.68670   0.18582   0.71337   0.00000  Uiso   1.00
C867   C     0.95712   0.16608   0.74991   0.00000  Uiso   1.00
C868   C     0.70955   0.16725   0.75009   0.00000  Uiso   1.00
C869   C     0.80882   0.02553   0.71998   0.00000  Uiso   1.00
C870   C     0.85785   0.30780   0.78002   0.00000  Uiso   1.00
C871   C     0.85711   0.02393   0.78091   0.00000  Uiso   1.00
C872   C     0.80955   0.30941   0.71909   0.00000  Uiso   1.00
C873   C     0.83401   0.16679   0.66465   0.00000  Uiso   1.00
C874   C     0.83265   0.16655   0.83535   0.00000  Uiso   1.00
C875   C     0.85737   0.13684   0.90765   0.00000  Uiso   1.00
C876   C     0.80929   0.19649   0.59235   0.00000  Uiso   1.00
C877   C     0.83072   0.16643   0.88355   0.00000  Uiso   1.00
C878   C     0.83594   0.16690   0.61645   0.00000  Uiso   1.00
C879   C     0.80340   0.19618   0.90526   0.00000  Uiso   1.00
C880   C     0.86325   0.13715   0.59474   0.00000  Uiso   1.00
C881   C     0.80646   0.19941   0.95234   0.00000  Uiso   1.00
C882   C     0.86018   0.13392   0.54765   0.00000  Uiso   1.00
C883   C     0.83280   0.16719   0.97660   0.00000  Uiso   1.00
C884   C     0.83385   0.16613   0.52340   0.00000  Uiso   1.00
C885   C     0.85771   0.13547   0.95389   0.00000  Uiso   1.00
C886   C     0.80894   0.19785   0.54611   0.00000  Uiso   1.00
C887   C     0.78299   0.23243   0.97599   0.00000  Uiso   1.00
C888   C     0.88364   0.10088   0.52401   0.00000  Uiso   1.00
Cu889  Cu    0.83333   0.21355   0.75000   0.00000  Uiso   1.00
Cu890  Cu    0.83333   0.11978   0.75000   0.00000  Uiso   1.00
H891   H     0.87807   0.11477   0.88976   0.00000  Uiso   1.00
H892   H     0.78858   0.21855   0.61024   0.00000  Uiso   1.00
N893   N     0.83333   0.28402   0.75000   0.00000  Uiso   1.00
N894   N     0.83333   0.04931   0.75000   0.00000  Uiso   1.00
O895   O     0.77321   0.20625   0.74999   0.00000  Uiso   1.00
O896   O     0.89345   0.12709   0.75000   0.00000  Uiso   1.00
O897   O     0.89345   0.20625   0.75000   0.00000  Uiso   1.00
O898   O     0.77321   0.12709   0.74999   0.00000  Uiso   1.00
O899   O     0.83332   0.20627   0.68513   0.00000  Uiso   1.00
O900   O     0.83334   0.12707   0.81487   0.00000  Uiso   1.00
O901   O     0.83334   0.20627   0.81487   0.00000  Uiso   1.00
O902   O     0.83332   0.12707   0.68513   0.00000  Uiso   1.00
O903   O     0.77256   0.22034   0.88131   0.00000  Uiso   1.00
H904   H     0.76539   0.20407   0.85327   0.00000  Uiso   1.00
O905   O     0.89411   0.11300   0.61868   0.00000  Uiso   1.00
H906   H     0.90127   0.12928   0.64672   0.00000  Uiso   1.00
C907   C     0.75748   0.26890   0.95258   0.00000  Uiso   1.00
H908   H     0.77077   0.28991   0.92689   0.00000  Uiso   1.00
O909   O     0.72134   0.27539   0.96162   0.00000  Uiso   1.00
C910   C     0.90912   0.06439   0.54742   0.00000  Uiso   1.00
H911   H     0.89583   0.04341   0.57314   0.00000  Uiso   1.00
O912   O     0.94525   0.05784   0.53836   0.00000  Uiso   1.00
O913   O     0.76357   0.26379   0.54745   0.00000  Uiso   1.00
H914   H     0.76251   0.29373   0.53130   0.00000  Uiso   1.00
O915   O     0.90305   0.06951   0.95255   0.00000  Uiso   1.00
H916   H     0.90406   0.03956   0.96869   0.00000  Uiso   1.00
O917   O     0.71482   0.12621   0.81958   0.00000  Uiso   1.00
H918   H     0.69913   0.10092   0.83316   0.00000  Uiso   1.00
O919   O     0.95184   0.20712   0.68042   0.00000  Uiso   1.00
H920   H     0.96754   0.23242   0.66684   0.00000  Uiso   1.00
O921   O     0.95886   0.13292   0.82309   0.00000  Uiso   1.00
H922   H     0.97694   0.13638   0.85024   0.00000  Uiso   1.00
O923   O     0.70781   0.20042   0.67690   0.00000  Uiso   1.00
H924   H     0.68973   0.19695   0.64976   0.00000  Uiso   1.00
C925   C     0.77903   0.05108   0.69018   0.00000  Uiso   1.00
H926   H     0.78889   0.06581   0.65922   0.00000  Uiso   1.00
O927   O     0.74243   0.05307   0.69881   0.00000  Uiso   1.00
C928   C     0.88764   0.28226   0.80982   0.00000  Uiso   1.00
H929   H     0.87778   0.26752   0.84078   0.00000  Uiso   1.00
O930   O     0.92423   0.28027   0.80118   0.00000  Uiso   1.00
C931   C     0.88111   0.04744   0.81697   0.00000  Uiso   1.00
H932   H     0.89800   0.07834   0.81079   0.00000  Uiso   1.00
O933   O     0.88187   0.03227   0.85498   0.00000  Uiso   1.00
C934   C     0.78555   0.28589   0.68303   0.00000  Uiso   1.00
H935   H     0.76866   0.25499   0.68921   0.00000  Uiso   1.00
O936   O     0.78480   0.30106   0.64501   0.00000  Uiso   1.00
C937   C     0.08759   0.50020   0.74978   0.00000  Uiso   1.00
C938   C     0.24574   0.49980   0.75021   0.00000  Uiso   1.00
C939   C     0.11799   0.56484   0.52297   0.00000  Uiso   1.00
C940   C     0.21531   0.43514   0.97703   0.00000  Uiso   1.00
C941   C     0.02359   0.48006   0.78604   0.00000  Uiso   1.00
C942   C     0.30974   0.51994   0.71396   0.00000  Uiso   1.00
C943   C     0.31330   0.48085   0.78663   0.00000  Uiso   1.00
C944   C     0.02003   0.51915   0.71337   0.00000  Uiso   1.00
C945   C     0.29045   0.49942   0.74991   0.00000  Uiso   1.00
C946   C     0.04289   0.50058   0.75009   0.00000  Uiso   1.00
C947   C     0.14215   0.35887   0.71998   0.00000  Uiso   1.00
C948   C     0.19118   0.64113   0.78002   0.00000  Uiso   1.00
C949   C     0.19045   0.35726   0.78091   0.00000  Uiso   1.00
C950   C     0.14289   0.64274   0.71909   0.00000  Uiso   1.00
C951   C     0.16735   0.50012   0.66465   0.00000  Uiso   1.00
C952   C     0.16599   0.49988   0.83535   0.00000  Uiso   1.00
C953   C     0.19070   0.47017   0.90765   0.00000  Uiso   1.00
C954   C     0.14262   0.52982   0.59235   0.00000  Uiso   1.00
C955   C     0.16406   0.49976   0.88355   0.00000  Uiso   1.00
C956   C     0.16927   0.50024   0.61645   0.00000  Uiso   1.00
C957   C     0.13674   0.52951   0.90526   0.00000  Uiso   1.00
C958   C     0.19659   0.47049   0.59474   0.00000  Uiso   1.00
C959   C     0.13980   0.53274   0.95234   0.00000  Uiso   1.00
C960   C     0.19351   0.46725   0.54765   0.00000  Uiso   1.00
C961   C     0.16613   0.50052   0.97660   0.00000  Uiso   1.00
C962   C     0.16718   0.49947   0.52340   0.00000  Uiso   1.00
C963   C     0.19104   0.46880   0.95389   0.00000  Uiso   1.00
C964   C     0.14227   0.53119   0.54611   0.00000  Uiso   1.00
C965   C     0.11632   0.56576   0.97599   0.00000  Uiso   1.00
C966   C     0.21697   0.43422   0.52401   0.00000  Uiso   1.00
Cu967  Cu    0.16667   0.54689   0.75000   0.00000  Uiso   1.00
Cu968  Cu    0.16667   0.45311   0.75000   0.00000  Uiso   1.00
H969   H     0.21140   0.44810   0.88976   0.00000  Uiso   1.00
H970   H     0.12192   0.55189   0.61024   0.00000  Uiso   1.00
N971   N     0.16667   0.61736   0.75000   0.00000  Uiso   1.00
N972   N     0.16667   0.38264   0.75000   0.00000  Uiso   1.00
O973   O     0.10655   0.53958   0.74999   0.00000  Uiso   1.00
O974   O     0.22679   0.46042   0.75000   0.00000  Uiso   1.00
O975   O     0.22679   0.53958   0.75000   0.00000  Uiso   1.00
O976   O     0.10655   0.46042   0.74999   0.00000  Uiso   1.00
O977   O     0.16666   0.53960   0.68513   0.00000  Uiso   1.00
O978   O     0.16668   0.46040   0.81487   0.00000  Uiso   1.00
O979   O     0.16668   0.53960   0.81487   0.00000  Uiso   1.00
O980   O     0.16666   0.46040   0.68513   0.00000  Uiso   1.00
O981   O     0.10589   0.55368   0.88131   0.00000  Uiso   1.00
H982   H     0.09873   0.53740   0.85327   0.00000  Uiso   1.00
O983   O     0.22745   0.44633   0.61868   0.00000  Uiso   1.00
H984   H     0.23461   0.46261   0.64672   0.00000  Uiso   1.00
C985   C     0.09081   0.60223   0.95258   0.00000  Uiso   1.00
H986   H     0.10410   0.62324   0.92689   0.00000  Uiso   1.00
O987   O     0.05467   0.60872   0.96162   0.00000  Uiso   1.00
C988   C     0.24246   0.39772   0.54742   0.00000  Uiso   1.00
H989   H     0.22916   0.37675   0.57314   0.00000  Uiso   1.00
O990   O     0.27858   0.39117   0.53836   0.00000  Uiso   1.00
O991   O     0.09691   0.59712   0.54745   0.00000  Uiso   1.00
H992   H     0.09584   0.62707   0.53130   0.00000  Uiso   1.00
O993   O     0.23638   0.40285   0.95255   0.00000  Uiso   1.00
H994   H     0.23740   0.37289   0.96869   0.00000  Uiso   1.00
O995   O     0.04816   0.45955   0.81958   0.00000  Uiso   1.00
H996   H     0.03246   0.43425   0.83316   0.00000  Uiso   1.00
O997   O     0.28518   0.54045   0.68042   0.00000  Uiso   1.00
H998   H     0.30087   0.56575   0.66684   0.00000  Uiso   1.00
O999   O     0.29219   0.46625   0.82309   0.00000  Uiso   1.00
H1000  H     0.31027   0.46971   0.85024   0.00000  Uiso   1.00
O1001  O     0.04114   0.53375   0.67690   0.00000  Uiso   1.00
H1002  H     0.02306   0.53029   0.64976   0.00000  Uiso   1.00
C1003  C     0.11236   0.38441   0.69018   0.00000  Uiso   1.00
H1004  H     0.12223   0.39915   0.65922   0.00000  Uiso   1.00
O1005  O     0.07577   0.38640   0.69881   0.00000  Uiso   1.00
C1006  C     0.22098   0.61559   0.80982   0.00000  Uiso   1.00
H1007  H     0.21111   0.60085   0.84078   0.00000  Uiso   1.00
O1008  O     0.25757   0.61360   0.80118   0.00000  Uiso   1.00
C1009  C     0.21445   0.38077   0.81697   0.00000  Uiso   1.00
H1010  H     0.23134   0.41168   0.81079   0.00000  Uiso   1.00
O1011  O     0.21520   0.36560   0.85498   0.00000  Uiso   1.00
C1012  C     0.11889   0.61923   0.68303   0.00000  Uiso   1.00
H1013  H     0.10200   0.58833   0.68921   0.00000  Uiso   1.00
O1014  O     0.11814   0.63440   0.64501   0.00000  Uiso   1.00
C1015  C     0.42092   0.50020   0.74978   0.00000  Uiso   1.00
C1016  C     0.57908   0.49980   0.75021   0.00000  Uiso   1.00
C1017  C     0.45132   0.56484   0.52297   0.00000  Uiso   1.00
C1018  C     0.54865   0.43514   0.97703   0.00000  Uiso   1.00
C1019  C     0.35693   0.48006   0.78604   0.00000  Uiso   1.00
C1020  C     0.64308   0.51994   0.71396   0.00000  Uiso   1.00
C1021  C     0.64664   0.48085   0.78663   0.00000  Uiso   1.00
C1022  C     0.35336   0.51915   0.71337   0.00000  Uiso   1.00
C1023  C     0.62378   0.49942   0.74991   0.00000  Uiso   1.00
C1024  C     0.37622   0.50058   0.75009   0.00000  Uiso   1.00
C1025  C     0.47549   0.35887   0.71998   0.00000  Uiso   1.00
C1026  C     0.52451   0.64113   0.78002   0.00000  Uiso   1.00
C1027  C     0.52378   0.35726   0.78091   0.00000  Uiso   1.00
C1028  C     0.47622   0.64274   0.71909   0.00000  Uiso   1.00
C1029  C     0.50068   0.50012   0.66465   0.00000  Uiso   1.00
C1030  C     0.49932   0.49988   0.83535   0.00000  Uiso   1.00
C1031  C     0.52403   0.47017   0.90765   0.00000  Uiso   1.00
C1032  C     0.47595   0.52982   0.59235   0.00000  Uiso   1.00
C1033  C     0.49739   0.49976   0.88355   0.00000  Uiso   1.00
C1034  C     0.50260   0.50024   0.61645   0.00000  Uiso   1.00
C1035  C     0.47007   0.52951   0.90526   0.00000  Uiso   1.00
C1036  C     0.52992   0.47049   0.59474   0.00000  Uiso   1.00
C1037  C     0.47313   0.53274   0.95234   0.00000  Uiso   1.00
C1038  C     0.52685   0.46725   0.54765   0.00000  Uiso   1.00
C1039  C     0.49947   0.50052   0.97660   0.00000  Uiso   1.00
C1040  C     0.50051   0.49947   0.52340   0.00000  Uiso   1.00
C1041  C     0.52437   0.46880   0.95389   0.00000  Uiso   1.00
C1042  C     0.47561   0.53119   0.54611   0.00000  Uiso   1.00
C1043  C     0.44966   0.56576   0.97599   0.00000  Uiso   1.00
C1044  C     0.55031   0.43422   0.52401   0.00000  Uiso   1.00
Cu1045 Cu    0.50000   0.54689   0.75000   0.00000  Uiso   1.00
Cu1046 Cu    0.50000   0.45311   0.75000   0.00000  Uiso   1.00
H1047  H     0.54474   0.44810   0.88976   0.00000  Uiso   1.00
H1048  H     0.45525   0.55189   0.61024   0.00000  Uiso   1.00
N1049  N     0.50000   0.61736   0.75000   0.00000  Uiso   1.00
N1050  N     0.50000   0.38264   0.75000   0.00000  Uiso   1.00
O1051  O     0.43988   0.53958   0.74999   0.00000  Uiso   1.00
O1052  O     0.56012   0.46042   0.75000   0.00000  Uiso   1.00
O1053  O     0.56012   0.53958   0.75000   0.00000  Uiso   1.00
O1054  O     0.43988   0.46042   0.74999   0.00000  Uiso   1.00
O1055  O     0.49999   0.53960   0.68513   0.00000  Uiso   1.00
O1056  O     0.50001   0.46040   0.81487   0.00000  Uiso   1.00
O1057  O     0.50001   0.53960   0.81487   0.00000  Uiso   1.00
O1058  O     0.49999   0.46040   0.68513   0.00000  Uiso   1.00
O1059  O     0.43922   0.55368   0.88131   0.00000  Uiso   1.00
H1060  H     0.43206   0.53740   0.85327   0.00000  Uiso   1.00
O1061  O     0.56078   0.44633   0.61868   0.00000  Uiso   1.00
H1062  H     0.56794   0.46261   0.64672   0.00000  Uiso   1.00
C1063  C     0.42415   0.60223   0.95258   0.00000  Uiso   1.00
H1064  H     0.43744   0.62324   0.92689   0.00000  Uiso   1.00
O1065  O     0.38801   0.60872   0.96162   0.00000  Uiso   1.00
C1066  C     0.57579   0.39772   0.54742   0.00000  Uiso   1.00
H1067  H     0.56249   0.37675   0.57314   0.00000  Uiso   1.00
O1068  O     0.61192   0.39117   0.53836   0.00000  Uiso   1.00
O1069  O     0.43024   0.59712   0.54745   0.00000  Uiso   1.00
H1070  H     0.42918   0.62707   0.53130   0.00000  Uiso   1.00
O1071  O     0.56972   0.40285   0.95255   0.00000  Uiso   1.00
H1072  H     0.57073   0.37289   0.96869   0.00000  Uiso   1.00
O1073  O     0.38149   0.45955   0.81958   0.00000  Uiso   1.00
H1074  H     0.36579   0.43425   0.83316   0.00000  Uiso   1.00
O1075  O     0.61851   0.54045   0.68042   0.00000  Uiso   1.00
H1076  H     0.63421   0.56575   0.66684   0.00000  Uiso   1.00
O1077  O     0.62552   0.46625   0.82309   0.00000  Uiso   1.00
H1078  H     0.64360   0.46971   0.85024   0.00000  Uiso   1.00
O1079  O     0.37448   0.53375   0.67690   0.00000  Uiso   1.00
H1080  H     0.35640   0.53029   0.64976   0.00000  Uiso   1.00
C1081  C     0.44569   0.38441   0.69018   0.00000  Uiso   1.00
H1082  H     0.45556   0.39915   0.65922   0.00000  Uiso   1.00
O1083  O     0.40910   0.38640   0.69881   0.00000  Uiso   1.00
C1084  C     0.55431   0.61559   0.80982   0.00000  Uiso   1.00
H1085  H     0.54444   0.60085   0.84078   0.00000  Uiso   1.00
O1086  O     0.59090   0.61360   0.80118   0.00000  Uiso   1.00
C1087  C     0.54778   0.38077   0.81697   0.00000  Uiso   1.00
H1088  H     0.56467   0.41168   0.81079   0.00000  Uiso   1.00
O1089  O     0.54854   0.36560   0.85498   0.00000  Uiso   1.00
C1090  C     0.45222   0.61923   0.68303   0.00000  Uiso   1.00
H1091  H     0.43533   0.58833   0.68921   0.00000  Uiso   1.00
O1092  O     0.45147   0.63440   0.64501   0.00000  Uiso   1.00
C1093  C     0.75426   0.50020   0.74978   0.00000  Uiso   1.00
C1094  C     0.91241   0.49980   0.75021   0.00000  Uiso   1.00
C1095  C     0.78465   0.56484   0.52297   0.00000  Uiso   1.00
C1096  C     0.88198   0.43514   0.97703   0.00000  Uiso   1.00
C1097  C     0.69026   0.48006   0.78604   0.00000  Uiso   1.00
C1098  C     0.97641   0.51994   0.71396   0.00000  Uiso   1.00
C1099  C     0.97997   0.48085   0.78663   0.00000  Uiso   1.00
C1100  C     0.68670   0.51915   0.71337   0.00000  Uiso   1.00
C1101  C     0.95712   0.49942   0.74991   0.00000  Uiso   1.00
C1102  C     0.70955   0.50058   0.75009   0.00000  Uiso   1.00
C1103  C     0.80882   0.35887   0.71998   0.00000  Uiso   1.00
C1104  C     0.85785   0.64113   0.78002   0.00000  Uiso   1.00
C1105  C     0.85711   0.35726   0.78091   0.00000  Uiso   1.00
C1106  C     0.80955   0.64274   0.71909   0.00000  Uiso   1.00
C1107  C     0.83401   0.50012   0.66465   0.00000  Uiso   1.00
C1108  C     0.83265   0.49988   0.83535   0.00000  Uiso   1.00
C1109  C     0.85737   0.47017   0.90765   0.00000  Uiso   1.00
C1110  C     0.80929   0.52982   0.59235   0.00000  Uiso   1.00
C1111  C     0.83072   0.49976   0.88355   0.00000  Uiso   1.00
C1112  C     0.83594   0.50024   0.61645   0.00000  Uiso   1.00
C1113  C     0.80340   0.52951   0.90526   0.00000  Uiso   1.00
C1114  C     0.86325   0.47049   0.59474   0.00000  Uiso   1.00
C1115  C     0.80646   0.53274   0.95234   0.00000  Uiso   1.00
C1116  C     0.86018   0.46725   0.54765   0.00000  Uiso   1.00
C1117  C     0.83280   0.50052   0.97660   0.00000  Uiso   1.00
C1118  C     0.83385   0.49947   0.52340   0.00000  Uiso   1.00
C1119  C     0.85771   0.46880   0.95389   0.00000  Uiso   1.00
C1120  C     0.80894   0.53119   0.54611   0.00000  Uiso   1.00
C1121  C     0.78299   0.56576   0.97599   0.00000  Uiso   1.00
C1122  C     0.88364   0.43422   0.52401   0.00000  Uiso   1.00
Cu1123 Cu    0.83333   0.54689   0.75000   0.00000  Uiso   1.00
Cu1124 Cu    0.83333   0.45311   0.75000   0.00000  Uiso   1.00
H1125  H     0.87807   0.44810   0.88976   0.00000  Uiso   1.00
H1126  H     0.78858   0.55189   0.61024   0.00000  Uiso   1.00
N1127  N     0.83333   0.61736   0.75000   0.00000  Uiso   1.00
N1128  N     0.83333   0.38264   0.75000   0.00000  Uiso   1.00
O1129  O     0.77321   0.53958   0.74999   0.00000  Uiso   1.00
O1130  O     0.89345   0.46042   0.75000   0.00000  Uiso   1.00
O1131  O     0.89345   0.53958   0.75000   0.00000  Uiso   1.00
O1132  O     0.77321   0.46042   0.74999   0.00000  Uiso   1.00
O1133  O     0.83332   0.53960   0.68513   0.00000  Uiso   1.00
O1134  O     0.83334   0.46040   0.81487   0.00000  Uiso   1.00
O1135  O     0.83334   0.53960   0.81487   0.00000  Uiso   1.00
O1136  O     0.83332   0.46040   0.68513   0.00000  Uiso   1.00
O1137  O     0.77256   0.55368   0.88131   0.00000  Uiso   1.00
H1138  H     0.76539   0.53740   0.85327   0.00000  Uiso   1.00
O1139  O     0.89411   0.44633   0.61868   0.00000  Uiso   1.00
H1140  H     0.90127   0.46261   0.64672   0.00000  Uiso   1.00
C1141  C     0.75748   0.60223   0.95258   0.00000  Uiso   1.00
H1142  H     0.77077   0.62324   0.92689   0.00000  Uiso   1.00
O1143  O     0.72134   0.60872   0.96162   0.00000  Uiso   1.00
C1144  C     0.90912   0.39772   0.54742   0.00000  Uiso   1.00
H1145  H     0.89583   0.37675   0.57314   0.00000  Uiso   1.00
O1146  O     0.94525   0.39117   0.53836   0.00000  Uiso   1.00
O1147  O     0.76357   0.59712   0.54745   0.00000  Uiso   1.00
H1148  H     0.76251   0.62707   0.53130   0.00000  Uiso   1.00
O1149  O     0.90305   0.40285   0.95255   0.00000  Uiso   1.00
H1150  H     0.90406   0.37289   0.96869   0.00000  Uiso   1.00
O1151  O     0.71482   0.45955   0.81958   0.00000  Uiso   1.00
H1152  H     0.69913   0.43425   0.83316   0.00000  Uiso   1.00
O1153  O     0.95184   0.54045   0.68042   0.00000  Uiso   1.00
H1154  H     0.96754   0.56575   0.66684   0.00000  Uiso   1.00
O1155  O     0.95886   0.46625   0.82309   0.00000  Uiso   1.00
H1156  H     0.97694   0.46971   0.85024   0.00000  Uiso   1.00
O1157  O     0.70781   0.53375   0.67690   0.00000  Uiso   1.00
H1158  H     0.68973   0.53029   0.64976   0.00000  Uiso   1.00
C1159  C     0.77903   0.38441   0.69018   0.00000  Uiso   1.00
H1160  H     0.78889   0.39915   0.65922   0.00000  Uiso   1.00
O1161  O     0.74243   0.38640   0.69881   0.00000  Uiso   1.00
C1162  C     0.88764   0.61559   0.80982   0.00000  Uiso   1.00
H1163  H     0.87778   0.60085   0.84078   0.00000  Uiso   1.00
O1164  O     0.92423   0.61360   0.80118   0.00000  Uiso   1.00
C1165  C     0.88111   0.38077   0.81697   0.00000  Uiso   1.00
H1166  H     0.89800   0.41168   0.81079   0.00000  Uiso   1.00
O1167  O     0.88187   0.36560   0.85498   0.00000  Uiso   1.00
C1168  C     0.78555   0.61923   0.68303   0.00000  Uiso   1.00
H1169  H     0.76866   0.58833   0.68921   0.00000  Uiso   1.00
O1170  O     0.78480   0.63440   0.64501   0.00000  Uiso   1.00
C1171  C     0.08759   0.83353   0.74978   0.00000  Uiso   1.00
C1172  C     0.24574   0.83314   0.75021   0.00000  Uiso   1.00
C1173  C     0.11799   0.89817   0.52297   0.00000  Uiso   1.00
C1174  C     0.21531   0.76847   0.97703   0.00000  Uiso   1.00
C1175  C     0.02359   0.81339   0.78604   0.00000  Uiso   1.00
C1176  C     0.30974   0.85328   0.71396   0.00000  Uiso   1.00
C1177  C     0.31330   0.81418   0.78663   0.00000  Uiso   1.00
C1178  C     0.02003   0.85248   0.71337   0.00000  Uiso   1.00
C1179  C     0.29045   0.83275   0.74991   0.00000  Uiso   1.00
C1180  C     0.04289   0.83392   0.75009   0.00000  Uiso   1.00
C1181  C     0.14215   0.69220   0.71998   0.00000  Uiso   1.00
C1182  C     0.19118   0.97447   0.78002   0.00000  Uiso   1.00
C1183  C     0.19045   0.69059   0.78091   0.00000  Uiso   1.00
C1184  C     0.14289   0.97607   0.71909   0.00000  Uiso   1.00
C1185  C     0.16735   0.83345   0.66465   0.00000  Uiso   1.00
C1186  C     0.16599   0.83321   0.83535   0.00000  Uiso   1.00
C1187  C     0.19070   0.80350   0.90765   0.00000  Uiso   1.00
C1188  C     0.14262   0.86316   0.59235   0.00000  Uiso   1.00
C1189  C     0.16406   0.83310   0.88355   0.00000  Uiso   1.00
C1190  C     0.16927   0.83357   0.61645   0.00000  Uiso   1.00
C1191  C     0.13674   0.86284   0.90526   0.00000  Uiso   1.00
C1192  C     0.19659   0.80382   0.59474   0.00000  Uiso   1.00
C1193  C     0.13980   0.86607   0.95234   0.00000  Uiso   1.00
C1194  C     0.19351   0.80058   0.54765   0.00000  Uiso   1.00
C1195  C     0.16613   0.83386   0.97660   0.00000  Uiso   1.00
C1196  C     0.16718   0.83280   0.52340   0.00000  Uiso   1.00
C1197  C     0.19104   0.80213   0.95389   0.00000  Uiso   1.00
C1198  C     0.14227   0.86452   0.54611   0.00000  Uiso   1.00
C1199  C     0.11632   0.89909   0.97599   0.00000  Uiso   1.00
C1200  C     0.21697   0.76755   0.52401   0.00000  Uiso   1.00
Cu1201 Cu    0.16667   0.88022   0.75000   0.00000  Uiso   1.00
Cu1202 Cu    0.16667   0.78645   0.75000   0.00000  Uiso   1.00
H1203  H     0.21140   0.78144   0.88976   0.00000  Uiso   1.00
H1204  H     0.12192   0.88522   0.61024   0.00000  Uiso   1.00
N1205  N     0.16667   0.95069   0.75000   0.00000  Uiso   1.00
N1206  N     0.16667   0.71598   0.75000   0.00000  Uiso   1.00
O1207  O     0.10655   0.87291   0.74999   0.00000  Uiso   1.00
O1208  O     0.22679   0.79375   0.75000   0.00000  Uiso   1.00
O1209  O     0.22679   0.87291   0.75000   0.00000  Uiso   1.00
O1210  O     0.10655   0.79375   0.74999   0.00000  Uiso   1.00
O1211  O     0.16666   0.87293   0.68513   0.00000  Uiso   1.00
O1212  O     0.16668   0.79373   0.81487   0.00000  Uiso   1.00
O1213  O     0.16668   0.87293   0.81487   0.00000  Uiso   1.00
O1214  O     0.16666   0.79373   0.68513   0.00000  Uiso   1.00
O1215  O     0.10589   0.88701   0.88131   0.00000  Uiso   1.00
H1216  H     0.09873   0.87073   0.85327   0.00000  Uiso   1.00
O1217  O     0.22745   0.77967   0.61868   0.00000  Uiso   1.00
H1218  H     0.23461   0.79594   0.64672   0.00000  Uiso   1.00
C1219  C     0.09081   0.93556   0.95258   0.00000  Uiso   1.00
H1220  H     0.10410   0.95658   0.92689   0.00000  Uiso   1.00
O1221  O     0.05467   0.94206   0.96162   0.00000  Uiso   1.00
C1222  C     0.24246   0.73106   0.54742   0.00000  Uiso   1.00
H1223  H     0.22916   0.71008   0.57314   0.00000  Uiso   1.00
O1224  O     0.27858   0.72450   0.53836   0.00000  Uiso   1.00
O1225  O     0.09691   0.93046   0.54745   0.00000  Uiso   1.00
H1226  H     0.09584   0.96040   0.53130   0.00000  Uiso   1.00
O1227  O     0.23638   0.73618   0.95255   0.00000  Uiso   1.00
H1228  H     0.23740   0.70623   0.96869   0.00000  Uiso   1.00
O1229  O     0.04816   0.79288   0.81958   0.00000  Uiso   1.00
H1230  H     0.03246   0.76758   0.83316   0.00000  Uiso   1.00
O1231  O     0.28518   0.87379   0.68042   0.00000  Uiso   1.00
H1232  H     0.30087   0.89908   0.66684   0.00000  Uiso   1.00
O1233  O     0.29219   0.79958   0.82309   0.00000  Uiso   1.00
H1234  H     0.31027   0.80305   0.85024   0.00000  Uiso   1.00
O1235  O     0.04114   0.86708   0.67690   0.00000  Uiso   1.00
H1236  H     0.02306   0.86362   0.64976   0.00000  Uiso   1.00
C1237  C     0.11236   0.71774   0.69018   0.00000  Uiso   1.00
H1238  H     0.12223   0.73248   0.65922   0.00000  Uiso   1.00
O1239  O     0.07577   0.71974   0.69881   0.00000  Uiso   1.00
C1240  C     0.22098   0.94892   0.80982   0.00000  Uiso   1.00
H1241  H     0.21111   0.93418   0.84078   0.00000  Uiso   1.00
O1242  O     0.25757   0.94693   0.80118   0.00000  Uiso   1.00
C1243  C     0.21445   0.71410   0.81697   0.00000  Uiso   1.00
H1244  H     0.23134   0.74501   0.81079   0.00000  Uiso   1.00
O1245  O     0.21520   0.69893   0.85498   0.00000  Uiso   1.00
C1246  C     0.11889   0.95256   0.68303   0.00000  Uiso   1.00
H1247  H     0.10200   0.92166   0.68921   0.00000  Uiso   1.00
O1248  O     0.11814   0.96773   0.64501   0.00000  Uiso   1.00
C1249  C     0.42092   0.83353   0.74978   0.00000  Uiso   1.00
C1250  C     0.57908   0.83314   0.75021   0.00000  Uiso   1.00
C1251  C     0.45132   0.89817   0.52297   0.00000  Uiso   1.00
C1252  C     0.54865   0.76847   0.97703   0.00000  Uiso   1.00
C1253  C     0.35693   0.81339   0.78604   0.00000  Uiso   1.00
C1254  C     0.64308   0.85328   0.71396   0.00000  Uiso   1.00
C1255  C     0.64664   0.81418   0.78663   0.00000  Uiso   1.00
C1256  C     0.35336   0.85248   0.71337   0.00000  Uiso   1.00
C1257  C     0.62378   0.83275   0.74991   0.00000  Uiso   1.00
C1258  C     0.37622   0.83392   0.75009   0.00000  Uiso   1.00
C1259  C     0.47549   0.69220   0.71998   0.00000  Uiso   1.00
C1260  C     0.52451   0.97447   0.78002   0.00000  Uiso   1.00
C1261  C     0.52378   0.69059   0.78091   0.00000  Uiso   1.00
C1262  C     0.47622   0.97607   0.71909   0.00000  Uiso   1.00
C1263  C     0.50068   0.83345   0.66465   0.00000  Uiso   1.00
C1264  C     0.49932   0.83321   0.83535   0.00000  Uiso   1.00
C1265  C     0.52403   0.80350   0.90765   0.00000  Uiso   1.00
C1266  C     0.47595   0.86316   0.59235   0.00000  Uiso   1.00
C1267  C     0.49739   0.83310   0.88355   0.00000  Uiso   1.00
C1268  C     0.50260   0.83357   0.61645   0.00000  Uiso   1.00
C1269  C     0.47007   0.86284   0.90526   0.00000  Uiso   1.00
C1270  C     0.52992   0.80382   0.59474   0.00000  Uiso   1.00
C1271  C     0.47313   0.86607   0.95234   0.00000  Uiso   1.00
C1272  C     0.52685   0.80058   0.54765   0.00000  Uiso   1.00
C1273  C     0.49947   0.83386   0.97660   0.00000  Uiso   1.00
C1274  C     0.50051   0.83280   0.52340   0.00000  Uiso   1.00
C1275  C     0.52437   0.80213   0.95389   0.00000  Uiso   1.00
C1276  C     0.47561   0.86452   0.54611   0.00000  Uiso   1.00
C1277  C     0.44966   0.89909   0.97599   0.00000  Uiso   1.00
C1278  C     0.55031   0.76755   0.52401   0.00000  Uiso   1.00
Cu1279 Cu    0.50000   0.88022   0.75000   0.00000  Uiso   1.00
Cu1280 Cu    0.50000   0.78645   0.75000   0.00000  Uiso   1.00
H1281  H     0.54474   0.78144   0.88976   0.00000  Uiso   1.00
H1282  H     0.45525   0.88522   0.61024   0.00000  Uiso   1.00
N1283  N     0.50000   0.95069   0.75000   0.00000  Uiso   1.00
N1284  N     0.50000   0.71598   0.75000   0.00000  Uiso   1.00
O1285  O     0.43988   0.87291   0.74999   0.00000  Uiso   1.00
O1286  O     0.56012   0.79375   0.75000   0.00000  Uiso   1.00
O1287  O     0.56012   0.87291   0.75000   0.00000  Uiso   1.00
O1288  O     0.43988   0.79375   0.74999   0.00000  Uiso   1.00
O1289  O     0.49999   0.87293   0.68513   0.00000  Uiso   1.00
O1290  O     0.50001   0.79373   0.81487   0.00000  Uiso   1.00
O1291  O     0.50001   0.87293   0.81487   0.00000  Uiso   1.00
O1292  O     0.49999   0.79373   0.68513   0.00000  Uiso   1.00
O1293  O     0.43922   0.88701   0.88131   0.00000  Uiso   1.00
H1294  H     0.43206   0.87073   0.85327   0.00000  Uiso   1.00
O1295  O     0.56078   0.77967   0.61868   0.00000  Uiso   1.00
H1296  H     0.56794   0.79594   0.64672   0.00000  Uiso   1.00
C1297  C     0.42415   0.93556   0.95258   0.00000  Uiso   1.00
H1298  H     0.43744   0.95658   0.92689   0.00000  Uiso   1.00
O1299  O     0.38801   0.94206   0.96162   0.00000  Uiso   1.00
C1300  C     0.57579   0.73106   0.54742   0.00000  Uiso   1.00
H1301  H     0.56249   0.71008   0.57314   0.00000  Uiso   1.00
O1302  O     0.61192   0.72450   0.53836   0.00000  Uiso   1.00
O1303  O     0.43024   0.93046   0.54745   0.00000  Uiso   1.00
H1304  H     0.42918   0.96040   0.53130   0.00000  Uiso   1.00
O1305  O     0.56972   0.73618   0.95255   0.00000  Uiso   1.00
H1306  H     0.57073   0.70623   0.96869   0.00000  Uiso   1.00
O1307  O     0.38149   0.79288   0.81958   0.00000  Uiso   1.00
H1308  H     0.36579   0.76758   0.83316   0.00000  Uiso   1.00
O1309  O     0.61851   0.87379   0.68042   0.00000  Uiso   1.00
H1310  H     0.63421   0.89908   0.66684   0.00000  Uiso   1.00
O1311  O     0.62552   0.79958   0.82309   0.00000  Uiso   1.00
H1312  H     0.64360   0.80305   0.85024   0.00000  Uiso   1.00
O1313  O     0.37448   0.86708   0.67690   0.00000  Uiso   1.00
H1314  H     0.35640   0.86362   0.64976   0.00000  Uiso   1.00
C1315  C     0.44569   0.71774   0.69018   0.00000  Uiso   1.00
H1316  H     0.45556   0.73248   0.65922   0.00000  Uiso   1.00
O1317  O     0.40910   0.71974   0.69881   0.00000  Uiso   1.00
C1318  C     0.55431   0.94892   0.80982   0.00000  Uiso   1.00
H1319  H     0.54444   0.93418   0.84078   0.00000  Uiso   1.00
O1320  O     0.59090   0.94693   0.80118   0.00000  Uiso   1.00
C1321  C     0.54778   0.71410   0.81697   0.00000  Uiso   1.00
H1322  H     0.56467   0.74501   0.81079   0.00000  Uiso   1.00
O1323  O     0.54854   0.69893   0.85498   0.00000  Uiso   1.00
C1324  C     0.45222   0.95256   0.68303   0.00000  Uiso   1.00
H1325  H     0.43533   0.92166   0.68921   0.00000  Uiso   1.00
O1326  O     0.45147   0.96773   0.64501   0.00000  Uiso   1.00
C1327  C     0.75426   0.83353   0.74978   0.00000  Uiso   1.00
C1328  C     0.91241   0.83314   0.75021   0.00000  Uiso   1.00
C1329  C     0.78465   0.89817   0.52297   0.00000  Uiso   1.00
C1330  C     0.88198   0.76847   0.97703   0.00000  Uiso   1.00
C1331  C     0.69026   0.81339   0.78604   0.00000  Uiso   1.00
C1332  C     0.97641   0.85328   0.71396   0.00000  Uiso   1.00
C1333  C     0.97997   0.81418   0.78663   0.00000  Uiso   1.00
C1334  C     0.68670   0.85248   0.71337   0.00000  Uiso   1.00
C1335  C     0.95712   0.83275   0.74991   0.00000  Uiso   1.00
C1336  C     0.70955   0.83392   0.75009   0.00000  Uiso   1.00
C1337  C     0.80882   0.69220   0.71998   0.00000  Uiso   1.00
C1338  C     0.85785   0.97447   0.78002   0.00000  Uiso   1.00
C1339  C     0.85711   0.69059   0.78091   0.00000  Uiso   1.00
C1340  C     0.80955   0.97607   0.71909   0.00000  Uiso   1.00
C1341  C     0.83401   0.83345   0.66465   0.00000  Uiso   1.00
C1342  C     0.83265   0.83321   0.83535   0.00000  Uiso   1.00
C1343  C     0.85737   0.80350   0.90765   0.00000  Uiso   1.00
C1344  C     0.80929   0.86316   0.59235   0.00000  Uiso   1.00
C1345  C     0.83072   0.83310   0.88355   0.00000  Uiso   1.00
C1346  C     0.83594   0.83357   0.61645   0.00000  Uiso   1.00
C1347  C     0.80340   0.86284   0.90526   0.00000  Uiso   1.00
C1348  C     0.86325   0.80382   0.59474   0.00000  Uiso   1.00
C1349  C     0.80646   0.86607   0.95234   0.00000  Uiso   1.00
C1350  C     0.86018   0.80058   0.54765   0.00000  Uiso   1.00
C1351  C     0.83280   0.83386   0.97660   0.00000  Uiso   1.00
C1352  C     0.83385   0.83280   0.52340   0.00000  Uiso   1.00
C1353  C     0.85771   0.80213   0.95389   0.00000  Uiso   1.00
C1354  C     0.80894   0.86452   0.54611   0.00000  Uiso   1.00
C1355  C     0.78299   0.89909   0.97599   0.00000  Uiso   1.00
C1356  C     0.88364   0.76755   0.52401   0.00000  Uiso   1.00
Cu1357 Cu    0.83333   0.88022   0.75000   0.00000  Uiso   1.00
Cu1358 Cu    0.83333   0.78645   0.75000   0.00000  Uiso   1.00
H1359  H     0.87807   0.78144   0.88976   0.00000  Uiso   1.00
H1360  H     0.78858   0.88522   0.61024   0.00000  Uiso   1.00
N1361  N     0.83333   0.95069   0.75000   0.00000  Uiso   1.00
N1362  N     0.83333   0.71598   0.75000   0.00000  Uiso   1.00
O1363  O     0.77321   0.87291   0.74999   0.00000  Uiso   1.00
O1364  O     0.89345   0.79375   0.75000   0.00000  Uiso   1.00
O1365  O     0.89345   0.87291   0.75000   0.00000  Uiso   1.00
O1366  O     0.77321   0.79375   0.74999   0.00000  Uiso   1.00
O1367  O     0.83332   0.87293   0.68513   0.00000  Uiso   1.00
O1368  O     0.83334   0.79373   0.81487   0.00000  Uiso   1.00
O1369  O     0.83334   0.87293   0.81487   0.00000  Uiso   1.00
O1370  O     0.83332   0.79373   0.68513   0.00000  Uiso   1.00
O1371  O     0.77256   0.88701   0.88131   0.00000  Uiso   1.00
H1372  H     0.76539   0.87073   0.85327   0.00000  Uiso   1.00
O1373  O     0.89411   0.77967   0.61868   0.00000  Uiso   1.00
H1374  H     0.90127   0.79594   0.64672   0.00000  Uiso   1.00
C1375  C     0.75748   0.93556   0.95258   0.00000  Uiso   1.00
H1376  H     0.77077   0.95658   0.92689   0.00000  Uiso   1.00
O1377  O     0.72134   0.94206   0.96162   0.00000  Uiso   1.00
C1378  C     0.90912   0.73106   0.54742   0.00000  Uiso   1.00
H1379  H     0.89583   0.71008   0.57314   0.00000  Uiso   1.00
O1380  O     0.94525   0.72450   0.53836   0.00000  Uiso   1.00
O1381  O     0.76357   0.93046   0.54745   0.00000  Uiso   1.00
H1382  H     0.76251   0.96040   0.53130   0.00000  Uiso   1.00
O1383  O     0.90305   0.73618   0.95255   0.00000  Uiso   1.00
H1384  H     0.90406   0.70623   0.96869   0.00000  Uiso   1.00
O1385  O     0.71482   0.79288   0.81958   0.00000  Uiso   1.00
H1386  H     0.69913   0.76758   0.83316   0.00000  Uiso   1.00
O1387  O     0.95184   0.87379   0.68042   0.00000  Uiso   1.00
H1388  H     0.96754   0.89908   0.66684   0.00000  Uiso   1.00
O1389  O     0.95886   0.79958   0.82309   0.00000  Uiso   1.00
H1390  H     0.97694   0.80305   0.85024   0.00000  Uiso   1.00
O1391  O     0.70781   0.86708   0.67690   0.00000  Uiso   1.00
H1392  H     0.68973   0.86362   0.64976   0.00000  Uiso   1.00
C1393  C     0.77903   0.71774   0.69018   0.00000  Uiso   1.00
H1394  H     0.78889   0.73248   0.65922   0.00000  Uiso   1.00
O1395  O     0.74243   0.71974   0.69881   0.00000  Uiso   1.00
C1396  C     0.88764   0.94892   0.80982   0.00000  Uiso   1.00
H1397  H     0.87778   0.93418   0.84078   0.00000  Uiso   1.00
O1398  O     0.92423   0.94693   0.80118   0.00000  Uiso   1.00
C1399  C     0.88111   0.71410   0.81697   0.00000  Uiso   1.00
H1400  H     0.89800   0.74501   0.81079   0.00000  Uiso   1.00
O1401  O     0.88187   0.69893   0.85498   0.00000  Uiso   1.00
C1402  C     0.78555   0.95256   0.68303   0.00000  Uiso   1.00
H1403  H     0.76866   0.92166   0.68921   0.00000  Uiso   1.00
O1404  O     0.78480   0.96773   0.64501   0.00000  Uiso   1.00
loop_
_geom_bond_atom_site_label_1
_geom_bond_atom_site_label_2
_geom_bond_distance
_geom_bond_site_symmetry_2
_ccdc_geom_bond_type
C1     O40     1.298   .     A
C1     O37     1.300   .     A
C1     C10     1.443   .     S
C2     O39     1.298   .     A
C2     O38     1.300   .     A
C2     C9      1.443   .     S
C3     O55     1.385   .     S
C3     C28     1.405   .     A
C3     C731    1.413   1_554 S
C4     O57     1.385   .     S
C4     C27     1.405   .     A
C4     C732    1.413   .     S
C5     O59     1.383   .     S
C5     C10     1.402   .     A
C5     C163    1.408   1_455 S
C6     C9      1.402   .     A
C6     O61     1.383   .     S
C6     C86     1.408   .     S
C7     O63     1.382   .     S
C7     C9      1.402   .     A
C7     C83     1.408   .     S
C8     O65     1.382   .     S
C8     C10     1.402   .     A
C8     C162    1.408   1_455 S
C11    N36     1.370   .     A
C11    C67     1.475   .     S
C11    C482    1.432   1_545 S
C12    N35     1.370   .     A
C12    C70     1.475   .     S
C12    C247    1.432   .     S
C13    N36     1.382   .     A
C13    C73     1.481   .     S
C13    C480    1.432   1_545 S
C14    N35     1.382   .     A
C14    C76     1.481   .     S
C14    C245    1.432   .     S
C15    O44     1.301   .     A
C15    C20     1.455   .     S
C15    O41     1.303   .     A
C16    O42     1.303   .     A
C16    O43     1.301   .     A
C16    C19     1.455   .     S
C17    H33     1.082   .     S
C17    C27     1.392   .     A
C17    C19     1.385   .     A
C18    C28     1.392   .     A
C18    H34     1.082   .     S
C18    C20     1.385   .     A
C19    C21     1.410   .     A
C20    C22     1.410   .     A
C21    O45     1.384   .     S
C21    C23     1.421   .     A
C22    O47     1.384   .     S
C22    C24     1.421   .     A
C23    C29     1.427   .     A
C23    C25     1.429   .     A
C24    C26     1.429   .     A
C24    C30     1.427   .     A
C25    C27     1.413   .     A
C25    C728    1.408   .     S
C26    C28     1.413   .     A
C26    C727    1.408   1_554 S
C29    C49     1.486   .     S
C29    C705    1.413   .     S
C30    C52     1.486   .     S
C30    C706    1.413   1_554 S
Cu31   O43     1.962   .     S
Cu31   Cu32    2.714   .     S
Cu31   O37     1.954   .     S
Cu31   O41     1.966   .     S
Cu31   N35     2.040   .     S
Cu31   O39     1.949   .     S
Cu32   O38     1.954   .     S
Cu32   O44     1.962   .     S
Cu32   N36     2.040   .     S
Cu32   O40     1.949   .     S
Cu32   O42     1.966   .     S
O45    H46     0.990   .     S
O47    H48     0.990   .     S
C49    O51     1.222   .     D
C49    H50     1.085   .     S
C52    O54     1.222   .     D
C52    H53     1.085   .     S
O55    H56     0.990   .     S
O57    H58     0.990   .     S
O59    H60     0.990   .     S
O61    H62     0.990   .     S
O63    H64     0.990   .     S
O65    H66     0.990   .     S
C67    H68     1.083   .     S
C67    O69     1.221   .     D
C70    H71     1.083   .     S
C70    O72     1.221   .     D
C73    H74     1.072   .     S
C73    O75     1.221   .     D
C76    O78     1.221   .     D
C76    H77     1.072   .     S
C79    O118    1.298   .     A
C79    O115    1.300   .     A
C79    C88     1.443   .     S
C80    O117    1.298   .     A
C80    O116    1.300   .     A
C80    C87     1.443   .     S
C81    O133    1.385   .     S
C81    C106    1.405   .     A
C81    C809    1.413   1_554 S
C82    O135    1.385   .     S
C82    C105    1.405   .     A
C82    C810    1.413   .     S
C83    O137    1.383   .     S
C83    C88     1.402   .     A
C84    C87     1.402   .     A
C84    O139    1.383   .     S
C84    C164    1.408   .     S
C85    O141    1.382   .     S
C85    C87     1.402   .     A
C85    C161    1.408   .     S
C86    O143    1.382   .     S
C86    C88     1.402   .     A
C89    N114    1.370   .     A
C89    C145    1.475   .     S
C89    C560    1.432   1_545 S
C90    N113    1.370   .     A
C90    C148    1.475   .     S
C90    C325    1.432   .     S
C91    N114    1.382   .     A
C91    C151    1.481   .     S
C91    C558    1.432   1_545 S
C92    N113    1.382   .     A
C92    C154    1.481   .     S
C92    C323    1.432   .     S
C93    O122    1.301   .     A
C93    C98     1.455   .     S
C93    O119    1.303   .     A
C94    O120    1.303   .     A
C94    O121    1.301   .     A
C94    C97     1.455   .     S
C95    H111    1.082   .     S
C95    C105    1.392   .     A
C95    C97     1.385   .     A
C96    C106    1.392   .     A
C96    H112    1.082   .     S
C96    C98     1.385   .     A
C97    C99     1.410   .     A
C98    C100    1.410   .     A
C99    O123    1.384   .     S
C99    C101    1.421   .     A
C100   O125    1.384   .     S
C100   C102    1.421   .     A
C101   C107    1.427   .     A
C101   C103    1.429   .     A
C102   C104    1.429   .     A
C102   C108    1.427   .     A
C103   C105    1.413   .     A
C103   C806    1.408   .     S
C104   C106    1.413   .     A
C104   C805    1.408   1_554 S
C107   C127    1.486   .     S
C107   C783    1.413   .     S
C108   C130    1.486   .     S
C108   C784    1.413   1_554 S
Cu109  O121    1.962   .     S
Cu109  Cu110   2.714   .     S
Cu109  O115    1.954   .     S
Cu109  O119    1.966   .     S
Cu109  N113    2.040   .     S
Cu109  O117    1.949   .     S
Cu110  O116    1.954   .     S
Cu110  O122    1.962   .     S
Cu110  N114    2.040   .     S
Cu110  O118    1.949   .     S
Cu110  O120    1.966   .     S
O123   H124    0.990   .     S
O125   H126    0.990   .     S
C127   O129    1.222   .     D
C127   H128    1.085   .     S
C130   O132    1.222   .     D
C130   H131    1.085   .     S
O133   H134    0.990   .     S
O135   H136    0.990   .     S
O137   H138    0.990   .     S
O139   H140    0.990   .     S
O141   H142    0.990   .     S
O143   H144    0.990   .     S
C145   H146    1.083   .     S
C145   O147    1.221   .     D
C148   H149    1.083   .     S
C148   O150    1.221   .     D
C151   H152    1.072   .     S
C151   O153    1.221   .     D
C154   O156    1.221   .     D
C154   H155    1.072   .     S
C157   O196    1.298   .     A
C157   O193    1.300   .     A
C157   C166    1.443   .     S
C158   O195    1.298   .     A
C158   O194    1.300   .     A
C158   C165    1.443   .     S
C159   O211    1.385   .     S
C159   C184    1.405   .     A
C159   C887    1.413   1_554 S
C160   O213    1.385   .     S
C160   C183    1.405   .     A
C160   C888    1.413   .     S
C161   O215    1.383   .     S
C161   C166    1.402   .     A
C162   C165    1.402   .     A
C162   O217    1.383   .     S
C162   C8      1.408   1_655 S
C163   O219    1.382   .     S
C163   C165    1.402   .     A
C163   C5      1.408   1_655 S
C164   O221    1.382   .     S
C164   C166    1.402   .     A
C167   N192    1.370   .     A
C167   C223    1.475   .     S
C167   C638    1.432   1_545 S
C168   N191    1.370   .     A
C168   C226    1.475   .     S
C168   C403    1.432   .     S
C169   N192    1.382   .     A
C169   C229    1.481   .     S
C169   C636    1.432   1_545 S
C170   N191    1.382   .     A
C170   C232    1.481   .     S
C170   C401    1.432   .     S
C171   O200    1.301   .     A
C171   C176    1.455   .     S
C171   O197    1.303   .     A
C172   O198    1.303   .     A
C172   O199    1.301   .     A
C172   C175    1.455   .     S
C173   H189    1.082   .     S
C173   C183    1.392   .     A
C173   C175    1.385   .     A
C174   C184    1.392   .     A
C174   H190    1.082   .     S
C174   C176    1.385   .     A
C175   C177    1.410   .     A
C176   C178    1.410   .     A
C177   O201    1.384   .     S
C177   C179    1.421   .     A
C178   O203    1.384   .     S
C178   C180    1.421   .     A
C179   C185    1.427   .     A
C179   C181    1.429   .     A
C180   C182    1.429   .     A
C180   C186    1.427   .     A
C181   C183    1.413   .     A
C181   C884    1.408   .     S
C182   C184    1.413   .     A
C182   C883    1.408   1_554 S
C185   C205    1.486   .     S
C185   C861    1.413   .     S
C186   C208    1.486   .     S
C186   C862    1.413   1_554 S
Cu187  O199    1.962   .     S
Cu187  Cu188   2.714   .     S
Cu187  O193    1.954   .     S
Cu187  O197    1.966   .     S
Cu187  N191    2.040   .     S
Cu187  O195    1.949   .     S
Cu188  O194    1.954   .     S
Cu188  O200    1.962   .     S
Cu188  N192    2.040   .     S
Cu188  O196    1.949   .     S
Cu188  O198    1.966   .     S
O201   H202    0.990   .     S
O203   H204    0.990   .     S
C205   O207    1.222   .     D
C205   H206    1.085   .     S
C208   O210    1.222   .     D
C208   H209    1.085   .     S
O211   H212    0.990   .     S
O213   H214    0.990   .     S
O215   H216    0.990   .     S
O217   H218    0.990   .     S
O219   H220    0.990   .     S
O221   H222    0.990   .     S
C223   H224    1.083   .     S
C223   O225    1.221   .     D
C226   H227    1.083   .     S
C226   O228    1.221   .     D
C229   H230    1.072   .     S
C229   O231    1.221   .     D
C232   O234    1.221   .     D
C232   H233    1.072   .     S
C235   O274    1.298   .     A
C235   O271    1.300   .     A
C235   C244    1.443   .     S
C236   O273    1.298   .     A
C236   O272    1.300   .     A
C236   C243    1.443   .     S
C237   O289    1.385   .     S
C237   C262    1.405   .     A
C237   C965    1.413   1_554 S
C238   O291    1.385   .     S
C238   C261    1.405   .     A
C238   C966    1.413   .     S
C239   O293    1.383   .     S
C239   C244    1.402   .     A
C239   C397    1.408   1_455 S
C240   C243    1.402   .     A
C240   O295    1.383   .     S
C240   C320    1.408   .     S
C241   O297    1.382   .     S
C241   C243    1.402   .     A
C241   C317    1.408   .     S
C242   O299    1.382   .     S
C242   C244    1.402   .     A
C242   C396    1.408   1_455 S
C245   N270    1.370   .     A
C245   C301    1.475   .     S
C246   N269    1.370   .     A
C246   C304    1.475   .     S
C246   C481    1.432   .     S
C247   N270    1.382   .     A
C247   C307    1.481   .     S
C248   N269    1.382   .     A
C248   C310    1.481   .     S
C248   C479    1.432   .     S
C249   O278    1.301   .     A
C249   C254    1.455   .     S
C249   O275    1.303   .     A
C250   O276    1.303   .     A
C250   O277    1.301   .     A
C250   C253    1.455   .     S
C251   H267    1.082   .     S
C251   C261    1.392   .     A
C251   C253    1.385   .     A
C252   C262    1.392   .     A
C252   H268    1.082   .     S
C252   C254    1.385   .     A
C253   C255    1.410   .     A
C254   C256    1.410   .     A
C255   O279    1.384   .     S
C255   C257    1.421   .     A
C256   O281    1.384   .     S
C256   C258    1.421   .     A
C257   C263    1.427   .     A
C257   C259    1.429   .     A
C258   C260    1.429   .     A
C258   C264    1.427   .     A
C259   C261    1.413   .     A
C259   C962    1.408   .     S
C260   C262    1.413   .     A
C260   C961    1.408   1_554 S
C263   C283    1.486   .     S
C263   C939    1.413   .     S
C264   C286    1.486   .     S
C264   C940    1.413   1_554 S
Cu265  O277    1.962   .     S
Cu265  Cu266   2.714   .     S
Cu265  O271    1.954   .     S
Cu265  O275    1.966   .     S
Cu265  N269    2.040   .     S
Cu265  O273    1.949   .     S
Cu266  O272    1.954   .     S
Cu266  O278    1.962   .     S
Cu266  N270    2.040   .     S
Cu266  O274    1.949   .     S
Cu266  O276    1.966   .     S
O279   H280    0.990   .     S
O281   H282    0.990   .     S
C283   O285    1.222   .     D
C283   H284    1.085   .     S
C286   O288    1.222   .     D
C286   H287    1.085   .     S
O289   H290    0.990   .     S
O291   H292    0.990   .     S
O293   H294    0.990   .     S
O295   H296    0.990   .     S
O297   H298    0.990   .     S
O299   H300    0.990   .     S
C301   H302    1.083   .     S
C301   O303    1.221   .     D
C304   H305    1.083   .     S
C304   O306    1.221   .     D
C307   H308    1.072   .     S
C307   O309    1.221   .     D
C310   O312    1.221   .     D
C310   H311    1.072   .     S
C313   O352    1.298   .     A
C313   O349    1.300   .     A
C313   C322    1.443   .     S
C314   O351    1.298   .     A
C314   O350    1.300   .     A
C314   C321    1.443   .     S
C315   O367    1.385   .     S
C315   C340    1.405   .     A
C315   C1043   1.413   1_554 S
C316   O369    1.385   .     S
C316   C339    1.405   .     A
C316   C1044   1.413   .     S
C317   O371    1.383   .     S
C317   C322    1.402   .     A
C318   C321    1.402   .     A
C318   O373    1.383   .     S
C318   C398    1.408   .     S
C319   O375    1.382   .     S
C319   C321    1.402   .     A
C319   C395    1.408   .     S
C320   O377    1.382   .     S
C320   C322    1.402   .     A
C323   N348    1.370   .     A
C323   C379    1.475   .     S
C324   N347    1.370   .     A
C324   C382    1.475   .     S
C324   C559    1.432   .     S
C325   N348    1.382   .     A
C325   C385    1.481   .     S
C326   N347    1.382   .     A
C326   C388    1.481   .     S
C326   C557    1.432   .     S
C327   O356    1.301   .     A
C327   C332    1.455   .     S
C327   O353    1.303   .     A
C328   O354    1.303   .     A
C328   O355    1.301   .     A
C328   C331    1.455   .     S
C329   H345    1.082   .     S
C329   C339    1.392   .     A
C329   C331    1.385   .     A
C330   C340    1.392   .     A
C330   H346    1.082   .     S
C330   C332    1.385   .     A
C331   C333    1.410   .     A
C332   C334    1.410   .     A
C333   O357    1.384   .     S
C333   C335    1.421   .     A
C334   O359    1.384   .     S
C334   C336    1.421   .     A
C335   C341    1.427   .     A
C335   C337    1.429   .     A
C336   C338    1.429   .     A
C336   C342    1.427   .     A
C337   C339    1.413   .     A
C337   C1040   1.408   .     S
C338   C340    1.413   .     A
C338   C1039   1.408   1_554 S
C341   C361    1.486   .     S
C341   C1017   1.413   .     S
C342   C364    1.486   .     S
C342   C1018   1.413   1_554 S
Cu343  O355    1.962   .     S
Cu343  Cu344   2.714   .     S
Cu343  O349    1.954   .     S
Cu343  O353    1.966   .     S
Cu343  N347    2.040   .     S
Cu343  O351    1.949   .     S
Cu344  O350    1.954   .     S
Cu344  O356    1.962   .     S
Cu344  N348    2.040   .     S
Cu344  O352    1.949   .     S
Cu344  O354    1.966   .     S
O357   H358    0.990   .     S
O359   H360    0.990   .     S
C361   O363    1.222   .     D
C361   H362    1.085   .     S
C364   O366    1.222   .     D
C364   H365    1.085   .     S
O367   H368    0.990   .     S
O369   H370    0.990   .     S
O371   H372    0.990   .     S
O373   H374    0.990   .     S
O375   H376    0.990   .     S
O377   H378    0.990   .     S
C379   H380    1.083   .     S
C379   O381    1.221   .     D
C382   H383    1.083   .     S
C382   O384    1.221   .     D
C385   H386    1.072   .     S
C385   O387    1.221   .     D
C388   O390    1.221   .     D
C388   H389    1.072   .     S
C391   O430    1.298   .     A
C391   O427    1.300   .     A
C391   C400    1.443   .     S
C392   O429    1.298   .     A
C392   O428    1.300   .     A
C392   C399    1.443   .     S
C393   O445    1.385   .     S
C393   C418    1.405   .     A
C393   C1121   1.413   1_554 S
C394   O447    1.385   .     S
C394   C417    1.405   .     A
C394   C1122   1.413   .     S
C395   O449    1.383   .     S
C395   C400    1.402   .     A
C396   C399    1.402   .     A
C396   O451    1.383   .     S
C396   C242    1.408   1_655 S
C397   O453    1.382   .     S
C397   C399    1.402   .     A
C397   C239    1.408   1_655 S
C398   O455    1.382   .     S
C398   C400    1.402   .     A
C401   N426    1.370   .     A
C401   C457    1.475   .     S
C402   N425    1.370   .     A
C402   C460    1.475   .     S
C402   C637    1.432   .     S
C403   N426    1.382   .     A
C403   C463    1.481   .     S
C404   N425    1.382   .     A
C404   C466    1.481   .     S
C404   C635    1.432   .     S
C405   O434    1.301   .     A
C405   C410    1.455   .     S
C405   O431    1.303   .     A
C406   O432    1.303   .     A
C406   O433    1.301   .     A
C406   C409    1.455   .     S
C407   H423    1.082   .     S
C407   C417    1.392   .     A
C407   C409    1.385   .     A
C408   C418    1.392   .     A
C408   H424    1.082   .     S
C408   C410    1.385   .     A
C409   C411    1.410   .     A
C410   C412    1.410   .     A
C411   O435    1.384   .     S
C411   C413    1.421   .     A
C412   O437    1.384   .     S
C412   C414    1.421   .     A
C413   C419    1.427   .     A
C413   C415    1.429   .     A
C414   C416    1.429   .     A
C414   C420    1.427   .     A
C415   C417    1.413   .     A
C415   C1118   1.408   .     S
C416   C418    1.413   .     A
C416   C1117   1.408   1_554 S
C419   C439    1.486   .     S
C419   C1095   1.413   .     S
C420   C442    1.486   .     S
C420   C1096   1.413   1_554 S
Cu421  O433    1.962   .     S
Cu421  Cu422   2.714   .     S
Cu421  O427    1.954   .     S
Cu421  O431    1.966   .     S
Cu421  N425    2.040   .     S
Cu421  O429    1.949   .     S
Cu422  O428    1.954   .     S
Cu422  O434    1.962   .     S
Cu422  N426    2.040   .     S
Cu422  O430    1.949   .     S
Cu422  O432    1.966   .     S
O435   H436    0.990   .     S
O437   H438    0.990   .     S
C439   O441    1.222   .     D
C439   H440    1.085   .     S
C442   O444    1.222   .     D
C442   H443    1.085   .     S
O445   H446    0.990   .     S
O447   H448    0.990   .     S
O449   H450    0.990   .     S
O451   H452    0.990   .     S
O453   H454    0.990   .     S
O455   H456    0.990   .     S
C457   H458    1.083   .     S
C457   O459    1.221   .     D
C460   H461    1.083   .     S
C460   O462    1.221   .     D
C463   H464    1.072   .     S
C463   O465    1.221   .     D
C466   O468    1.221   .     D
C466   H467    1.072   .     S
C469   O508    1.298   .     A
C469   O505    1.300   .     A
C469   C478    1.443   .     S
C470   O507    1.298   .     A
C470   O506    1.300   .     A
C470   C477    1.443   .     S
C471   O523    1.385   .     S
C471   C496    1.405   .     A
C471   C1199   1.413   1_554 S
C472   O525    1.385   .     S
C472   C495    1.405   .     A
C472   C1200   1.413   .     S
C473   O527    1.383   .     S
C473   C478    1.402   .     A
C473   C631    1.408   1_455 S
C474   C477    1.402   .     A
C474   O529    1.383   .     S
C474   C554    1.408   .     S
C475   O531    1.382   .     S
C475   C477    1.402   .     A
C475   C551    1.408   .     S
C476   O533    1.382   .     S
C476   C478    1.402   .     A
C476   C630    1.408   1_455 S
C479   N504    1.370   .     A
C479   C535    1.475   .     S
C480   N503    1.370   .     A
C480   C538    1.475   .     S
C480   C13     1.432   1_565 S
C481   N504    1.382   .     A
C481   C541    1.481   .     S
C482   N503    1.382   .     A
C482   C544    1.481   .     S
C482   C11     1.432   1_565 S
C483   O512    1.301   .     A
C483   C488    1.455   .     S
C483   O509    1.303   .     A
C484   O510    1.303   .     A
C484   O511    1.301   .     A
C484   C487    1.455   .     S
C485   H501    1.082   .     S
C485   C495    1.392   .     A
C485   C487    1.385   .     A
C486   C496    1.392   .     A
C486   H502    1.082   .     S
C486   C488    1.385   .     A
C487   C489    1.410   .     A
C488   C490    1.410   .     A
C489   O513    1.384   .     S
C489   C491    1.421   .     A
C490   O515    1.384   .     S
C490   C492    1.421   .     A
C491   C497    1.427   .     A
C491   C493    1.429   .     A
C492   C494    1.429   .     A
C492   C498    1.427   .     A
C493   C495    1.413   .     A
C493   C1196   1.408   .     S
C494   C496    1.413   .     A
C494   C1195   1.408   1_554 S
C497   C517    1.486   .     S
C497   C1173   1.413   .     S
C498   C520    1.486   .     S
C498   C1174   1.413   1_554 S
Cu499  O511    1.962   .     S
Cu499  Cu500   2.714   .     S
Cu499  O505    1.954   .     S
Cu499  O509    1.966   .     S
Cu499  N503    2.040   .     S
Cu499  O507    1.949   .     S
Cu500  O506    1.954   .     S
Cu500  O512    1.962   .     S
Cu500  N504    2.040   .     S
Cu500  O508    1.949   .     S
Cu500  O510    1.966   .     S
O513   H514    0.990   .     S
O515   H516    0.990   .     S
C517   O519    1.222   .     D
C517   H518    1.085   .     S
C520   O522    1.222   .     D
C520   H521    1.085   .     S
O523   H524    0.990   .     S
O525   H526    0.990   .     S
O527   H528    0.990   .     S
O529   H530    0.990   .     S
O531   H532    0.990   .     S
O533   H534    0.990   .     S
C535   H536    1.083   .     S
C535   O537    1.221   .     D
C538   H539    1.083   .     S
C538   O540    1.221   .     D
C541   H542    1.072   .     S
C541   O543    1.221   .     D
C544   O546    1.221   .     D
C544   H545    1.072   .     S
C547   O586    1.298   .     A
C547   O583    1.300   .     A
C547   C556    1.443   .     S
C548   O585    1.298   .     A
C548   O584    1.300   .     A
C548   C555    1.443   .     S
C549   O601    1.385   .     S
C549   C574    1.405   .     A
C549   C1277   1.413   1_554 S
C550   O603    1.385   .     S
C550   C573    1.405   .     A
C550   C1278   1.413   .     S
C551   O605    1.383   .     S
C551   C556    1.402   .     A
C552   C555    1.402   .     A
C552   O607    1.383   .     S
C552   C632    1.408   .     S
C553   O609    1.382   .     S
C553   C555    1.402   .     A
C553   C629    1.408   .     S
C554   O611    1.382   .     S
C554   C556    1.402   .     A
C557   N582    1.370   .     A
C557   C613    1.475   .     S
C558   N581    1.370   .     A
C558   C616    1.475   .     S
C558   C91     1.432   1_565 S
C559   N582    1.382   .     A
C559   C619    1.481   .     S
C560   N581    1.382   .     A
C560   C622    1.481   .     S
C560   C89     1.432   1_565 S
C561   O590    1.301   .     A
C561   C566    1.455   .     S
C561   O587    1.303   .     A
C562   O588    1.303   .     A
C562   O589    1.301   .     A
C562   C565    1.455   .     S
C563   H579    1.082   .     S
C563   C573    1.392   .     A
C563   C565    1.385   .     A
C564   C574    1.392   .     A
C564   H580    1.082   .     S
C564   C566    1.385   .     A
C565   C567    1.410   .     A
C566   C568    1.410   .     A
C567   O591    1.384   .     S
C567   C569    1.421   .     A
C568   O593    1.384   .     S
C568   C570    1.421   .     A
C569   C575    1.427   .     A
C569   C571    1.429   .     A
C570   C572    1.429   .     A
C570   C576    1.427   .     A
C571   C573    1.413   .     A
C571   C1274   1.408   .     S
C572   C574    1.413   .     A
C572   C1273   1.408   1_554 S
C575   C595    1.486   .     S
C575   C1251   1.413   .     S
C576   C598    1.486   .     S
C576   C1252   1.413   1_554 S
Cu577  O589    1.962   .     S
Cu577  Cu578   2.714   .     S
Cu577  O583    1.954   .     S
Cu577  O587    1.966   .     S
Cu577  N581    2.040   .     S
Cu577  O585    1.949   .     S
Cu578  O584    1.954   .     S
Cu578  O590    1.962   .     S
Cu578  N582    2.040   .     S
Cu578  O586    1.949   .     S
Cu578  O588    1.966   .     S
O591   H592    0.990   .     S
O593   H594    0.990   .     S
C595   O597    1.222   .     D
C595   H596    1.085   .     S
C598   O600    1.222   .     D
C598   H599    1.085   .     S
O601   H602    0.990   .     S
O603   H604    0.990   .     S
O605   H606    0.990   .     S
O607   H608    0.990   .     S
O609   H610    0.990   .     S
O611   H612    0.990   .     S
C613   H614    1.083   .     S
C613   O615    1.221   .     D
C616   H617    1.083   .     S
C616   O618    1.221   .     D
C619   H620    1.072   .     S
C619   O621    1.221   .     D
C622   O624    1.221   .     D
C622   H623    1.072   .     S
C625   O664    1.298   .     A
C625   O661    1.300   .     A
C625   C634    1.443   .     S
C626   O663    1.298   .     A
C626   O662    1.300   .     A
C626   C633    1.443   .     S
C627   O679    1.385   .     S
C627   C652    1.405   .     A
C627   C1355   1.413   1_554 S
C628   O681    1.385   .     S
C628   C651    1.405   .     A
C628   C1356   1.413   .     S
C629   O683    1.383   .     S
C629   C634    1.402   .     A
C630   C633    1.402   .     A
C630   O685    1.383   .     S
C630   C476    1.408   1_655 S
C631   O687    1.382   .     S
C631   C633    1.402   .     A
C631   C473    1.408   1_655 S
C632   O689    1.382   .     S
C632   C634    1.402   .     A
C635   N660    1.370   .     A
C635   C691    1.475   .     S
C636   N659    1.370   .     A
C636   C694    1.475   .     S
C636   C169    1.432   1_565 S
C637   N660    1.382   .     A
C637   C697    1.481   .     S
C638   N659    1.382   .     A
C638   C700    1.481   .     S
C638   C167    1.432   1_565 S
C639   O668    1.301   .     A
C639   C644    1.455   .     S
C639   O665    1.303   .     A
C640   O666    1.303   .     A
C640   O667    1.301   .     A
C640   C643    1.455   .     S
C641   H657    1.082   .     S
C641   C651    1.392   .     A
C641   C643    1.385   .     A
C642   C652    1.392   .     A
C642   H658    1.082   .     S
C642   C644    1.385   .     A
C643   C645    1.410   .     A
C644   C646    1.410   .     A
C645   O669    1.384   .     S
C645   C647    1.421   .     A
C646   O671    1.384   .     S
C646   C648    1.421   .     A
C647   C653    1.427   .     A
C647   C649    1.429   .     A
C648   C650    1.429   .     A
C648   C654    1.427   .     A
C649   C651    1.413   .     A
C649   C1352   1.408   .     S
C650   C652    1.413   .     A
C650   C1351   1.408   1_554 S
C653   C673    1.486   .     S
C653   C1329   1.413   .     S
C654   C676    1.486   .     S
C654   C1330   1.413   1_554 S
Cu655  O667    1.962   .     S
Cu655  Cu656   2.714   .     S
Cu655  O661    1.954   .     S
Cu655  O665    1.966   .     S
Cu655  N659    2.040   .     S
Cu655  O663    1.949   .     S
Cu656  O662    1.954   .     S
Cu656  O668    1.962   .     S
Cu656  N660    2.040   .     S
Cu656  O664    1.949   .     S
Cu656  O666    1.966   .     S
O669   H670    0.990   .     S
O671   H672    0.990   .     S
C673   O675    1.222   .     D
C673   H674    1.085   .     S
C676   O678    1.222   .     D
C676   H677    1.085   .     S
O679   H680    0.990   .     S
O681   H682    0.990   .     S
O683   H684    0.990   .     S
O685   H686    0.990   .     S
O687   H688    0.990   .     S
O689   H690    0.990   .     S
C691   H692    1.083   .     S
C691   O693    1.221   .     D
C694   H695    1.083   .     S
C694   O696    1.221   .     D
C697   H698    1.072   .     S
C697   O699    1.221   .     D
C700   O702    1.221   .     D
C700   H701    1.072   .     S
C703   O742    1.298   .     A
C703   O739    1.300   .     A
C703   C712    1.443   .     S
C704   O741    1.298   .     A
C704   O740    1.300   .     A
C704   C711    1.443   .     S
C705   O757    1.385   .     S
C705   C730    1.405   .     A
C706   O759    1.385   .     S
C706   C729    1.405   .     A
C706   C30     1.413   1_556 S
C707   O761    1.383   .     S
C707   C712    1.402   .     A
C707   C865    1.408   1_455 S
C708   C711    1.402   .     A
C708   O763    1.383   .     S
C708   C788    1.408   .     S
C709   O765    1.382   .     S
C709   C711    1.402   .     A
C709   C785    1.408   .     S
C710   O767    1.382   .     S
C710   C712    1.402   .     A
C710   C864    1.408   1_455 S
C713   N738    1.370   .     A
C713   C769    1.475   .     S
C713   C1184   1.432   1_545 S
C714   N737    1.370   .     A
C714   C772    1.475   .     S
C714   C949    1.432   .     S
C715   N738    1.382   .     A
C715   C775    1.481   .     S
C715   C1182   1.432   1_545 S
C716   N737    1.382   .     A
C716   C778    1.481   .     S
C716   C947    1.432   .     S
C717   O746    1.301   .     A
C717   C722    1.455   .     S
C717   O743    1.303   .     A
C718   O744    1.303   .     A
C718   O745    1.301   .     A
C718   C721    1.455   .     S
C719   H735    1.082   .     S
C719   C729    1.392   .     A
C719   C721    1.385   .     A
C720   C730    1.392   .     A
C720   H736    1.082   .     S
C720   C722    1.385   .     A
C721   C723    1.410   .     A
C722   C724    1.410   .     A
C723   O747    1.384   .     S
C723   C725    1.421   .     A
C724   O749    1.384   .     S
C724   C726    1.421   .     A
C725   C731    1.427   .     A
C725   C727    1.429   .     A
C726   C728    1.429   .     A
C726   C732    1.427   .     A
C727   C729    1.413   .     A
C727   C26     1.408   1_556 S
C728   C730    1.413   .     A
C731   C751    1.486   .     S
C731   C3      1.413   1_556 S
C732   C754    1.486   .     S
Cu733  O745    1.962   .     S
Cu733  Cu734   2.714   .     S
Cu733  O739    1.954   .     S
Cu733  O743    1.966   .     S
Cu733  N737    2.040   .     S
Cu733  O741    1.949   .     S
Cu734  O740    1.954   .     S
Cu734  O746    1.962   .     S
Cu734  N738    2.040   .     S
Cu734  O742    1.949   .     S
Cu734  O744    1.966   .     S
O747   H748    0.990   .     S
O749   H750    0.990   .     S
C751   O753    1.222   .     D
C751   H752    1.085   .     S
C754   O756    1.222   .     D
C754   H755    1.085   .     S
O757   H758    0.990   .     S
O759   H760    0.990   .     S
O761   H762    0.990   .     S
O763   H764    0.990   .     S
O765   H766    0.990   .     S
O767   H768    0.990   .     S
C769   H770    1.083   .     S
C769   O771    1.221   .     D
C772   H773    1.083   .     S
C772   O774    1.221   .     D
C775   H776    1.072   .     S
C775   O777    1.221   .     D
C778   O780    1.221   .     D
C778   H779    1.072   .     S
C781   O820    1.298   .     A
C781   O817    1.300   .     A
C781   C790    1.443   .     S
C782   O819    1.298   .     A
C782   O818    1.300   .     A
C782   C789    1.443   .     S
C783   O835    1.385   .     S
C783   C808    1.405   .     A
C784   O837    1.385   .     S
C784   C807    1.405   .     A
C784   C108    1.413   1_556 S
C785   O839    1.383   .     S
C785   C790    1.402   .     A
C786   C789    1.402   .     A
C786   O841    1.383   .     S
C786   C866    1.408   .     S
C787   O843    1.382   .     S
C787   C789    1.402   .     A
C787   C863    1.408   .     S
C788   O845    1.382   .     S
C788   C790    1.402   .     A
C791   N816    1.370   .     A
C791   C847    1.475   .     S
C791   C1262   1.432   1_545 S
C792   N815    1.370   .     A
C792   C850    1.475   .     S
C792   C1027   1.432   .     S
C793   N816    1.382   .     A
C793   C853    1.481   .     S
C793   C1260   1.432   1_545 S
C794   N815    1.382   .     A
C794   C856    1.481   .     S
C794   C1025   1.432   .     S
C795   O824    1.301   .     A
C795   C800    1.455   .     S
C795   O821    1.303   .     A
C796   O822    1.303   .     A
C796   O823    1.301   .     A
C796   C799    1.455   .     S
C797   H813    1.082   .     S
C797   C807    1.392   .     A
C797   C799    1.385   .     A
C798   C808    1.392   .     A
C798   H814    1.082   .     S
C798   C800    1.385   .     A
C799   C801    1.410   .     A
C800   C802    1.410   .     A
C801   O825    1.384   .     S
C801   C803    1.421   .     A
C802   O827    1.384   .     S
C802   C804    1.421   .     A
C803   C809    1.427   .     A
C803   C805    1.429   .     A
C804   C806    1.429   .     A
C804   C810    1.427   .     A
C805   C807    1.413   .     A
C805   C104    1.408   1_556 S
C806   C808    1.413   .     A
C809   C829    1.486   .     S
C809   C81     1.413   1_556 S
C810   C832    1.486   .     S
Cu811  O823    1.962   .     S
Cu811  Cu812   2.714   .     S
Cu811  O817    1.954   .     S
Cu811  O821    1.966   .     S
Cu811  N815    2.040   .     S
Cu811  O819    1.949   .     S
Cu812  O818    1.954   .     S
Cu812  O824    1.962   .     S
Cu812  N816    2.040   .     S
Cu812  O820    1.949   .     S
Cu812  O822    1.966   .     S
O825   H826    0.990   .     S
O827   H828    0.990   .     S
C829   O831    1.222   .     D
C829   H830    1.085   .     S
C832   O834    1.222   .     D
C832   H833    1.085   .     S
O835   H836    0.990   .     S
O837   H838    0.990   .     S
O839   H840    0.990   .     S
O841   H842    0.990   .     S
O843   H844    0.990   .     S
O845   H846    0.990   .     S
C847   H848    1.083   .     S
C847   O849    1.221   .     D
C850   H851    1.083   .     S
C850   O852    1.221   .     D
C853   H854    1.072   .     S
C853   O855    1.221   .     D
C856   O858    1.221   .     D
C856   H857    1.072   .     S
C859   O898    1.298   .     A
C859   O895    1.300   .     A
C859   C868    1.443   .     S
C860   O897    1.298   .     A
C860   O896    1.300   .     A
C860   C867    1.443   .     S
C861   O913    1.385   .     S
C861   C886    1.405   .     A
C862   O915    1.385   .     S
C862   C885    1.405   .     A
C862   C186    1.413   1_556 S
C863   O917    1.383   .     S
C863   C868    1.402   .     A
C864   C867    1.402   .     A
C864   O919    1.383   .     S
C864   C710    1.408   1_655 S
C865   O921    1.382   .     S
C865   C867    1.402   .     A
C865   C707    1.408   1_655 S
C866   O923    1.382   .     S
C866   C868    1.402   .     A
C869   N894    1.370   .     A
C869   C925    1.475   .     S
C869   C1340   1.432   1_545 S
C870   N893    1.370   .     A
C870   C928    1.475   .     S
C870   C1105   1.432   .     S
C871   N894    1.382   .     A
C871   C931    1.481   .     S
C871   C1338   1.432   1_545 S
C872   N893    1.382   .     A
C872   C934    1.481   .     S
C872   C1103   1.432   .     S
C873   O902    1.301   .     A
C873   C878    1.455   .     S
C873   O899    1.303   .     A
C874   O900    1.303   .     A
C874   O901    1.301   .     A
C874   C877    1.455   .     S
C875   H891    1.082   .     S
C875   C885    1.392   .     A
C875   C877    1.385   .     A
C876   C886    1.392   .     A
C876   H892    1.082   .     S
C876   C878    1.385   .     A
C877   C879    1.410   .     A
C878   C880    1.410   .     A
C879   O903    1.384   .     S
C879   C881    1.421   .     A
C880   O905    1.384   .     S
C880   C882    1.421   .     A
C881   C887    1.427   .     A
C881   C883    1.429   .     A
C882   C884    1.429   .     A
C882   C888    1.427   .     A
C883   C885    1.413   .     A
C883   C182    1.408   1_556 S
C884   C886    1.413   .     A
C887   C907    1.486   .     S
C887   C159    1.413   1_556 S
C888   C910    1.486   .     S
Cu889  O901    1.962   .     S
Cu889  Cu890   2.714   .     S
Cu889  O895    1.954   .     S
Cu889  O899    1.966   .     S
Cu889  N893    2.040   .     S
Cu889  O897    1.949   .     S
Cu890  O896    1.954   .     S
Cu890  O902    1.962   .     S
Cu890  N894    2.040   .     S
Cu890  O898    1.949   .     S
Cu890  O900    1.966   .     S
O903   H904    0.990   .     S
O905   H906    0.990   .     S
C907   O909    1.222   .     D
C907   H908    1.085   .     S
C910   O912    1.222   .     D
C910   H911    1.085   .     S
O913   H914    0.990   .     S
O915   H916    0.990   .     S
O917   H918    0.990   .     S
O919   H920    0.990   .     S
O921   H922    0.990   .     S
O923   H924    0.990   .     S
C925   H926    1.083   .     S
C925   O927    1.221   .     D
C928   H929    1.083   .     S
C928   O930    1.221   .     D
C931   H932    1.072   .     S
C931   O933    1.221   .     D
C934   O936    1.221   .     D
C934   H935    1.072   .     S
C937   O976    1.298   .     A
C937   O973    1.300   .     A
C937   C946    1.443   .     S
C938   O975    1.298   .     A
C938   O974    1.300   .     A
C938   C945    1.443   .     S
C939   O991    1.385   .     S
C939   C964    1.405   .     A
C940   O993    1.385   .     S
C940   C963    1.405   .     A
C940   C264    1.413   1_556 S
C941   O995    1.383   .     S
C941   C946    1.402   .     A
C941   C1099   1.408   1_455 S
C942   C945    1.402   .     A
C942   O997    1.383   .     S
C942   C1022   1.408   .     S
C943   O999    1.382   .     S
C943   C945    1.402   .     A
C943   C1019   1.408   .     S
C944   O1001   1.382   .     S
C944   C946    1.402   .     A
C944   C1098   1.408   1_455 S
C947   N972    1.370   .     A
C947   C1003   1.475   .     S
C948   N971    1.370   .     A
C948   C1006   1.475   .     S
C948   C1183   1.432   .     S
C949   N972    1.382   .     A
C949   C1009   1.481   .     S
C950   N971    1.382   .     A
C950   C1012   1.481   .     S
C950   C1181   1.432   .     S
C951   O980    1.301   .     A
C951   C956    1.455   .     S
C951   O977    1.303   .     A
C952   O978    1.303   .     A
C952   O979    1.301   .     A
C952   C955    1.455   .     S
C953   H969    1.082   .     S
C953   C963    1.392   .     A
C953   C955    1.385   .     A
C954   C964    1.392   .     A
C954   H970    1.082   .     S
C954   C956    1.385   .     A
C955   C957    1.410   .     A
C956   C958    1.410   .     A
C957   O981    1.384   .     S
C957   C959    1.421   .     A
C958   O983    1.384   .     S
C958   C960    1.421   .     A
C959   C965    1.427   .     A
C959   C961    1.429   .     A
C960   C962    1.429   .     A
C960   C966    1.427   .     A
C961   C963    1.413   .     A
C961   C260    1.408   1_556 S
C962   C964    1.413   .     A
C965   C985    1.486   .     S
C965   C237    1.413   1_556 S
C966   C988    1.486   .     S
Cu967  O979    1.962   .     S
Cu967  Cu968   2.714   .     S
Cu967  O973    1.954   .     S
Cu967  O977    1.966   .     S
Cu967  N971    2.040   .     S
Cu967  O975    1.949   .     S
Cu968  O974    1.954   .     S
Cu968  O980    1.962   .     S
Cu968  N972    2.040   .     S
Cu968  O976    1.949   .     S
Cu968  O978    1.966   .     S
O981   H982    0.990   .     S
O983   H984    0.990   .     S
C985   O987    1.222   .     D
C985   H986    1.085   .     S
C988   O990    1.222   .     D
C988   H989    1.085   .     S
O991   H992    0.990   .     S
O993   H994    0.990   .     S
O995   H996    0.990   .     S
O997   H998    0.990   .     S
O999   H1000   0.990   .     S
O1001  H1002   0.990   .     S
C1003  H1004   1.083   .     S
C1003  O1005   1.221   .     D
C1006  H1007   1.083   .     S
C1006  O1008   1.221   .     D
C1009  H1010   1.072   .     S
C1009  O1011   1.221   .     D
C1012  O1014   1.221   .     D
C1012  H1013   1.072   .     S
C1015  O1054   1.298   .     A
C1015  O1051   1.300   .     A
C1015  C1024   1.443   .     S
C1016  O1053   1.298   .     A
C1016  O1052   1.300   .     A
C1016  C1023   1.443   .     S
C1017  O1069   1.385   .     S
C1017  C1042   1.405   .     A
C1018  O1071   1.385   .     S
C1018  C1041   1.405   .     A
C1018  C342    1.413   1_556 S
C1019  O1073   1.383   .     S
C1019  C1024   1.402   .     A
C1020  C1023   1.402   .     A
C1020  O1075   1.383   .     S
C1020  C1100   1.408   .     S
C1021  O1077   1.382   .     S
C1021  C1023   1.402   .     A
C1021  C1097   1.408   .     S
C1022  O1079   1.382   .     S
C1022  C1024   1.402   .     A
C1025  N1050   1.370   .     A
C1025  C1081   1.475   .     S
C1026  N1049   1.370   .     A
C1026  C1084   1.475   .     S
C1026  C1261   1.432   .     S
C1027  N1050   1.382   .     A
C1027  C1087   1.481   .     S
C1028  N1049   1.382   .     A
C1028  C1090   1.481   .     S
C1028  C1259   1.432   .     S
C1029  O1058   1.301   .     A
C1029  C1034   1.455   .     S
C1029  O1055   1.303   .     A
C1030  O1056   1.303   .     A
C1030  O1057   1.301   .     A
C1030  C1033   1.455   .     S
C1031  H1047   1.082   .     S
C1031  C1041   1.392   .     A
C1031  C1033   1.385   .     A
C1032  C1042   1.392   .     A
C1032  H1048   1.082   .     S
C1032  C1034   1.385   .     A
C1033  C1035   1.410   .     A
C1034  C1036   1.410   .     A
C1035  O1059   1.384   .     S
C1035  C1037   1.421   .     A
C1036  O1061   1.384   .     S
C1036  C1038   1.421   .     A
C1037  C1043   1.427   .     A
C1037  C1039   1.429   .     A
C1038  C1040   1.429   .     A
C1038  C1044   1.427   .     A
C1039  C1041   1.413   .     A
C1039  C338    1.408   1_556 S
C1040  C1042   1.413   .     A
C1043  C1063   1.486   .     S
C1043  C315    1.413   1_556 S
C1044  C1066   1.486   .     S
Cu1045 O1057   1.962   .     S
Cu1045 Cu1046  2.714   .     S
Cu1045 O1051   1.954   .     S
Cu1045 O1055   1.966   .     S
Cu1045 N1049   2.040   .     S
Cu1045 O1053   1.949   .     S
Cu1046 O1052   1.954   .     S
Cu1046 O1058   1.962   .     S
Cu1046 N1050   2.040   .     S
Cu1046 O1054   1.949   .     S
Cu1046 O1056   1.966   .     S
O1059  H1060   0.990   .     S
O1061  H1062   0.990   .     S
C1063  O1065   1.222   .     D
C1063  H1064   1.085   .     S
C1066  O1068   1.222   .     D
C1066  H1067   1.085   .     S
O1069  H1070   0.990   .     S
O1071  H1072   0.990   .     S
O1073  H1074   0.990   .     S
O1075  H1076   0.990   .     S
O1077  H1078   0.990   .     S
O1079  H1080   0.990   .     S
C1081  H1082   1.083   .     S
C1081  O1083   1.221   .     D
C1084  H1085   1.083   .     S
C1084  O1086   1.221   .     D
C1087  H1088   1.072   .     S
C1087  O1089   1.221   .     D
C1090  O1092   1.221   .     D
C1090  H1091   1.072   .     S
C1093  O1132   1.298   .     A
C1093  O1129   1.300   .     A
C1093  C1102   1.443   .     S
C1094  O1131   1.298   .     A
C1094  O1130   1.300   .     A
C1094  C1101   1.443   .     S
C1095  O1147   1.385   .     S
C1095  C1120   1.405   .     A
C1096  O1149   1.385   .     S
C1096  C1119   1.405   .     A
C1096  C420    1.413   1_556 S
C1097  O1151   1.383   .     S
C1097  C1102   1.402   .     A
C1098  C1101   1.402   .     A
C1098  O1153   1.383   .     S
C1098  C944    1.408   1_655 S
C1099  O1155   1.382   .     S
C1099  C1101   1.402   .     A
C1099  C941    1.408   1_655 S
C1100  O1157   1.382   .     S
C1100  C1102   1.402   .     A
C1103  N1128   1.370   .     A
C1103  C1159   1.475   .     S
C1104  N1127   1.370   .     A
C1104  C1162   1.475   .     S
C1104  C1339   1.432   .     S
C1105  N1128   1.382   .     A
C1105  C1165   1.481   .     S
C1106  N1127   1.382   .     A
C1106  C1168   1.481   .     S
C1106  C1337   1.432   .     S
C1107  O1136   1.301   .     A
C1107  C1112   1.455   .     S
C1107  O1133   1.303   .     A
C1108  O1134   1.303   .     A
C1108  O1135   1.301   .     A
C1108  C1111   1.455   .     S
C1109  H1125   1.082   .     S
C1109  C1119   1.392   .     A
C1109  C1111   1.385   .     A
C1110  C1120   1.392   .     A
C1110  H1126   1.082   .     S
C1110  C1112   1.385   .     A
C1111  C1113   1.410   .     A
C1112  C1114   1.410   .     A
C1113  O1137   1.384   .     S
C1113  C1115   1.421   .     A
C1114  O1139   1.384   .     S
C1114  C1116   1.421   .     A
C1115  C1121   1.427   .     A
C1115  C1117   1.429   .     A
C1116  C1118   1.429   .     A
C1116  C1122   1.427   .     A
C1117  C1119   1.413   .     A
C1117  C416    1.408   1_556 S
C1118  C1120   1.413   .     A
C1121  C1141   1.486   .     S
C1121  C393    1.413   1_556 S
C1122  C1144   1.486   .     S
Cu1123 O1135   1.962   .     S
Cu1123 Cu1124  2.714   .     S
Cu1123 O1129   1.954   .     S
Cu1123 O1133   1.966   .     S
Cu1123 N1127   2.040   .     S
Cu1123 O1131   1.949   .     S
Cu1124 O1130   1.954   .     S
Cu1124 O1136   1.962   .     S
Cu1124 N1128   2.040   .     S
Cu1124 O1132   1.949   .     S
Cu1124 O1134   1.966   .     S
O1137  H1138   0.990   .     S
O1139  H1140   0.990   .     S
C1141  O1143   1.222   .     D
C1141  H1142   1.085   .     S
C1144  O1146   1.222   .     D
C1144  H1145   1.085   .     S
O1147  H1148   0.990   .     S
O1149  H1150   0.990   .     S
O1151  H1152   0.990   .     S
O1153  H1154   0.990   .     S
O1155  H1156   0.990   .     S
O1157  H1158   0.990   .     S
C1159  H1160   1.083   .     S
C1159  O1161   1.221   .     D
C1162  H1163   1.083   .     S
C1162  O1164   1.221   .     D
C1165  H1166   1.072   .     S
C1165  O1167   1.221   .     D
C1168  O1170   1.221   .     D
C1168  H1169   1.072   .     S
C1171  O1210   1.298   .     A
C1171  O1207   1.300   .     A
C1171  C1180   1.443   .     S
C1172  O1209   1.298   .     A
C1172  O1208   1.300   .     A
C1172  C1179   1.443   .     S
C1173  O1225   1.385   .     S
C1173  C1198   1.405   .     A
C1174  O1227   1.385   .     S
C1174  C1197   1.405   .     A
C1174  C498    1.413   1_556 S
C1175  O1229   1.383   .     S
C1175  C1180   1.402   .     A
C1175  C1333   1.408   1_455 S
C1176  C1179   1.402   .     A
C1176  O1231   1.383   .     S
C1176  C1256   1.408   .     S
C1177  O1233   1.382   .     S
C1177  C1179   1.402   .     A
C1177  C1253   1.408   .     S
C1178  O1235   1.382   .     S
C1178  C1180   1.402   .     A
C1178  C1332   1.408   1_455 S
C1181  N1206   1.370   .     A
C1181  C1237   1.475   .     S
C1182  N1205   1.370   .     A
C1182  C1240   1.475   .     S
C1182  C715    1.432   1_565 S
C1183  N1206   1.382   .     A
C1183  C1243   1.481   .     S
C1184  N1205   1.382   .     A
C1184  C1246   1.481   .     S
C1184  C713    1.432   1_565 S
C1185  O1214   1.301   .     A
C1185  C1190   1.455   .     S
C1185  O1211   1.303   .     A
C1186  O1212   1.303   .     A
C1186  O1213   1.301   .     A
C1186  C1189   1.455   .     S
C1187  H1203   1.082   .     S
C1187  C1197   1.392   .     A
C1187  C1189   1.385   .     A
C1188  C1198   1.392   .     A
C1188  H1204   1.082   .     S
C1188  C1190   1.385   .     A
C1189  C1191   1.410   .     A
C1190  C1192   1.410   .     A
C1191  O1215   1.384   .     S
C1191  C1193   1.421   .     A
C1192  O1217   1.384   .     S
C1192  C1194   1.421   .     A
C1193  C1199   1.427   .     A
C1193  C1195   1.429   .     A
C1194  C1196   1.429   .     A
C1194  C1200   1.427   .     A
C1195  C1197   1.413   .     A
C1195  C494    1.408   1_556 S
C1196  C1198   1.413   .     A
C1199  C1219   1.486   .     S
C1199  C471    1.413   1_556 S
C1200  C1222   1.486   .     S
Cu1201 O1213   1.962   .     S
Cu1201 Cu1202  2.714   .     S
Cu1201 O1207   1.954   .     S
Cu1201 O1211   1.966   .     S
Cu1201 N1205   2.040   .     S
Cu1201 O1209   1.949   .     S
Cu1202 O1208   1.954   .     S
Cu1202 O1214   1.962   .     S
Cu1202 N1206   2.040   .     S
Cu1202 O1210   1.949   .     S
Cu1202 O1212   1.966   .     S
O1215  H1216   0.990   .     S
O1217  H1218   0.990   .     S
C1219  O1221   1.222   .     D
C1219  H1220   1.085   .     S
C1222  O1224   1.222   .     D
C1222  H1223   1.085   .     S
O1225  H1226   0.990   .     S
O1227  H1228   0.990   .     S
O1229  H1230   0.990   .     S
O1231  H1232   0.990   .     S
O1233  H1234   0.990   .     S
O1235  H1236   0.990   .     S
C1237  H1238   1.083   .     S
C1237  O1239   1.221   .     D
C1240  H1241   1.083   .     S
C1240  O1242   1.221   .     D
C1243  H1244   1.072   .     S
C1243  O1245   1.221   .     D
C1246  O1248   1.221   .     D
C1246  H1247   1.072   .     S
C1249  O1288   1.298   .     A
C1249  O1285   1.300   .     A
C1249  C1258   1.443   .     S
C1250  O1287   1.298   .     A
C1250  O1286   1.300   .     A
C1250  C1257   1.443   .     S
C1251  O1303   1.385   .     S
C1251  C1276   1.405   .     A
C1252  O1305   1.385   .     S
C1252  C1275   1.405   .     A
C1252  C576    1.413   1_556 S
C1253  O1307   1.383   .     S
C1253  C1258   1.402   .     A
C1254  C1257   1.402   .     A
C1254  O1309   1.383   .     S
C1254  C1334   1.408   .     S
C1255  O1311   1.382   .     S
C1255  C1257   1.402   .     A
C1255  C1331   1.408   .     S
C1256  O1313   1.382   .     S
C1256  C1258   1.402   .     A
C1259  N1284   1.370   .     A
C1259  C1315   1.475   .     S
C1260  N1283   1.370   .     A
C1260  C1318   1.475   .     S
C1260  C793    1.432   1_565 S
C1261  N1284   1.382   .     A
C1261  C1321   1.481   .     S
C1262  N1283   1.382   .     A
C1262  C1324   1.481   .     S
C1262  C791    1.432   1_565 S
C1263  O1292   1.301   .     A
C1263  C1268   1.455   .     S
C1263  O1289   1.303   .     A
C1264  O1290   1.303   .     A
C1264  O1291   1.301   .     A
C1264  C1267   1.455   .     S
C1265  H1281   1.082   .     S
C1265  C1275   1.392   .     A
C1265  C1267   1.385   .     A
C1266  C1276   1.392   .     A
C1266  H1282   1.082   .     S
C1266  C1268   1.385   .     A
C1267  C1269   1.410   .     A
C1268  C1270   1.410   .     A
C1269  O1293   1.384   .     S
C1269  C1271   1.421   .     A
C1270  O1295   1.384   .     S
C1270  C1272   1.421   .     A
C1271  C1277   1.427   .     A
C1271  C1273   1.429   .     A
C1272  C1274   1.429   .     A
C1272  C1278   1.427   .     A
C1273  C1275   1.413   .     A
C1273  C572    1.408   1_556 S
C1274  C1276   1.413   .     A
C1277  C1297   1.486   .     S
C1277  C549    1.413   1_556 S
C1278  C1300   1.486   .     S
Cu1279 O1291   1.962   .     S
Cu1279 Cu1280  2.714   .     S
Cu1279 O1285   1.954   .     S
Cu1279 O1289   1.966   .     S
Cu1279 N1283   2.040   .     S
Cu1279 O1287   1.949   .     S
Cu1280 O1286   1.954   .     S
Cu1280 O1292   1.962   .     S
Cu1280 N1284   2.040   .     S
Cu1280 O1288   1.949   .     S
Cu1280 O1290   1.966   .     S
O1293  H1294   0.990   .     S
O1295  H1296   0.990   .     S
C1297  O1299   1.222   .     D
C1297  H1298   1.085   .     S
C1300  O1302   1.222   .     D
C1300  H1301   1.085   .     S
O1303  H1304   0.990   .     S
O1305  H1306   0.990   .     S
O1307  H1308   0.990   .     S
O1309  H1310   0.990   .     S
O1311  H1312   0.990   .     S
O1313  H1314   0.990   .     S
C1315  H1316   1.083   .     S
C1315  O1317   1.221   .     D
C1318  H1319   1.083   .     S
C1318  O1320   1.221   .     D
C1321  H1322   1.072   .     S
C1321  O1323   1.221   .     D
C1324  O1326   1.221   .     D
C1324  H1325   1.072   .     S
C1327  O1366   1.298   .     A
C1327  O1363   1.300   .     A
C1327  C1336   1.443   .     S
C1328  O1365   1.298   .     A
C1328  O1364   1.300   .     A
C1328  C1335   1.443   .     S
C1329  O1381   1.385   .     S
C1329  C1354   1.405   .     A
C1330  O1383   1.385   .     S
C1330  C1353   1.405   .     A
C1330  C654    1.413   1_556 S
C1331  O1385   1.383   .     S
C1331  C1336   1.402   .     A
C1332  C1335   1.402   .     A
C1332  O1387   1.383   .     S
C1332  C1178   1.408   1_655 S
C1333  O1389   1.382   .     S
C1333  C1335   1.402   .     A
C1333  C1175   1.408   1_655 S
C1334  O1391   1.382   .     S
C1334  C1336   1.402   .     A
C1337  N1362   1.370   .     A
C1337  C1393   1.475   .     S
C1338  N1361   1.370   .     A
C1338  C1396   1.475   .     S
C1338  C871    1.432   1_565 S
C1339  N1362   1.382   .     A
C1339  C1399   1.481   .     S
C1340  N1361   1.382   .     A
C1340  C1402   1.481   .     S
C1340  C869    1.432   1_565 S
C1341  O1370   1.301   .     A
C1341  C1346   1.455   .     S
C1341  O1367   1.303   .     A
C1342  O1368   1.303   .     A
C1342  O1369   1.301   .     A
C1342  C1345   1.455   .     S
C1343  H1359   1.082   .     S
C1343  C1353   1.392   .     A
C1343  C1345   1.385   .     A
C1344  C1354   1.392   .     A
C1344  H1360   1.082   .     S
C1344  C1346   1.385   .     A
C1345  C1347   1.410   .     A
C1346  C1348   1.410   .     A
C1347  O1371   1.384   .     S
C1347  C1349   1.421   .     A
C1348  O1373   1.384   .     S
C1348  C1350   1.421   .     A
C1349  C1355   1.427   .     A
C1349  C1351   1.429   .     A
C1350  C1352   1.429   .     A
C1350  C1356   1.427   .     A
C1351  C1353   1.413   .     A
C1351  C650    1.408   1_556 S
C1352  C1354   1.413   .     A
C1355  C1375   1.486   .     S
C1355  C627    1.413   1_556 S
C1356  C1378   1.486   .     S
Cu1357 O1369   1.962   .     S
Cu1357 Cu1358  2.714   .     S
Cu1357 O1363   1.954   .     S
Cu1357 O1367   1.966   .     S
Cu1357 N1361   2.040   .     S
Cu1357 O1365   1.949   .     S
Cu1358 O1364   1.954   .     S
Cu1358 O1370   1.962   .     S
Cu1358 N1362   2.040   .     S
Cu1358 O1366   1.949   .     S
Cu1358 O1368   1.966   .     S
O1371  H1372   0.990   .     S
O1373  H1374   0.990   .     S
C1375  O1377   1.222   .     D
C1375  H1376   1.085   .     S
C1378  O1380   1.222   .     D
C1378  H1379   1.085   .     S
O1381  H1382   0.990   .     S
O1383  H1384   0.990   .     S
O1385  H1386   0.990   .     S
O1387  H1388   0.990   .     S
O1389  H1390   0.990   .     S
O1391  H1392   0.990   .     S
C1393  H1394   1.083   .     S
C1393  O1395   1.221   .     D
C1396  H1397   1.083   .     S
C1396  O1398   1.221   .     D
C1399  H1400   1.072   .     S
C1399  O1401   1.221   .     D
C1402  O1404   1.221   .     D
C1402  H1403   1.072   .     S
