data_str_m2_o1_o18_pcu_sym.118
_audit_creation_date              2020-01-03
_audit_creation_method            'Materials Studio'
_symmetry_space_group_name_H-M    'P1'
_symmetry_Int_Tables_number       1
_symmetry_cell_setting            triclinic
loop_
_symmetry_equiv_pos_as_xyz
  x,y,z
_cell_length_a                    28.5693
_cell_length_b                    32.3620
_cell_length_c                    30.9702
_cell_angle_alpha                 89.6594
_cell_angle_beta                  74.5363
_cell_angle_gamma                 89.8403
loop_
_atom_site_label
_atom_site_type_symbol
_atom_site_fract_x
_atom_site_fract_y
_atom_site_fract_z
_atom_site_U_iso_or_equiv
_atom_site_adp_type
_atom_site_occupancy
C1     C     0.00040   0.08743   0.24892   0.00000  Uiso   1.00
C2     C     0.33292   0.24590   0.25110   0.00000  Uiso   1.00
C3     C     0.19190   0.19201   0.04454   0.00000  Uiso   1.00
C4     C     0.13815   0.16034   0.45255   0.00000  Uiso   1.00
C5     C     0.24030   0.19767   0.02177   0.00000  Uiso   1.00
C6     C     0.08959   0.15545   0.47515   0.00000  Uiso   1.00
C7     C     0.29423   0.02217   0.27653   0.00000  Uiso   1.00
C8     C     0.03910   0.31115   0.22355   0.00000  Uiso   1.00
C9     C     0.29333   0.31270   0.27836   0.00000  Uiso   1.00
C10    C     0.04001   0.02062   0.22172   0.00000  Uiso   1.00
C11    C     0.33267   0.29049   0.25141   0.00000  Uiso   1.00
C12    C     0.00066   0.04284   0.24866   0.00000  Uiso   1.00
C13    C     0.18292   0.14271   0.27969   0.00000  Uiso   1.00
C14    C     0.15041   0.19063   0.22031   0.00000  Uiso   1.00
C15    C     0.13333   0.14274   0.27969   0.00000  Uiso   1.00
C16    C     0.20001   0.19060   0.22031   0.00000  Uiso   1.00
C17    C     0.30610   0.16724   0.33605   0.00000  Uiso   1.00
C18    C     0.02723   0.16655   0.16392   0.00000  Uiso   1.00
C19    C     0.29093   0.17158   0.38489   0.00000  Uiso   1.00
C20    C     0.04221   0.16577   0.11478   0.00000  Uiso   1.00
C21    C     0.30588   0.19451   0.45406   0.00000  Uiso   1.00
C22    C     0.02503   0.15359   0.04366   0.00000  Uiso   1.00
C23    C     0.32292   0.18613   0.40851   0.00000  Uiso   1.00
C24    C     0.00904   0.15690   0.09006   0.00000  Uiso   1.00
C25    C     0.24223   0.16460   0.40731   0.00000  Uiso   1.00
C26    C     0.09107   0.17258   0.09260   0.00000  Uiso   1.00
C27    C     0.22363   0.17439   0.45283   0.00000  Uiso   1.00
C28    C     0.10798   0.17057   0.04569   0.00000  Uiso   1.00
C29    C     0.25667   0.18876   0.47636   0.00000  Uiso   1.00
C30    C     0.07414   0.15996   0.02138   0.00000  Uiso   1.00
C31    C     0.17336   0.17035   0.47548   0.00000  Uiso   1.00
C32    C     0.15764   0.17752   0.02249   0.00000  Uiso   1.00
Cu33   Cu    0.04689   0.16667   0.25000   0.00000  Uiso   1.00
Cu34   Cu    0.28645   0.16666   0.25000   0.00000  Uiso   1.00
H35    H     0.11550   0.17823   0.11298   0.00000  Uiso   1.00
H36    H     0.21967   0.15134   0.38823   0.00000  Uiso   1.00
H37    H     0.30442   0.15140   0.10662   0.00000  Uiso   1.00
H38    H     0.02736   0.19200   0.39163   0.00000  Uiso   1.00
H39    H     0.33102   0.20626   0.47173   0.00000  Uiso   1.00
H40    H     0.33242   0.14544   0.02523   0.00000  Uiso   1.00
H41    H     0.18244   0.20054   0.07934   0.00000  Uiso   1.00
H42    H     0.14649   0.15697   0.41676   0.00000  Uiso   1.00
H43    H     0.19475   0.12343   0.30343   0.00000  Uiso   1.00
H44    H     0.13858   0.20992   0.19657   0.00000  Uiso   1.00
H45    H     0.10781   0.12353   0.30344   0.00000  Uiso   1.00
H46    H     0.22552   0.20980   0.19656   0.00000  Uiso   1.00
N47    N     0.11736   0.16668   0.24999   0.00000  Uiso   1.00
N48    N     0.21597   0.16666   0.25001   0.00000  Uiso   1.00
O49    O     0.03958   0.10655   0.25000   0.00000  Uiso   1.00
O50    O     0.29375   0.22678   0.25000   0.00000  Uiso   1.00
O51    O     0.29372   0.10654   0.25001   0.00000  Uiso   1.00
O52    O     0.03961   0.22679   0.25000   0.00000  Uiso   1.00
O53    O     0.01852   0.16668   0.31491   0.00000  Uiso   1.00
O54    O     0.31481   0.16666   0.18509   0.00000  Uiso   1.00
O55    O     0.27267   0.16667   0.31492   0.00000  Uiso   1.00
O56    O     0.06067   0.16667   0.18508   0.00000  Uiso   1.00
H57    H     0.26519   0.20906   0.03996   0.00000  Uiso   1.00
H58    H     0.06400   0.14758   0.45621   0.00000  Uiso   1.00
H59    H     0.26430   0.03941   0.29769   0.00000  Uiso   1.00
H60    H     0.06904   0.29391   0.20238   0.00000  Uiso   1.00
I61    I     0.23333   0.28454   0.32506   0.00000  Uiso   1.00
I62    I     0.10011   0.04874   0.17500   0.00000  Uiso   1.00
C63    C     0.33374   0.08743   0.24892   0.00000  Uiso   1.00
C64    C     0.66626   0.24590   0.25110   0.00000  Uiso   1.00
C65    C     0.52524   0.19201   0.04454   0.00000  Uiso   1.00
C66    C     0.47148   0.16034   0.45255   0.00000  Uiso   1.00
C67    C     0.57364   0.19767   0.02177   0.00000  Uiso   1.00
C68    C     0.42293   0.15545   0.47515   0.00000  Uiso   1.00
C69    C     0.62756   0.02217   0.27653   0.00000  Uiso   1.00
C70    C     0.37244   0.31115   0.22355   0.00000  Uiso   1.00
C71    C     0.62667   0.31270   0.27836   0.00000  Uiso   1.00
C72    C     0.37335   0.02062   0.22172   0.00000  Uiso   1.00
C73    C     0.66600   0.29049   0.25141   0.00000  Uiso   1.00
C74    C     0.33399   0.04284   0.24866   0.00000  Uiso   1.00
C75    C     0.51626   0.14271   0.27969   0.00000  Uiso   1.00
C76    C     0.48374   0.19063   0.22031   0.00000  Uiso   1.00
C77    C     0.46666   0.14274   0.27969   0.00000  Uiso   1.00
C78    C     0.53334   0.19060   0.22031   0.00000  Uiso   1.00
C79    C     0.63944   0.16724   0.33605   0.00000  Uiso   1.00
C80    C     0.36056   0.16655   0.16392   0.00000  Uiso   1.00
C81    C     0.62426   0.17158   0.38489   0.00000  Uiso   1.00
C82    C     0.37554   0.16577   0.11478   0.00000  Uiso   1.00
C83    C     0.63921   0.19451   0.45406   0.00000  Uiso   1.00
C84    C     0.35837   0.15359   0.04366   0.00000  Uiso   1.00
C85    C     0.65625   0.18613   0.40851   0.00000  Uiso   1.00
C86    C     0.34237   0.15690   0.09006   0.00000  Uiso   1.00
C87    C     0.57556   0.16460   0.40731   0.00000  Uiso   1.00
C88    C     0.42440   0.17258   0.09260   0.00000  Uiso   1.00
C89    C     0.55696   0.17439   0.45283   0.00000  Uiso   1.00
C90    C     0.44131   0.17057   0.04569   0.00000  Uiso   1.00
C91    C     0.59000   0.18876   0.47636   0.00000  Uiso   1.00
C92    C     0.40747   0.15996   0.02138   0.00000  Uiso   1.00
C93    C     0.50669   0.17035   0.47548   0.00000  Uiso   1.00
C94    C     0.49097   0.17752   0.02249   0.00000  Uiso   1.00
Cu95   Cu    0.38022   0.16667   0.25000   0.00000  Uiso   1.00
Cu96   Cu    0.61978   0.16666   0.25000   0.00000  Uiso   1.00
H97    H     0.44883   0.17823   0.11298   0.00000  Uiso   1.00
H98    H     0.55300   0.15134   0.38823   0.00000  Uiso   1.00
H99    H     0.63775   0.15140   0.10662   0.00000  Uiso   1.00
H100   H     0.36069   0.19200   0.39163   0.00000  Uiso   1.00
H101   H     0.66436   0.20626   0.47173   0.00000  Uiso   1.00
H102   H     0.66576   0.14544   0.02523   0.00000  Uiso   1.00
H103   H     0.51578   0.20054   0.07934   0.00000  Uiso   1.00
H104   H     0.47982   0.15697   0.41676   0.00000  Uiso   1.00
H105   H     0.52809   0.12343   0.30343   0.00000  Uiso   1.00
H106   H     0.47191   0.20992   0.19657   0.00000  Uiso   1.00
H107   H     0.44114   0.12353   0.30344   0.00000  Uiso   1.00
H108   H     0.55886   0.20980   0.19656   0.00000  Uiso   1.00
N109   N     0.45069   0.16668   0.24999   0.00000  Uiso   1.00
N110   N     0.54931   0.16666   0.25001   0.00000  Uiso   1.00
O111   O     0.37291   0.10655   0.25000   0.00000  Uiso   1.00
O112   O     0.62709   0.22678   0.25000   0.00000  Uiso   1.00
O113   O     0.62706   0.10654   0.25001   0.00000  Uiso   1.00
O114   O     0.37294   0.22679   0.25000   0.00000  Uiso   1.00
O115   O     0.35186   0.16668   0.31491   0.00000  Uiso   1.00
O116   O     0.64814   0.16666   0.18509   0.00000  Uiso   1.00
O117   O     0.60600   0.16667   0.31492   0.00000  Uiso   1.00
O118   O     0.39400   0.16667   0.18508   0.00000  Uiso   1.00
H119   H     0.59852   0.20906   0.03996   0.00000  Uiso   1.00
H120   H     0.39733   0.14758   0.45621   0.00000  Uiso   1.00
H121   H     0.59763   0.03941   0.29769   0.00000  Uiso   1.00
H122   H     0.40238   0.29391   0.20238   0.00000  Uiso   1.00
I123   I     0.56666   0.28454   0.32506   0.00000  Uiso   1.00
I124   I     0.43344   0.04874   0.17500   0.00000  Uiso   1.00
C125   C     0.66707   0.08743   0.24892   0.00000  Uiso   1.00
C126   C     0.99959   0.24590   0.25110   0.00000  Uiso   1.00
C127   C     0.85857   0.19201   0.04454   0.00000  Uiso   1.00
C128   C     0.80481   0.16034   0.45255   0.00000  Uiso   1.00
C129   C     0.90697   0.19767   0.02177   0.00000  Uiso   1.00
C130   C     0.75626   0.15545   0.47515   0.00000  Uiso   1.00
C131   C     0.96090   0.02217   0.27653   0.00000  Uiso   1.00
C132   C     0.70577   0.31115   0.22355   0.00000  Uiso   1.00
C133   C     0.96000   0.31270   0.27836   0.00000  Uiso   1.00
C134   C     0.70668   0.02062   0.22172   0.00000  Uiso   1.00
C135   C     0.99934   0.29049   0.25141   0.00000  Uiso   1.00
C136   C     0.66732   0.04284   0.24866   0.00000  Uiso   1.00
C137   C     0.84959   0.14271   0.27969   0.00000  Uiso   1.00
C138   C     0.81708   0.19063   0.22031   0.00000  Uiso   1.00
C139   C     0.79999   0.14274   0.27969   0.00000  Uiso   1.00
C140   C     0.86667   0.19060   0.22031   0.00000  Uiso   1.00
C141   C     0.97277   0.16724   0.33605   0.00000  Uiso   1.00
C142   C     0.69390   0.16655   0.16392   0.00000  Uiso   1.00
C143   C     0.95760   0.17158   0.38489   0.00000  Uiso   1.00
C144   C     0.70887   0.16577   0.11478   0.00000  Uiso   1.00
C145   C     0.97255   0.19451   0.45406   0.00000  Uiso   1.00
C146   C     0.69170   0.15359   0.04366   0.00000  Uiso   1.00
C147   C     0.98958   0.18613   0.40851   0.00000  Uiso   1.00
C148   C     0.67570   0.15690   0.09006   0.00000  Uiso   1.00
C149   C     0.90890   0.16460   0.40731   0.00000  Uiso   1.00
C150   C     0.75774   0.17258   0.09260   0.00000  Uiso   1.00
C151   C     0.89030   0.17439   0.45283   0.00000  Uiso   1.00
C152   C     0.77464   0.17057   0.04569   0.00000  Uiso   1.00
C153   C     0.92333   0.18876   0.47636   0.00000  Uiso   1.00
C154   C     0.74081   0.15996   0.02138   0.00000  Uiso   1.00
C155   C     0.84003   0.17035   0.47548   0.00000  Uiso   1.00
C156   C     0.82430   0.17752   0.02249   0.00000  Uiso   1.00
Cu157  Cu    0.71355   0.16667   0.25000   0.00000  Uiso   1.00
Cu158  Cu    0.95311   0.16666   0.25000   0.00000  Uiso   1.00
H159   H     0.78216   0.17823   0.11298   0.00000  Uiso   1.00
H160   H     0.88633   0.15134   0.38823   0.00000  Uiso   1.00
H161   H     0.97108   0.15140   0.10662   0.00000  Uiso   1.00
H162   H     0.69402   0.19200   0.39163   0.00000  Uiso   1.00
H163   H     0.99769   0.20626   0.47173   0.00000  Uiso   1.00
H164   H     0.99909   0.14544   0.02523   0.00000  Uiso   1.00
H165   H     0.84911   0.20054   0.07934   0.00000  Uiso   1.00
H166   H     0.81315   0.15697   0.41676   0.00000  Uiso   1.00
H167   H     0.86142   0.12343   0.30343   0.00000  Uiso   1.00
H168   H     0.80524   0.20992   0.19657   0.00000  Uiso   1.00
H169   H     0.77448   0.12353   0.30344   0.00000  Uiso   1.00
H170   H     0.89219   0.20980   0.19656   0.00000  Uiso   1.00
N171   N     0.78403   0.16668   0.24999   0.00000  Uiso   1.00
N172   N     0.88264   0.16666   0.25001   0.00000  Uiso   1.00
O173   O     0.70625   0.10655   0.25000   0.00000  Uiso   1.00
O174   O     0.96042   0.22678   0.25000   0.00000  Uiso   1.00
O175   O     0.96039   0.10654   0.25001   0.00000  Uiso   1.00
O176   O     0.70628   0.22679   0.25000   0.00000  Uiso   1.00
O177   O     0.68519   0.16668   0.31491   0.00000  Uiso   1.00
O178   O     0.98148   0.16666   0.18509   0.00000  Uiso   1.00
O179   O     0.93933   0.16667   0.31492   0.00000  Uiso   1.00
O180   O     0.72733   0.16667   0.18508   0.00000  Uiso   1.00
H181   H     0.93186   0.20906   0.03996   0.00000  Uiso   1.00
H182   H     0.73067   0.14758   0.45621   0.00000  Uiso   1.00
H183   H     0.93096   0.03941   0.29769   0.00000  Uiso   1.00
H184   H     0.73571   0.29391   0.20238   0.00000  Uiso   1.00
I185   I     0.90000   0.28454   0.32506   0.00000  Uiso   1.00
I186   I     0.76678   0.04874   0.17500   0.00000  Uiso   1.00
C187   C     0.00040   0.42076   0.24892   0.00000  Uiso   1.00
C188   C     0.33292   0.57923   0.25110   0.00000  Uiso   1.00
C189   C     0.19190   0.52534   0.04454   0.00000  Uiso   1.00
C190   C     0.13815   0.49367   0.45255   0.00000  Uiso   1.00
C191   C     0.24030   0.53100   0.02177   0.00000  Uiso   1.00
C192   C     0.08959   0.48879   0.47515   0.00000  Uiso   1.00
C193   C     0.29423   0.35550   0.27653   0.00000  Uiso   1.00
C194   C     0.03910   0.64449   0.22355   0.00000  Uiso   1.00
C195   C     0.29333   0.64603   0.27836   0.00000  Uiso   1.00
C196   C     0.04001   0.35395   0.22172   0.00000  Uiso   1.00
C197   C     0.33267   0.62382   0.25141   0.00000  Uiso   1.00
C198   C     0.00066   0.37617   0.24866   0.00000  Uiso   1.00
C199   C     0.18292   0.47604   0.27969   0.00000  Uiso   1.00
C200   C     0.15041   0.52397   0.22031   0.00000  Uiso   1.00
C201   C     0.13333   0.47607   0.27969   0.00000  Uiso   1.00
C202   C     0.20001   0.52393   0.22031   0.00000  Uiso   1.00
C203   C     0.30610   0.50058   0.33605   0.00000  Uiso   1.00
C204   C     0.02723   0.49988   0.16392   0.00000  Uiso   1.00
C205   C     0.29093   0.50492   0.38489   0.00000  Uiso   1.00
C206   C     0.04221   0.49910   0.11478   0.00000  Uiso   1.00
C207   C     0.30588   0.52785   0.45406   0.00000  Uiso   1.00
C208   C     0.02503   0.48692   0.04366   0.00000  Uiso   1.00
C209   C     0.32292   0.51946   0.40851   0.00000  Uiso   1.00
C210   C     0.00904   0.49023   0.09006   0.00000  Uiso   1.00
C211   C     0.24223   0.49794   0.40731   0.00000  Uiso   1.00
C212   C     0.09107   0.50591   0.09260   0.00000  Uiso   1.00
C213   C     0.22363   0.50773   0.45283   0.00000  Uiso   1.00
C214   C     0.10798   0.50390   0.04569   0.00000  Uiso   1.00
C215   C     0.25667   0.52209   0.47636   0.00000  Uiso   1.00
C216   C     0.07414   0.49329   0.02138   0.00000  Uiso   1.00
C217   C     0.17336   0.50369   0.47548   0.00000  Uiso   1.00
C218   C     0.15764   0.51085   0.02249   0.00000  Uiso   1.00
Cu219  Cu    0.04689   0.50001   0.25000   0.00000  Uiso   1.00
Cu220  Cu    0.28645   0.49999   0.25000   0.00000  Uiso   1.00
H221   H     0.11550   0.51156   0.11298   0.00000  Uiso   1.00
H222   H     0.21967   0.48467   0.38823   0.00000  Uiso   1.00
H223   H     0.30442   0.48473   0.10662   0.00000  Uiso   1.00
H224   H     0.02736   0.52533   0.39163   0.00000  Uiso   1.00
H225   H     0.33102   0.53959   0.47173   0.00000  Uiso   1.00
H226   H     0.33242   0.47877   0.02523   0.00000  Uiso   1.00
H227   H     0.18244   0.53387   0.07934   0.00000  Uiso   1.00
H228   H     0.14649   0.49030   0.41676   0.00000  Uiso   1.00
H229   H     0.19475   0.45676   0.30343   0.00000  Uiso   1.00
H230   H     0.13858   0.54325   0.19657   0.00000  Uiso   1.00
H231   H     0.10781   0.45686   0.30344   0.00000  Uiso   1.00
H232   H     0.22552   0.54314   0.19656   0.00000  Uiso   1.00
N233   N     0.11736   0.50001   0.24999   0.00000  Uiso   1.00
N234   N     0.21597   0.49999   0.25001   0.00000  Uiso   1.00
O235   O     0.03958   0.43989   0.25000   0.00000  Uiso   1.00
O236   O     0.29375   0.56011   0.25000   0.00000  Uiso   1.00
O237   O     0.29372   0.43988   0.25001   0.00000  Uiso   1.00
O238   O     0.03961   0.56012   0.25000   0.00000  Uiso   1.00
O239   O     0.01852   0.50001   0.31491   0.00000  Uiso   1.00
O240   O     0.31481   0.49999   0.18509   0.00000  Uiso   1.00
O241   O     0.27267   0.50000   0.31492   0.00000  Uiso   1.00
O242   O     0.06067   0.50000   0.18508   0.00000  Uiso   1.00
H243   H     0.26519   0.54240   0.03996   0.00000  Uiso   1.00
H244   H     0.06400   0.48092   0.45621   0.00000  Uiso   1.00
H245   H     0.26430   0.37275   0.29769   0.00000  Uiso   1.00
H246   H     0.06904   0.62724   0.20238   0.00000  Uiso   1.00
I247   I     0.23333   0.61787   0.32506   0.00000  Uiso   1.00
I248   I     0.10011   0.38208   0.17500   0.00000  Uiso   1.00
C249   C     0.33374   0.42076   0.24892   0.00000  Uiso   1.00
C250   C     0.66626   0.57923   0.25110   0.00000  Uiso   1.00
C251   C     0.52524   0.52534   0.04454   0.00000  Uiso   1.00
C252   C     0.47148   0.49367   0.45255   0.00000  Uiso   1.00
C253   C     0.57364   0.53100   0.02177   0.00000  Uiso   1.00
C254   C     0.42293   0.48879   0.47515   0.00000  Uiso   1.00
C255   C     0.62756   0.35550   0.27653   0.00000  Uiso   1.00
C256   C     0.37244   0.64449   0.22355   0.00000  Uiso   1.00
C257   C     0.62667   0.64603   0.27836   0.00000  Uiso   1.00
C258   C     0.37335   0.35395   0.22172   0.00000  Uiso   1.00
C259   C     0.66600   0.62382   0.25141   0.00000  Uiso   1.00
C260   C     0.33399   0.37617   0.24866   0.00000  Uiso   1.00
C261   C     0.51626   0.47604   0.27969   0.00000  Uiso   1.00
C262   C     0.48374   0.52397   0.22031   0.00000  Uiso   1.00
C263   C     0.46666   0.47607   0.27969   0.00000  Uiso   1.00
C264   C     0.53334   0.52393   0.22031   0.00000  Uiso   1.00
C265   C     0.63944   0.50058   0.33605   0.00000  Uiso   1.00
C266   C     0.36056   0.49988   0.16392   0.00000  Uiso   1.00
C267   C     0.62426   0.50492   0.38489   0.00000  Uiso   1.00
C268   C     0.37554   0.49910   0.11478   0.00000  Uiso   1.00
C269   C     0.63921   0.52785   0.45406   0.00000  Uiso   1.00
C270   C     0.35837   0.48692   0.04366   0.00000  Uiso   1.00
C271   C     0.65625   0.51946   0.40851   0.00000  Uiso   1.00
C272   C     0.34237   0.49023   0.09006   0.00000  Uiso   1.00
C273   C     0.57556   0.49794   0.40731   0.00000  Uiso   1.00
C274   C     0.42440   0.50591   0.09260   0.00000  Uiso   1.00
C275   C     0.55696   0.50773   0.45283   0.00000  Uiso   1.00
C276   C     0.44131   0.50390   0.04569   0.00000  Uiso   1.00
C277   C     0.59000   0.52209   0.47636   0.00000  Uiso   1.00
C278   C     0.40747   0.49329   0.02138   0.00000  Uiso   1.00
C279   C     0.50669   0.50369   0.47548   0.00000  Uiso   1.00
C280   C     0.49097   0.51085   0.02249   0.00000  Uiso   1.00
Cu281  Cu    0.38022   0.50001   0.25000   0.00000  Uiso   1.00
Cu282  Cu    0.61978   0.49999   0.25000   0.00000  Uiso   1.00
H283   H     0.44883   0.51156   0.11298   0.00000  Uiso   1.00
H284   H     0.55300   0.48467   0.38823   0.00000  Uiso   1.00
H285   H     0.63775   0.48473   0.10662   0.00000  Uiso   1.00
H286   H     0.36069   0.52533   0.39163   0.00000  Uiso   1.00
H287   H     0.66436   0.53959   0.47173   0.00000  Uiso   1.00
H288   H     0.66576   0.47877   0.02523   0.00000  Uiso   1.00
H289   H     0.51578   0.53387   0.07934   0.00000  Uiso   1.00
H290   H     0.47982   0.49030   0.41676   0.00000  Uiso   1.00
H291   H     0.52809   0.45676   0.30343   0.00000  Uiso   1.00
H292   H     0.47191   0.54325   0.19657   0.00000  Uiso   1.00
H293   H     0.44114   0.45686   0.30344   0.00000  Uiso   1.00
H294   H     0.55886   0.54314   0.19656   0.00000  Uiso   1.00
N295   N     0.45069   0.50001   0.24999   0.00000  Uiso   1.00
N296   N     0.54931   0.49999   0.25001   0.00000  Uiso   1.00
O297   O     0.37291   0.43989   0.25000   0.00000  Uiso   1.00
O298   O     0.62709   0.56011   0.25000   0.00000  Uiso   1.00
O299   O     0.62706   0.43988   0.25001   0.00000  Uiso   1.00
O300   O     0.37294   0.56012   0.25000   0.00000  Uiso   1.00
O301   O     0.35186   0.50001   0.31491   0.00000  Uiso   1.00
O302   O     0.64814   0.49999   0.18509   0.00000  Uiso   1.00
O303   O     0.60600   0.50000   0.31492   0.00000  Uiso   1.00
O304   O     0.39400   0.50000   0.18508   0.00000  Uiso   1.00
H305   H     0.59852   0.54240   0.03996   0.00000  Uiso   1.00
H306   H     0.39733   0.48092   0.45621   0.00000  Uiso   1.00
H307   H     0.59763   0.37275   0.29769   0.00000  Uiso   1.00
H308   H     0.40238   0.62724   0.20238   0.00000  Uiso   1.00
I309   I     0.56666   0.61787   0.32506   0.00000  Uiso   1.00
I310   I     0.43344   0.38208   0.17500   0.00000  Uiso   1.00
C311   C     0.66707   0.42076   0.24892   0.00000  Uiso   1.00
C312   C     0.99959   0.57923   0.25110   0.00000  Uiso   1.00
C313   C     0.85857   0.52534   0.04454   0.00000  Uiso   1.00
C314   C     0.80481   0.49367   0.45255   0.00000  Uiso   1.00
C315   C     0.90697   0.53100   0.02177   0.00000  Uiso   1.00
C316   C     0.75626   0.48879   0.47515   0.00000  Uiso   1.00
C317   C     0.96090   0.35550   0.27653   0.00000  Uiso   1.00
C318   C     0.70577   0.64449   0.22355   0.00000  Uiso   1.00
C319   C     0.96000   0.64603   0.27836   0.00000  Uiso   1.00
C320   C     0.70668   0.35395   0.22172   0.00000  Uiso   1.00
C321   C     0.99934   0.62382   0.25141   0.00000  Uiso   1.00
C322   C     0.66732   0.37617   0.24866   0.00000  Uiso   1.00
C323   C     0.84959   0.47604   0.27969   0.00000  Uiso   1.00
C324   C     0.81708   0.52397   0.22031   0.00000  Uiso   1.00
C325   C     0.79999   0.47607   0.27969   0.00000  Uiso   1.00
C326   C     0.86667   0.52393   0.22031   0.00000  Uiso   1.00
C327   C     0.97277   0.50058   0.33605   0.00000  Uiso   1.00
C328   C     0.69390   0.49988   0.16392   0.00000  Uiso   1.00
C329   C     0.95760   0.50492   0.38489   0.00000  Uiso   1.00
C330   C     0.70887   0.49910   0.11478   0.00000  Uiso   1.00
C331   C     0.97255   0.52785   0.45406   0.00000  Uiso   1.00
C332   C     0.69170   0.48692   0.04366   0.00000  Uiso   1.00
C333   C     0.98958   0.51946   0.40851   0.00000  Uiso   1.00
C334   C     0.67570   0.49023   0.09006   0.00000  Uiso   1.00
C335   C     0.90890   0.49794   0.40731   0.00000  Uiso   1.00
C336   C     0.75774   0.50591   0.09260   0.00000  Uiso   1.00
C337   C     0.89030   0.50773   0.45283   0.00000  Uiso   1.00
C338   C     0.77464   0.50390   0.04569   0.00000  Uiso   1.00
C339   C     0.92333   0.52209   0.47636   0.00000  Uiso   1.00
C340   C     0.74081   0.49329   0.02138   0.00000  Uiso   1.00
C341   C     0.84003   0.50369   0.47548   0.00000  Uiso   1.00
C342   C     0.82430   0.51085   0.02249   0.00000  Uiso   1.00
Cu343  Cu    0.71355   0.50001   0.25000   0.00000  Uiso   1.00
Cu344  Cu    0.95311   0.49999   0.25000   0.00000  Uiso   1.00
H345   H     0.78216   0.51156   0.11298   0.00000  Uiso   1.00
H346   H     0.88633   0.48467   0.38823   0.00000  Uiso   1.00
H347   H     0.97108   0.48473   0.10662   0.00000  Uiso   1.00
H348   H     0.69402   0.52533   0.39163   0.00000  Uiso   1.00
H349   H     0.99769   0.53959   0.47173   0.00000  Uiso   1.00
H350   H     0.99909   0.47877   0.02523   0.00000  Uiso   1.00
H351   H     0.84911   0.53387   0.07934   0.00000  Uiso   1.00
H352   H     0.81315   0.49030   0.41676   0.00000  Uiso   1.00
H353   H     0.86142   0.45676   0.30343   0.00000  Uiso   1.00
H354   H     0.80524   0.54325   0.19657   0.00000  Uiso   1.00
H355   H     0.77448   0.45686   0.30344   0.00000  Uiso   1.00
H356   H     0.89219   0.54314   0.19656   0.00000  Uiso   1.00
N357   N     0.78403   0.50001   0.24999   0.00000  Uiso   1.00
N358   N     0.88264   0.49999   0.25001   0.00000  Uiso   1.00
O359   O     0.70625   0.43989   0.25000   0.00000  Uiso   1.00
O360   O     0.96042   0.56011   0.25000   0.00000  Uiso   1.00
O361   O     0.96039   0.43988   0.25001   0.00000  Uiso   1.00
O362   O     0.70628   0.56012   0.25000   0.00000  Uiso   1.00
O363   O     0.68519   0.50001   0.31491   0.00000  Uiso   1.00
O364   O     0.98148   0.49999   0.18509   0.00000  Uiso   1.00
O365   O     0.93933   0.50000   0.31492   0.00000  Uiso   1.00
O366   O     0.72733   0.50000   0.18508   0.00000  Uiso   1.00
H367   H     0.93186   0.54240   0.03996   0.00000  Uiso   1.00
H368   H     0.73067   0.48092   0.45621   0.00000  Uiso   1.00
H369   H     0.93096   0.37275   0.29769   0.00000  Uiso   1.00
H370   H     0.73571   0.62724   0.20238   0.00000  Uiso   1.00
I371   I     0.90000   0.61787   0.32506   0.00000  Uiso   1.00
I372   I     0.76678   0.38208   0.17500   0.00000  Uiso   1.00
C373   C     0.00040   0.75410   0.24892   0.00000  Uiso   1.00
C374   C     0.33292   0.91257   0.25110   0.00000  Uiso   1.00
C375   C     0.19190   0.85867   0.04454   0.00000  Uiso   1.00
C376   C     0.13815   0.82701   0.45255   0.00000  Uiso   1.00
C377   C     0.24030   0.86434   0.02177   0.00000  Uiso   1.00
C378   C     0.08959   0.82212   0.47515   0.00000  Uiso   1.00
C379   C     0.29423   0.68884   0.27653   0.00000  Uiso   1.00
C380   C     0.03910   0.97782   0.22355   0.00000  Uiso   1.00
C381   C     0.29333   0.97937   0.27836   0.00000  Uiso   1.00
C382   C     0.04001   0.68729   0.22172   0.00000  Uiso   1.00
C383   C     0.33267   0.95715   0.25141   0.00000  Uiso   1.00
C384   C     0.00066   0.70951   0.24866   0.00000  Uiso   1.00
C385   C     0.18292   0.80937   0.27969   0.00000  Uiso   1.00
C386   C     0.15041   0.85730   0.22031   0.00000  Uiso   1.00
C387   C     0.13333   0.80940   0.27969   0.00000  Uiso   1.00
C388   C     0.20001   0.85727   0.22031   0.00000  Uiso   1.00
C389   C     0.30610   0.83391   0.33605   0.00000  Uiso   1.00
C390   C     0.02723   0.83321   0.16392   0.00000  Uiso   1.00
C391   C     0.29093   0.83825   0.38489   0.00000  Uiso   1.00
C392   C     0.04221   0.83244   0.11478   0.00000  Uiso   1.00
C393   C     0.30588   0.86118   0.45406   0.00000  Uiso   1.00
C394   C     0.02503   0.82026   0.04366   0.00000  Uiso   1.00
C395   C     0.32292   0.85280   0.40851   0.00000  Uiso   1.00
C396   C     0.00904   0.82357   0.09006   0.00000  Uiso   1.00
C397   C     0.24223   0.83127   0.40731   0.00000  Uiso   1.00
C398   C     0.09107   0.83925   0.09260   0.00000  Uiso   1.00
C399   C     0.22363   0.84106   0.45283   0.00000  Uiso   1.00
C400   C     0.10798   0.83724   0.04569   0.00000  Uiso   1.00
C401   C     0.25667   0.85543   0.47636   0.00000  Uiso   1.00
C402   C     0.07414   0.82663   0.02138   0.00000  Uiso   1.00
C403   C     0.17336   0.83702   0.47548   0.00000  Uiso   1.00
C404   C     0.15764   0.84418   0.02249   0.00000  Uiso   1.00
Cu405  Cu    0.04689   0.83334   0.25000   0.00000  Uiso   1.00
Cu406  Cu    0.28645   0.83333   0.25000   0.00000  Uiso   1.00
H407   H     0.11550   0.84489   0.11298   0.00000  Uiso   1.00
H408   H     0.21967   0.81800   0.38823   0.00000  Uiso   1.00
H409   H     0.30442   0.81806   0.10662   0.00000  Uiso   1.00
H410   H     0.02736   0.85867   0.39163   0.00000  Uiso   1.00
H411   H     0.33102   0.87293   0.47173   0.00000  Uiso   1.00
H412   H     0.33242   0.81211   0.02523   0.00000  Uiso   1.00
H413   H     0.18244   0.86720   0.07934   0.00000  Uiso   1.00
H414   H     0.14649   0.82363   0.41676   0.00000  Uiso   1.00
H415   H     0.19475   0.79009   0.30343   0.00000  Uiso   1.00
H416   H     0.13858   0.87658   0.19657   0.00000  Uiso   1.00
H417   H     0.10781   0.79020   0.30344   0.00000  Uiso   1.00
H418   H     0.22552   0.87647   0.19656   0.00000  Uiso   1.00
N419   N     0.11736   0.83334   0.24999   0.00000  Uiso   1.00
N420   N     0.21597   0.83332   0.25001   0.00000  Uiso   1.00
O421   O     0.03958   0.77322   0.25000   0.00000  Uiso   1.00
O422   O     0.29375   0.89345   0.25000   0.00000  Uiso   1.00
O423   O     0.29372   0.77321   0.25001   0.00000  Uiso   1.00
O424   O     0.03961   0.89346   0.25000   0.00000  Uiso   1.00
O425   O     0.01852   0.83334   0.31491   0.00000  Uiso   1.00
O426   O     0.31481   0.83332   0.18509   0.00000  Uiso   1.00
O427   O     0.27267   0.83333   0.31492   0.00000  Uiso   1.00
O428   O     0.06067   0.83333   0.18508   0.00000  Uiso   1.00
H429   H     0.26519   0.87573   0.03996   0.00000  Uiso   1.00
H430   H     0.06400   0.81425   0.45621   0.00000  Uiso   1.00
H431   H     0.26430   0.70608   0.29769   0.00000  Uiso   1.00
H432   H     0.06904   0.96058   0.20238   0.00000  Uiso   1.00
I433   I     0.23333   0.95121   0.32506   0.00000  Uiso   1.00
I434   I     0.10011   0.71541   0.17500   0.00000  Uiso   1.00
C435   C     0.33374   0.75410   0.24892   0.00000  Uiso   1.00
C436   C     0.66626   0.91257   0.25110   0.00000  Uiso   1.00
C437   C     0.52524   0.85867   0.04454   0.00000  Uiso   1.00
C438   C     0.47148   0.82701   0.45255   0.00000  Uiso   1.00
C439   C     0.57364   0.86434   0.02177   0.00000  Uiso   1.00
C440   C     0.42293   0.82212   0.47515   0.00000  Uiso   1.00
C441   C     0.62756   0.68884   0.27653   0.00000  Uiso   1.00
C442   C     0.37244   0.97782   0.22355   0.00000  Uiso   1.00
C443   C     0.62667   0.97937   0.27836   0.00000  Uiso   1.00
C444   C     0.37335   0.68729   0.22172   0.00000  Uiso   1.00
C445   C     0.66600   0.95715   0.25141   0.00000  Uiso   1.00
C446   C     0.33399   0.70951   0.24866   0.00000  Uiso   1.00
C447   C     0.51626   0.80937   0.27969   0.00000  Uiso   1.00
C448   C     0.48374   0.85730   0.22031   0.00000  Uiso   1.00
C449   C     0.46666   0.80940   0.27969   0.00000  Uiso   1.00
C450   C     0.53334   0.85727   0.22031   0.00000  Uiso   1.00
C451   C     0.63944   0.83391   0.33605   0.00000  Uiso   1.00
C452   C     0.36056   0.83321   0.16392   0.00000  Uiso   1.00
C453   C     0.62426   0.83825   0.38489   0.00000  Uiso   1.00
C454   C     0.37554   0.83244   0.11478   0.00000  Uiso   1.00
C455   C     0.63921   0.86118   0.45406   0.00000  Uiso   1.00
C456   C     0.35837   0.82026   0.04366   0.00000  Uiso   1.00
C457   C     0.65625   0.85280   0.40851   0.00000  Uiso   1.00
C458   C     0.34237   0.82357   0.09006   0.00000  Uiso   1.00
C459   C     0.57556   0.83127   0.40731   0.00000  Uiso   1.00
C460   C     0.42440   0.83925   0.09260   0.00000  Uiso   1.00
C461   C     0.55696   0.84106   0.45283   0.00000  Uiso   1.00
C462   C     0.44131   0.83724   0.04569   0.00000  Uiso   1.00
C463   C     0.59000   0.85543   0.47636   0.00000  Uiso   1.00
C464   C     0.40747   0.82663   0.02138   0.00000  Uiso   1.00
C465   C     0.50669   0.83702   0.47548   0.00000  Uiso   1.00
C466   C     0.49097   0.84418   0.02249   0.00000  Uiso   1.00
Cu467  Cu    0.38022   0.83334   0.25000   0.00000  Uiso   1.00
Cu468  Cu    0.61978   0.83333   0.25000   0.00000  Uiso   1.00
H469   H     0.44883   0.84489   0.11298   0.00000  Uiso   1.00
H470   H     0.55300   0.81800   0.38823   0.00000  Uiso   1.00
H471   H     0.63775   0.81806   0.10662   0.00000  Uiso   1.00
H472   H     0.36069   0.85867   0.39163   0.00000  Uiso   1.00
H473   H     0.66436   0.87293   0.47173   0.00000  Uiso   1.00
H474   H     0.66576   0.81211   0.02523   0.00000  Uiso   1.00
H475   H     0.51578   0.86720   0.07934   0.00000  Uiso   1.00
H476   H     0.47982   0.82363   0.41676   0.00000  Uiso   1.00
H477   H     0.52809   0.79009   0.30343   0.00000  Uiso   1.00
H478   H     0.47191   0.87658   0.19657   0.00000  Uiso   1.00
H479   H     0.44114   0.79020   0.30344   0.00000  Uiso   1.00
H480   H     0.55886   0.87647   0.19656   0.00000  Uiso   1.00
N481   N     0.45069   0.83334   0.24999   0.00000  Uiso   1.00
N482   N     0.54931   0.83332   0.25001   0.00000  Uiso   1.00
O483   O     0.37291   0.77322   0.25000   0.00000  Uiso   1.00
O484   O     0.62709   0.89345   0.25000   0.00000  Uiso   1.00
O485   O     0.62706   0.77321   0.25001   0.00000  Uiso   1.00
O486   O     0.37294   0.89346   0.25000   0.00000  Uiso   1.00
O487   O     0.35186   0.83334   0.31491   0.00000  Uiso   1.00
O488   O     0.64814   0.83332   0.18509   0.00000  Uiso   1.00
O489   O     0.60600   0.83333   0.31492   0.00000  Uiso   1.00
O490   O     0.39400   0.83333   0.18508   0.00000  Uiso   1.00
H491   H     0.59852   0.87573   0.03996   0.00000  Uiso   1.00
H492   H     0.39733   0.81425   0.45621   0.00000  Uiso   1.00
H493   H     0.59763   0.70608   0.29769   0.00000  Uiso   1.00
H494   H     0.40238   0.96058   0.20238   0.00000  Uiso   1.00
I495   I     0.56666   0.95121   0.32506   0.00000  Uiso   1.00
I496   I     0.43344   0.71541   0.17500   0.00000  Uiso   1.00
C497   C     0.66707   0.75410   0.24892   0.00000  Uiso   1.00
C498   C     0.99959   0.91257   0.25110   0.00000  Uiso   1.00
C499   C     0.85857   0.85867   0.04454   0.00000  Uiso   1.00
C500   C     0.80481   0.82701   0.45255   0.00000  Uiso   1.00
C501   C     0.90697   0.86434   0.02177   0.00000  Uiso   1.00
C502   C     0.75626   0.82212   0.47515   0.00000  Uiso   1.00
C503   C     0.96090   0.68884   0.27653   0.00000  Uiso   1.00
C504   C     0.70577   0.97782   0.22355   0.00000  Uiso   1.00
C505   C     0.96000   0.97937   0.27836   0.00000  Uiso   1.00
C506   C     0.70668   0.68729   0.22172   0.00000  Uiso   1.00
C507   C     0.99934   0.95715   0.25141   0.00000  Uiso   1.00
C508   C     0.66732   0.70951   0.24866   0.00000  Uiso   1.00
C509   C     0.84959   0.80937   0.27969   0.00000  Uiso   1.00
C510   C     0.81708   0.85730   0.22031   0.00000  Uiso   1.00
C511   C     0.79999   0.80940   0.27969   0.00000  Uiso   1.00
C512   C     0.86667   0.85727   0.22031   0.00000  Uiso   1.00
C513   C     0.97277   0.83391   0.33605   0.00000  Uiso   1.00
C514   C     0.69390   0.83321   0.16392   0.00000  Uiso   1.00
C515   C     0.95760   0.83825   0.38489   0.00000  Uiso   1.00
C516   C     0.70887   0.83244   0.11478   0.00000  Uiso   1.00
C517   C     0.97255   0.86118   0.45406   0.00000  Uiso   1.00
C518   C     0.69170   0.82026   0.04366   0.00000  Uiso   1.00
C519   C     0.98958   0.85280   0.40851   0.00000  Uiso   1.00
C520   C     0.67570   0.82357   0.09006   0.00000  Uiso   1.00
C521   C     0.90890   0.83127   0.40731   0.00000  Uiso   1.00
C522   C     0.75774   0.83925   0.09260   0.00000  Uiso   1.00
C523   C     0.89030   0.84106   0.45283   0.00000  Uiso   1.00
C524   C     0.77464   0.83724   0.04569   0.00000  Uiso   1.00
C525   C     0.92333   0.85543   0.47636   0.00000  Uiso   1.00
C526   C     0.74081   0.82663   0.02138   0.00000  Uiso   1.00
C527   C     0.84003   0.83702   0.47548   0.00000  Uiso   1.00
C528   C     0.82430   0.84418   0.02249   0.00000  Uiso   1.00
Cu529  Cu    0.71355   0.83334   0.25000   0.00000  Uiso   1.00
Cu530  Cu    0.95311   0.83333   0.25000   0.00000  Uiso   1.00
H531   H     0.78216   0.84489   0.11298   0.00000  Uiso   1.00
H532   H     0.88633   0.81800   0.38823   0.00000  Uiso   1.00
H533   H     0.97108   0.81806   0.10662   0.00000  Uiso   1.00
H534   H     0.69402   0.85867   0.39163   0.00000  Uiso   1.00
H535   H     0.99769   0.87293   0.47173   0.00000  Uiso   1.00
H536   H     0.99909   0.81211   0.02523   0.00000  Uiso   1.00
H537   H     0.84911   0.86720   0.07934   0.00000  Uiso   1.00
H538   H     0.81315   0.82363   0.41676   0.00000  Uiso   1.00
H539   H     0.86142   0.79009   0.30343   0.00000  Uiso   1.00
H540   H     0.80524   0.87658   0.19657   0.00000  Uiso   1.00
H541   H     0.77448   0.79020   0.30344   0.00000  Uiso   1.00
H542   H     0.89219   0.87647   0.19656   0.00000  Uiso   1.00
N543   N     0.78403   0.83334   0.24999   0.00000  Uiso   1.00
N544   N     0.88264   0.83332   0.25001   0.00000  Uiso   1.00
O545   O     0.70625   0.77322   0.25000   0.00000  Uiso   1.00
O546   O     0.96042   0.89345   0.25000   0.00000  Uiso   1.00
O547   O     0.96039   0.77321   0.25001   0.00000  Uiso   1.00
O548   O     0.70628   0.89346   0.25000   0.00000  Uiso   1.00
O549   O     0.68519   0.83334   0.31491   0.00000  Uiso   1.00
O550   O     0.98148   0.83332   0.18509   0.00000  Uiso   1.00
O551   O     0.93933   0.83333   0.31492   0.00000  Uiso   1.00
O552   O     0.72733   0.83333   0.18508   0.00000  Uiso   1.00
H553   H     0.93186   0.87573   0.03996   0.00000  Uiso   1.00
H554   H     0.73067   0.81425   0.45621   0.00000  Uiso   1.00
H555   H     0.93096   0.70608   0.29769   0.00000  Uiso   1.00
H556   H     0.73571   0.96058   0.20238   0.00000  Uiso   1.00
I557   I     0.90000   0.95121   0.32506   0.00000  Uiso   1.00
I558   I     0.76678   0.71541   0.17500   0.00000  Uiso   1.00
C559   C     0.00040   0.08743   0.74892   0.00000  Uiso   1.00
C560   C     0.33292   0.24590   0.75110   0.00000  Uiso   1.00
C561   C     0.19190   0.19201   0.54454   0.00000  Uiso   1.00
C562   C     0.13815   0.16034   0.95255   0.00000  Uiso   1.00
C563   C     0.24030   0.19767   0.52177   0.00000  Uiso   1.00
C564   C     0.08959   0.15545   0.97515   0.00000  Uiso   1.00
C565   C     0.29423   0.02217   0.77653   0.00000  Uiso   1.00
C566   C     0.03910   0.31115   0.72355   0.00000  Uiso   1.00
C567   C     0.29333   0.31270   0.77836   0.00000  Uiso   1.00
C568   C     0.04001   0.02062   0.72172   0.00000  Uiso   1.00
C569   C     0.33267   0.29049   0.75141   0.00000  Uiso   1.00
C570   C     0.00066   0.04284   0.74866   0.00000  Uiso   1.00
C571   C     0.18292   0.14271   0.77969   0.00000  Uiso   1.00
C572   C     0.15041   0.19063   0.72031   0.00000  Uiso   1.00
C573   C     0.13333   0.14274   0.77969   0.00000  Uiso   1.00
C574   C     0.20001   0.19060   0.72031   0.00000  Uiso   1.00
C575   C     0.30610   0.16724   0.83605   0.00000  Uiso   1.00
C576   C     0.02723   0.16655   0.66392   0.00000  Uiso   1.00
C577   C     0.29093   0.17158   0.88489   0.00000  Uiso   1.00
C578   C     0.04221   0.16577   0.61478   0.00000  Uiso   1.00
C579   C     0.30588   0.19451   0.95406   0.00000  Uiso   1.00
C580   C     0.02503   0.15359   0.54366   0.00000  Uiso   1.00
C581   C     0.32292   0.18613   0.90851   0.00000  Uiso   1.00
C582   C     0.00904   0.15690   0.59006   0.00000  Uiso   1.00
C583   C     0.24223   0.16460   0.90731   0.00000  Uiso   1.00
C584   C     0.09107   0.17258   0.59260   0.00000  Uiso   1.00
C585   C     0.22363   0.17439   0.95283   0.00000  Uiso   1.00
C586   C     0.10798   0.17057   0.54569   0.00000  Uiso   1.00
C587   C     0.25667   0.18876   0.97636   0.00000  Uiso   1.00
C588   C     0.07414   0.15996   0.52138   0.00000  Uiso   1.00
C589   C     0.17336   0.17035   0.97548   0.00000  Uiso   1.00
C590   C     0.15764   0.17752   0.52249   0.00000  Uiso   1.00
Cu591  Cu    0.04689   0.16667   0.75000   0.00000  Uiso   1.00
Cu592  Cu    0.28645   0.16666   0.75000   0.00000  Uiso   1.00
H593   H     0.11550   0.17823   0.61298   0.00000  Uiso   1.00
H594   H     0.21967   0.15134   0.88823   0.00000  Uiso   1.00
H595   H     0.30442   0.15140   0.60662   0.00000  Uiso   1.00
H596   H     0.02736   0.19200   0.89163   0.00000  Uiso   1.00
H597   H     0.33102   0.20626   0.97173   0.00000  Uiso   1.00
H598   H     0.33242   0.14544   0.52523   0.00000  Uiso   1.00
H599   H     0.18244   0.20054   0.57934   0.00000  Uiso   1.00
H600   H     0.14649   0.15697   0.91676   0.00000  Uiso   1.00
H601   H     0.19475   0.12343   0.80343   0.00000  Uiso   1.00
H602   H     0.13858   0.20992   0.69657   0.00000  Uiso   1.00
H603   H     0.10781   0.12353   0.80344   0.00000  Uiso   1.00
H604   H     0.22552   0.20980   0.69656   0.00000  Uiso   1.00
N605   N     0.11736   0.16668   0.74999   0.00000  Uiso   1.00
N606   N     0.21597   0.16666   0.75001   0.00000  Uiso   1.00
O607   O     0.03958   0.10655   0.75000   0.00000  Uiso   1.00
O608   O     0.29375   0.22678   0.75000   0.00000  Uiso   1.00
O609   O     0.29372   0.10654   0.75001   0.00000  Uiso   1.00
O610   O     0.03961   0.22679   0.75000   0.00000  Uiso   1.00
O611   O     0.01852   0.16668   0.81491   0.00000  Uiso   1.00
O612   O     0.31481   0.16666   0.68509   0.00000  Uiso   1.00
O613   O     0.27267   0.16667   0.81492   0.00000  Uiso   1.00
O614   O     0.06067   0.16667   0.68508   0.00000  Uiso   1.00
H615   H     0.26519   0.20906   0.53996   0.00000  Uiso   1.00
H616   H     0.06400   0.14758   0.95621   0.00000  Uiso   1.00
H617   H     0.26430   0.03941   0.79769   0.00000  Uiso   1.00
H618   H     0.06904   0.29391   0.70238   0.00000  Uiso   1.00
I619   I     0.23333   0.28454   0.82506   0.00000  Uiso   1.00
I620   I     0.10011   0.04874   0.67500   0.00000  Uiso   1.00
C621   C     0.33374   0.08743   0.74892   0.00000  Uiso   1.00
C622   C     0.66626   0.24590   0.75110   0.00000  Uiso   1.00
C623   C     0.52524   0.19201   0.54454   0.00000  Uiso   1.00
C624   C     0.47148   0.16034   0.95255   0.00000  Uiso   1.00
C625   C     0.57364   0.19767   0.52177   0.00000  Uiso   1.00
C626   C     0.42293   0.15545   0.97515   0.00000  Uiso   1.00
C627   C     0.62756   0.02217   0.77653   0.00000  Uiso   1.00
C628   C     0.37244   0.31115   0.72355   0.00000  Uiso   1.00
C629   C     0.62667   0.31270   0.77836   0.00000  Uiso   1.00
C630   C     0.37335   0.02062   0.72172   0.00000  Uiso   1.00
C631   C     0.66600   0.29049   0.75141   0.00000  Uiso   1.00
C632   C     0.33399   0.04284   0.74866   0.00000  Uiso   1.00
C633   C     0.51626   0.14271   0.77969   0.00000  Uiso   1.00
C634   C     0.48374   0.19063   0.72031   0.00000  Uiso   1.00
C635   C     0.46666   0.14274   0.77969   0.00000  Uiso   1.00
C636   C     0.53334   0.19060   0.72031   0.00000  Uiso   1.00
C637   C     0.63944   0.16724   0.83605   0.00000  Uiso   1.00
C638   C     0.36056   0.16655   0.66392   0.00000  Uiso   1.00
C639   C     0.62426   0.17158   0.88489   0.00000  Uiso   1.00
C640   C     0.37554   0.16577   0.61478   0.00000  Uiso   1.00
C641   C     0.63921   0.19451   0.95406   0.00000  Uiso   1.00
C642   C     0.35837   0.15359   0.54366   0.00000  Uiso   1.00
C643   C     0.65625   0.18613   0.90851   0.00000  Uiso   1.00
C644   C     0.34237   0.15690   0.59006   0.00000  Uiso   1.00
C645   C     0.57556   0.16460   0.90731   0.00000  Uiso   1.00
C646   C     0.42440   0.17258   0.59260   0.00000  Uiso   1.00
C647   C     0.55696   0.17439   0.95283   0.00000  Uiso   1.00
C648   C     0.44131   0.17057   0.54569   0.00000  Uiso   1.00
C649   C     0.59000   0.18876   0.97636   0.00000  Uiso   1.00
C650   C     0.40747   0.15996   0.52138   0.00000  Uiso   1.00
C651   C     0.50669   0.17035   0.97548   0.00000  Uiso   1.00
C652   C     0.49097   0.17752   0.52249   0.00000  Uiso   1.00
Cu653  Cu    0.38022   0.16667   0.75000   0.00000  Uiso   1.00
Cu654  Cu    0.61978   0.16666   0.75000   0.00000  Uiso   1.00
H655   H     0.44883   0.17823   0.61298   0.00000  Uiso   1.00
H656   H     0.55300   0.15134   0.88823   0.00000  Uiso   1.00
H657   H     0.63775   0.15140   0.60662   0.00000  Uiso   1.00
H658   H     0.36069   0.19200   0.89163   0.00000  Uiso   1.00
H659   H     0.66436   0.20626   0.97173   0.00000  Uiso   1.00
H660   H     0.66576   0.14544   0.52523   0.00000  Uiso   1.00
H661   H     0.51578   0.20054   0.57934   0.00000  Uiso   1.00
H662   H     0.47982   0.15697   0.91676   0.00000  Uiso   1.00
H663   H     0.52809   0.12343   0.80343   0.00000  Uiso   1.00
H664   H     0.47191   0.20992   0.69657   0.00000  Uiso   1.00
H665   H     0.44114   0.12353   0.80344   0.00000  Uiso   1.00
H666   H     0.55886   0.20980   0.69656   0.00000  Uiso   1.00
N667   N     0.45069   0.16668   0.74999   0.00000  Uiso   1.00
N668   N     0.54931   0.16666   0.75001   0.00000  Uiso   1.00
O669   O     0.37291   0.10655   0.75000   0.00000  Uiso   1.00
O670   O     0.62709   0.22678   0.75000   0.00000  Uiso   1.00
O671   O     0.62706   0.10654   0.75001   0.00000  Uiso   1.00
O672   O     0.37294   0.22679   0.75000   0.00000  Uiso   1.00
O673   O     0.35186   0.16668   0.81491   0.00000  Uiso   1.00
O674   O     0.64814   0.16666   0.68509   0.00000  Uiso   1.00
O675   O     0.60600   0.16667   0.81492   0.00000  Uiso   1.00
O676   O     0.39400   0.16667   0.68508   0.00000  Uiso   1.00
H677   H     0.59852   0.20906   0.53996   0.00000  Uiso   1.00
H678   H     0.39733   0.14758   0.95621   0.00000  Uiso   1.00
H679   H     0.59763   0.03941   0.79769   0.00000  Uiso   1.00
H680   H     0.40238   0.29391   0.70238   0.00000  Uiso   1.00
I681   I     0.56666   0.28454   0.82506   0.00000  Uiso   1.00
I682   I     0.43344   0.04874   0.67500   0.00000  Uiso   1.00
C683   C     0.66707   0.08743   0.74892   0.00000  Uiso   1.00
C684   C     0.99959   0.24590   0.75110   0.00000  Uiso   1.00
C685   C     0.85857   0.19201   0.54454   0.00000  Uiso   1.00
C686   C     0.80481   0.16034   0.95255   0.00000  Uiso   1.00
C687   C     0.90697   0.19767   0.52177   0.00000  Uiso   1.00
C688   C     0.75626   0.15545   0.97515   0.00000  Uiso   1.00
C689   C     0.96090   0.02217   0.77653   0.00000  Uiso   1.00
C690   C     0.70577   0.31115   0.72355   0.00000  Uiso   1.00
C691   C     0.96000   0.31270   0.77836   0.00000  Uiso   1.00
C692   C     0.70668   0.02062   0.72172   0.00000  Uiso   1.00
C693   C     0.99934   0.29049   0.75141   0.00000  Uiso   1.00
C694   C     0.66732   0.04284   0.74866   0.00000  Uiso   1.00
C695   C     0.84959   0.14271   0.77969   0.00000  Uiso   1.00
C696   C     0.81708   0.19063   0.72031   0.00000  Uiso   1.00
C697   C     0.79999   0.14274   0.77969   0.00000  Uiso   1.00
C698   C     0.86667   0.19060   0.72031   0.00000  Uiso   1.00
C699   C     0.97277   0.16724   0.83605   0.00000  Uiso   1.00
C700   C     0.69390   0.16655   0.66392   0.00000  Uiso   1.00
C701   C     0.95760   0.17158   0.88489   0.00000  Uiso   1.00
C702   C     0.70887   0.16577   0.61478   0.00000  Uiso   1.00
C703   C     0.97255   0.19451   0.95406   0.00000  Uiso   1.00
C704   C     0.69170   0.15359   0.54366   0.00000  Uiso   1.00
C705   C     0.98958   0.18613   0.90851   0.00000  Uiso   1.00
C706   C     0.67570   0.15690   0.59006   0.00000  Uiso   1.00
C707   C     0.90890   0.16460   0.90731   0.00000  Uiso   1.00
C708   C     0.75774   0.17258   0.59260   0.00000  Uiso   1.00
C709   C     0.89030   0.17439   0.95283   0.00000  Uiso   1.00
C710   C     0.77464   0.17057   0.54569   0.00000  Uiso   1.00
C711   C     0.92333   0.18876   0.97636   0.00000  Uiso   1.00
C712   C     0.74081   0.15996   0.52138   0.00000  Uiso   1.00
C713   C     0.84003   0.17035   0.97548   0.00000  Uiso   1.00
C714   C     0.82430   0.17752   0.52249   0.00000  Uiso   1.00
Cu715  Cu    0.71355   0.16667   0.75000   0.00000  Uiso   1.00
Cu716  Cu    0.95311   0.16666   0.75000   0.00000  Uiso   1.00
H717   H     0.78216   0.17823   0.61298   0.00000  Uiso   1.00
H718   H     0.88633   0.15134   0.88823   0.00000  Uiso   1.00
H719   H     0.97108   0.15140   0.60662   0.00000  Uiso   1.00
H720   H     0.69402   0.19200   0.89163   0.00000  Uiso   1.00
H721   H     0.99769   0.20626   0.97173   0.00000  Uiso   1.00
H722   H     0.99909   0.14544   0.52523   0.00000  Uiso   1.00
H723   H     0.84911   0.20054   0.57934   0.00000  Uiso   1.00
H724   H     0.81315   0.15697   0.91676   0.00000  Uiso   1.00
H725   H     0.86142   0.12343   0.80343   0.00000  Uiso   1.00
H726   H     0.80524   0.20992   0.69657   0.00000  Uiso   1.00
H727   H     0.77448   0.12353   0.80344   0.00000  Uiso   1.00
H728   H     0.89219   0.20980   0.69656   0.00000  Uiso   1.00
N729   N     0.78403   0.16668   0.74999   0.00000  Uiso   1.00
N730   N     0.88264   0.16666   0.75001   0.00000  Uiso   1.00
O731   O     0.70625   0.10655   0.75000   0.00000  Uiso   1.00
O732   O     0.96042   0.22678   0.75000   0.00000  Uiso   1.00
O733   O     0.96039   0.10654   0.75001   0.00000  Uiso   1.00
O734   O     0.70628   0.22679   0.75000   0.00000  Uiso   1.00
O735   O     0.68519   0.16668   0.81491   0.00000  Uiso   1.00
O736   O     0.98148   0.16666   0.68509   0.00000  Uiso   1.00
O737   O     0.93933   0.16667   0.81492   0.00000  Uiso   1.00
O738   O     0.72733   0.16667   0.68508   0.00000  Uiso   1.00
H739   H     0.93186   0.20906   0.53996   0.00000  Uiso   1.00
H740   H     0.73067   0.14758   0.95621   0.00000  Uiso   1.00
H741   H     0.93096   0.03941   0.79769   0.00000  Uiso   1.00
H742   H     0.73571   0.29391   0.70238   0.00000  Uiso   1.00
I743   I     0.90000   0.28454   0.82506   0.00000  Uiso   1.00
I744   I     0.76678   0.04874   0.67500   0.00000  Uiso   1.00
C745   C     0.00040   0.42076   0.74892   0.00000  Uiso   1.00
C746   C     0.33292   0.57923   0.75110   0.00000  Uiso   1.00
C747   C     0.19190   0.52534   0.54454   0.00000  Uiso   1.00
C748   C     0.13815   0.49367   0.95255   0.00000  Uiso   1.00
C749   C     0.24030   0.53100   0.52177   0.00000  Uiso   1.00
C750   C     0.08959   0.48879   0.97515   0.00000  Uiso   1.00
C751   C     0.29423   0.35550   0.77653   0.00000  Uiso   1.00
C752   C     0.03910   0.64449   0.72355   0.00000  Uiso   1.00
C753   C     0.29333   0.64603   0.77836   0.00000  Uiso   1.00
C754   C     0.04001   0.35395   0.72172   0.00000  Uiso   1.00
C755   C     0.33267   0.62382   0.75141   0.00000  Uiso   1.00
C756   C     0.00066   0.37617   0.74866   0.00000  Uiso   1.00
C757   C     0.18292   0.47604   0.77969   0.00000  Uiso   1.00
C758   C     0.15041   0.52397   0.72031   0.00000  Uiso   1.00
C759   C     0.13333   0.47607   0.77969   0.00000  Uiso   1.00
C760   C     0.20001   0.52393   0.72031   0.00000  Uiso   1.00
C761   C     0.30610   0.50058   0.83605   0.00000  Uiso   1.00
C762   C     0.02723   0.49988   0.66392   0.00000  Uiso   1.00
C763   C     0.29093   0.50492   0.88489   0.00000  Uiso   1.00
C764   C     0.04221   0.49910   0.61478   0.00000  Uiso   1.00
C765   C     0.30588   0.52785   0.95406   0.00000  Uiso   1.00
C766   C     0.02503   0.48692   0.54366   0.00000  Uiso   1.00
C767   C     0.32292   0.51946   0.90851   0.00000  Uiso   1.00
C768   C     0.00904   0.49023   0.59006   0.00000  Uiso   1.00
C769   C     0.24223   0.49794   0.90731   0.00000  Uiso   1.00
C770   C     0.09107   0.50591   0.59260   0.00000  Uiso   1.00
C771   C     0.22363   0.50773   0.95283   0.00000  Uiso   1.00
C772   C     0.10798   0.50390   0.54569   0.00000  Uiso   1.00
C773   C     0.25667   0.52209   0.97636   0.00000  Uiso   1.00
C774   C     0.07414   0.49329   0.52138   0.00000  Uiso   1.00
C775   C     0.17336   0.50369   0.97548   0.00000  Uiso   1.00
C776   C     0.15764   0.51085   0.52249   0.00000  Uiso   1.00
Cu777  Cu    0.04689   0.50001   0.75000   0.00000  Uiso   1.00
Cu778  Cu    0.28645   0.49999   0.75000   0.00000  Uiso   1.00
H779   H     0.11550   0.51156   0.61298   0.00000  Uiso   1.00
H780   H     0.21967   0.48467   0.88823   0.00000  Uiso   1.00
H781   H     0.30442   0.48473   0.60662   0.00000  Uiso   1.00
H782   H     0.02736   0.52533   0.89163   0.00000  Uiso   1.00
H783   H     0.33102   0.53959   0.97173   0.00000  Uiso   1.00
H784   H     0.33242   0.47877   0.52523   0.00000  Uiso   1.00
H785   H     0.18244   0.53387   0.57934   0.00000  Uiso   1.00
H786   H     0.14649   0.49030   0.91676   0.00000  Uiso   1.00
H787   H     0.19475   0.45676   0.80343   0.00000  Uiso   1.00
H788   H     0.13858   0.54325   0.69657   0.00000  Uiso   1.00
H789   H     0.10781   0.45686   0.80344   0.00000  Uiso   1.00
H790   H     0.22552   0.54314   0.69656   0.00000  Uiso   1.00
N791   N     0.11736   0.50001   0.74999   0.00000  Uiso   1.00
N792   N     0.21597   0.49999   0.75001   0.00000  Uiso   1.00
O793   O     0.03958   0.43989   0.75000   0.00000  Uiso   1.00
O794   O     0.29375   0.56011   0.75000   0.00000  Uiso   1.00
O795   O     0.29372   0.43988   0.75001   0.00000  Uiso   1.00
O796   O     0.03961   0.56012   0.75000   0.00000  Uiso   1.00
O797   O     0.01852   0.50001   0.81491   0.00000  Uiso   1.00
O798   O     0.31481   0.49999   0.68509   0.00000  Uiso   1.00
O799   O     0.27267   0.50000   0.81492   0.00000  Uiso   1.00
O800   O     0.06067   0.50000   0.68508   0.00000  Uiso   1.00
H801   H     0.26519   0.54240   0.53996   0.00000  Uiso   1.00
H802   H     0.06400   0.48092   0.95621   0.00000  Uiso   1.00
H803   H     0.26430   0.37275   0.79769   0.00000  Uiso   1.00
H804   H     0.06904   0.62724   0.70238   0.00000  Uiso   1.00
I805   I     0.23333   0.61787   0.82506   0.00000  Uiso   1.00
I806   I     0.10011   0.38208   0.67500   0.00000  Uiso   1.00
C807   C     0.33374   0.42076   0.74892   0.00000  Uiso   1.00
C808   C     0.66626   0.57923   0.75110   0.00000  Uiso   1.00
C809   C     0.52524   0.52534   0.54454   0.00000  Uiso   1.00
C810   C     0.47148   0.49367   0.95255   0.00000  Uiso   1.00
C811   C     0.57364   0.53100   0.52177   0.00000  Uiso   1.00
C812   C     0.42293   0.48879   0.97515   0.00000  Uiso   1.00
C813   C     0.62756   0.35550   0.77653   0.00000  Uiso   1.00
C814   C     0.37244   0.64449   0.72355   0.00000  Uiso   1.00
C815   C     0.62667   0.64603   0.77836   0.00000  Uiso   1.00
C816   C     0.37335   0.35395   0.72172   0.00000  Uiso   1.00
C817   C     0.66600   0.62382   0.75141   0.00000  Uiso   1.00
C818   C     0.33399   0.37617   0.74866   0.00000  Uiso   1.00
C819   C     0.51626   0.47604   0.77969   0.00000  Uiso   1.00
C820   C     0.48374   0.52397   0.72031   0.00000  Uiso   1.00
C821   C     0.46666   0.47607   0.77969   0.00000  Uiso   1.00
C822   C     0.53334   0.52393   0.72031   0.00000  Uiso   1.00
C823   C     0.63944   0.50058   0.83605   0.00000  Uiso   1.00
C824   C     0.36056   0.49988   0.66392   0.00000  Uiso   1.00
C825   C     0.62426   0.50492   0.88489   0.00000  Uiso   1.00
C826   C     0.37554   0.49910   0.61478   0.00000  Uiso   1.00
C827   C     0.63921   0.52785   0.95406   0.00000  Uiso   1.00
C828   C     0.35837   0.48692   0.54366   0.00000  Uiso   1.00
C829   C     0.65625   0.51946   0.90851   0.00000  Uiso   1.00
C830   C     0.34237   0.49023   0.59006   0.00000  Uiso   1.00
C831   C     0.57556   0.49794   0.90731   0.00000  Uiso   1.00
C832   C     0.42440   0.50591   0.59260   0.00000  Uiso   1.00
C833   C     0.55696   0.50773   0.95283   0.00000  Uiso   1.00
C834   C     0.44131   0.50390   0.54569   0.00000  Uiso   1.00
C835   C     0.59000   0.52209   0.97636   0.00000  Uiso   1.00
C836   C     0.40747   0.49329   0.52138   0.00000  Uiso   1.00
C837   C     0.50669   0.50369   0.97548   0.00000  Uiso   1.00
C838   C     0.49097   0.51085   0.52249   0.00000  Uiso   1.00
Cu839  Cu    0.38022   0.50001   0.75000   0.00000  Uiso   1.00
Cu840  Cu    0.61978   0.49999   0.75000   0.00000  Uiso   1.00
H841   H     0.44883   0.51156   0.61298   0.00000  Uiso   1.00
H842   H     0.55300   0.48467   0.88823   0.00000  Uiso   1.00
H843   H     0.63775   0.48473   0.60662   0.00000  Uiso   1.00
H844   H     0.36069   0.52533   0.89163   0.00000  Uiso   1.00
H845   H     0.66436   0.53959   0.97173   0.00000  Uiso   1.00
H846   H     0.66576   0.47877   0.52523   0.00000  Uiso   1.00
H847   H     0.51578   0.53387   0.57934   0.00000  Uiso   1.00
H848   H     0.47982   0.49030   0.91676   0.00000  Uiso   1.00
H849   H     0.52809   0.45676   0.80343   0.00000  Uiso   1.00
H850   H     0.47191   0.54325   0.69657   0.00000  Uiso   1.00
H851   H     0.44114   0.45686   0.80344   0.00000  Uiso   1.00
H852   H     0.55886   0.54314   0.69656   0.00000  Uiso   1.00
N853   N     0.45069   0.50001   0.74999   0.00000  Uiso   1.00
N854   N     0.54931   0.49999   0.75001   0.00000  Uiso   1.00
O855   O     0.37291   0.43989   0.75000   0.00000  Uiso   1.00
O856   O     0.62709   0.56011   0.75000   0.00000  Uiso   1.00
O857   O     0.62706   0.43988   0.75001   0.00000  Uiso   1.00
O858   O     0.37294   0.56012   0.75000   0.00000  Uiso   1.00
O859   O     0.35186   0.50001   0.81491   0.00000  Uiso   1.00
O860   O     0.64814   0.49999   0.68509   0.00000  Uiso   1.00
O861   O     0.60600   0.50000   0.81492   0.00000  Uiso   1.00
O862   O     0.39400   0.50000   0.68508   0.00000  Uiso   1.00
H863   H     0.59852   0.54240   0.53996   0.00000  Uiso   1.00
H864   H     0.39733   0.48092   0.95621   0.00000  Uiso   1.00
H865   H     0.59763   0.37275   0.79769   0.00000  Uiso   1.00
H866   H     0.40238   0.62724   0.70238   0.00000  Uiso   1.00
I867   I     0.56666   0.61787   0.82506   0.00000  Uiso   1.00
I868   I     0.43344   0.38208   0.67500   0.00000  Uiso   1.00
C869   C     0.66707   0.42076   0.74892   0.00000  Uiso   1.00
C870   C     0.99959   0.57923   0.75110   0.00000  Uiso   1.00
C871   C     0.85857   0.52534   0.54454   0.00000  Uiso   1.00
C872   C     0.80481   0.49367   0.95255   0.00000  Uiso   1.00
C873   C     0.90697   0.53100   0.52177   0.00000  Uiso   1.00
C874   C     0.75626   0.48879   0.97515   0.00000  Uiso   1.00
C875   C     0.96090   0.35550   0.77653   0.00000  Uiso   1.00
C876   C     0.70577   0.64449   0.72355   0.00000  Uiso   1.00
C877   C     0.96000   0.64603   0.77836   0.00000  Uiso   1.00
C878   C     0.70668   0.35395   0.72172   0.00000  Uiso   1.00
C879   C     0.99934   0.62382   0.75141   0.00000  Uiso   1.00
C880   C     0.66732   0.37617   0.74866   0.00000  Uiso   1.00
C881   C     0.84959   0.47604   0.77969   0.00000  Uiso   1.00
C882   C     0.81708   0.52397   0.72031   0.00000  Uiso   1.00
C883   C     0.79999   0.47607   0.77969   0.00000  Uiso   1.00
C884   C     0.86667   0.52393   0.72031   0.00000  Uiso   1.00
C885   C     0.97277   0.50058   0.83605   0.00000  Uiso   1.00
C886   C     0.69390   0.49988   0.66392   0.00000  Uiso   1.00
C887   C     0.95760   0.50492   0.88489   0.00000  Uiso   1.00
C888   C     0.70887   0.49910   0.61478   0.00000  Uiso   1.00
C889   C     0.97255   0.52785   0.95406   0.00000  Uiso   1.00
C890   C     0.69170   0.48692   0.54366   0.00000  Uiso   1.00
C891   C     0.98958   0.51946   0.90851   0.00000  Uiso   1.00
C892   C     0.67570   0.49023   0.59006   0.00000  Uiso   1.00
C893   C     0.90890   0.49794   0.90731   0.00000  Uiso   1.00
C894   C     0.75774   0.50591   0.59260   0.00000  Uiso   1.00
C895   C     0.89030   0.50773   0.95283   0.00000  Uiso   1.00
C896   C     0.77464   0.50390   0.54569   0.00000  Uiso   1.00
C897   C     0.92333   0.52209   0.97636   0.00000  Uiso   1.00
C898   C     0.74081   0.49329   0.52138   0.00000  Uiso   1.00
C899   C     0.84003   0.50369   0.97548   0.00000  Uiso   1.00
C900   C     0.82430   0.51085   0.52249   0.00000  Uiso   1.00
Cu901  Cu    0.71355   0.50001   0.75000   0.00000  Uiso   1.00
Cu902  Cu    0.95311   0.49999   0.75000   0.00000  Uiso   1.00
H903   H     0.78216   0.51156   0.61298   0.00000  Uiso   1.00
H904   H     0.88633   0.48467   0.88823   0.00000  Uiso   1.00
H905   H     0.97108   0.48473   0.60662   0.00000  Uiso   1.00
H906   H     0.69402   0.52533   0.89163   0.00000  Uiso   1.00
H907   H     0.99769   0.53959   0.97173   0.00000  Uiso   1.00
H908   H     0.99909   0.47877   0.52523   0.00000  Uiso   1.00
H909   H     0.84911   0.53387   0.57934   0.00000  Uiso   1.00
H910   H     0.81315   0.49030   0.91676   0.00000  Uiso   1.00
H911   H     0.86142   0.45676   0.80343   0.00000  Uiso   1.00
H912   H     0.80524   0.54325   0.69657   0.00000  Uiso   1.00
H913   H     0.77448   0.45686   0.80344   0.00000  Uiso   1.00
H914   H     0.89219   0.54314   0.69656   0.00000  Uiso   1.00
N915   N     0.78403   0.50001   0.74999   0.00000  Uiso   1.00
N916   N     0.88264   0.49999   0.75001   0.00000  Uiso   1.00
O917   O     0.70625   0.43989   0.75000   0.00000  Uiso   1.00
O918   O     0.96042   0.56011   0.75000   0.00000  Uiso   1.00
O919   O     0.96039   0.43988   0.75001   0.00000  Uiso   1.00
O920   O     0.70628   0.56012   0.75000   0.00000  Uiso   1.00
O921   O     0.68519   0.50001   0.81491   0.00000  Uiso   1.00
O922   O     0.98148   0.49999   0.68509   0.00000  Uiso   1.00
O923   O     0.93933   0.50000   0.81492   0.00000  Uiso   1.00
O924   O     0.72733   0.50000   0.68508   0.00000  Uiso   1.00
H925   H     0.93186   0.54240   0.53996   0.00000  Uiso   1.00
H926   H     0.73067   0.48092   0.95621   0.00000  Uiso   1.00
H927   H     0.93096   0.37275   0.79769   0.00000  Uiso   1.00
H928   H     0.73571   0.62724   0.70238   0.00000  Uiso   1.00
I929   I     0.90000   0.61787   0.82506   0.00000  Uiso   1.00
I930   I     0.76678   0.38208   0.67500   0.00000  Uiso   1.00
C931   C     0.00040   0.75410   0.74892   0.00000  Uiso   1.00
C932   C     0.33292   0.91257   0.75110   0.00000  Uiso   1.00
C933   C     0.19190   0.85867   0.54454   0.00000  Uiso   1.00
C934   C     0.13815   0.82701   0.95255   0.00000  Uiso   1.00
C935   C     0.24030   0.86434   0.52177   0.00000  Uiso   1.00
C936   C     0.08959   0.82212   0.97515   0.00000  Uiso   1.00
C937   C     0.29423   0.68884   0.77653   0.00000  Uiso   1.00
C938   C     0.03910   0.97782   0.72355   0.00000  Uiso   1.00
C939   C     0.29333   0.97937   0.77836   0.00000  Uiso   1.00
C940   C     0.04001   0.68729   0.72172   0.00000  Uiso   1.00
C941   C     0.33267   0.95715   0.75141   0.00000  Uiso   1.00
C942   C     0.00066   0.70951   0.74866   0.00000  Uiso   1.00
C943   C     0.18292   0.80937   0.77969   0.00000  Uiso   1.00
C944   C     0.15041   0.85730   0.72031   0.00000  Uiso   1.00
C945   C     0.13333   0.80940   0.77969   0.00000  Uiso   1.00
C946   C     0.20001   0.85727   0.72031   0.00000  Uiso   1.00
C947   C     0.30610   0.83391   0.83605   0.00000  Uiso   1.00
C948   C     0.02723   0.83321   0.66392   0.00000  Uiso   1.00
C949   C     0.29093   0.83825   0.88489   0.00000  Uiso   1.00
C950   C     0.04221   0.83244   0.61478   0.00000  Uiso   1.00
C951   C     0.30588   0.86118   0.95406   0.00000  Uiso   1.00
C952   C     0.02503   0.82026   0.54366   0.00000  Uiso   1.00
C953   C     0.32292   0.85280   0.90851   0.00000  Uiso   1.00
C954   C     0.00904   0.82357   0.59006   0.00000  Uiso   1.00
C955   C     0.24223   0.83127   0.90731   0.00000  Uiso   1.00
C956   C     0.09107   0.83925   0.59260   0.00000  Uiso   1.00
C957   C     0.22363   0.84106   0.95283   0.00000  Uiso   1.00
C958   C     0.10798   0.83724   0.54569   0.00000  Uiso   1.00
C959   C     0.25667   0.85543   0.97636   0.00000  Uiso   1.00
C960   C     0.07414   0.82663   0.52138   0.00000  Uiso   1.00
C961   C     0.17336   0.83702   0.97548   0.00000  Uiso   1.00
C962   C     0.15764   0.84418   0.52249   0.00000  Uiso   1.00
Cu963  Cu    0.04689   0.83334   0.75000   0.00000  Uiso   1.00
Cu964  Cu    0.28645   0.83333   0.75000   0.00000  Uiso   1.00
H965   H     0.11550   0.84489   0.61298   0.00000  Uiso   1.00
H966   H     0.21967   0.81800   0.88823   0.00000  Uiso   1.00
H967   H     0.30442   0.81806   0.60662   0.00000  Uiso   1.00
H968   H     0.02736   0.85867   0.89163   0.00000  Uiso   1.00
H969   H     0.33102   0.87293   0.97173   0.00000  Uiso   1.00
H970   H     0.33242   0.81211   0.52523   0.00000  Uiso   1.00
H971   H     0.18244   0.86720   0.57934   0.00000  Uiso   1.00
H972   H     0.14649   0.82363   0.91676   0.00000  Uiso   1.00
H973   H     0.19475   0.79009   0.80343   0.00000  Uiso   1.00
H974   H     0.13858   0.87658   0.69657   0.00000  Uiso   1.00
H975   H     0.10781   0.79020   0.80344   0.00000  Uiso   1.00
H976   H     0.22552   0.87647   0.69656   0.00000  Uiso   1.00
N977   N     0.11736   0.83334   0.74999   0.00000  Uiso   1.00
N978   N     0.21597   0.83332   0.75001   0.00000  Uiso   1.00
O979   O     0.03958   0.77322   0.75000   0.00000  Uiso   1.00
O980   O     0.29375   0.89345   0.75000   0.00000  Uiso   1.00
O981   O     0.29372   0.77321   0.75001   0.00000  Uiso   1.00
O982   O     0.03961   0.89346   0.75000   0.00000  Uiso   1.00
O983   O     0.01852   0.83334   0.81491   0.00000  Uiso   1.00
O984   O     0.31481   0.83332   0.68509   0.00000  Uiso   1.00
O985   O     0.27267   0.83333   0.81492   0.00000  Uiso   1.00
O986   O     0.06067   0.83333   0.68508   0.00000  Uiso   1.00
H987   H     0.26519   0.87573   0.53996   0.00000  Uiso   1.00
H988   H     0.06400   0.81425   0.95621   0.00000  Uiso   1.00
H989   H     0.26430   0.70608   0.79769   0.00000  Uiso   1.00
H990   H     0.06904   0.96058   0.70238   0.00000  Uiso   1.00
I991   I     0.23333   0.95121   0.82506   0.00000  Uiso   1.00
I992   I     0.10011   0.71541   0.67500   0.00000  Uiso   1.00
C993   C     0.33374   0.75410   0.74892   0.00000  Uiso   1.00
C994   C     0.66626   0.91257   0.75110   0.00000  Uiso   1.00
C995   C     0.52524   0.85867   0.54454   0.00000  Uiso   1.00
C996   C     0.47148   0.82701   0.95255   0.00000  Uiso   1.00
C997   C     0.57364   0.86434   0.52177   0.00000  Uiso   1.00
C998   C     0.42293   0.82212   0.97515   0.00000  Uiso   1.00
C999   C     0.62756   0.68884   0.77653   0.00000  Uiso   1.00
C1000  C     0.37244   0.97782   0.72355   0.00000  Uiso   1.00
C1001  C     0.62667   0.97937   0.77836   0.00000  Uiso   1.00
C1002  C     0.37335   0.68729   0.72172   0.00000  Uiso   1.00
C1003  C     0.66600   0.95715   0.75141   0.00000  Uiso   1.00
C1004  C     0.33399   0.70951   0.74866   0.00000  Uiso   1.00
C1005  C     0.51626   0.80937   0.77969   0.00000  Uiso   1.00
C1006  C     0.48374   0.85730   0.72031   0.00000  Uiso   1.00
C1007  C     0.46666   0.80940   0.77969   0.00000  Uiso   1.00
C1008  C     0.53334   0.85727   0.72031   0.00000  Uiso   1.00
C1009  C     0.63944   0.83391   0.83605   0.00000  Uiso   1.00
C1010  C     0.36056   0.83321   0.66392   0.00000  Uiso   1.00
C1011  C     0.62426   0.83825   0.88489   0.00000  Uiso   1.00
C1012  C     0.37554   0.83244   0.61478   0.00000  Uiso   1.00
C1013  C     0.63921   0.86118   0.95406   0.00000  Uiso   1.00
C1014  C     0.35837   0.82026   0.54366   0.00000  Uiso   1.00
C1015  C     0.65625   0.85280   0.90851   0.00000  Uiso   1.00
C1016  C     0.34237   0.82357   0.59006   0.00000  Uiso   1.00
C1017  C     0.57556   0.83127   0.90731   0.00000  Uiso   1.00
C1018  C     0.42440   0.83925   0.59260   0.00000  Uiso   1.00
C1019  C     0.55696   0.84106   0.95283   0.00000  Uiso   1.00
C1020  C     0.44131   0.83724   0.54569   0.00000  Uiso   1.00
C1021  C     0.59000   0.85543   0.97636   0.00000  Uiso   1.00
C1022  C     0.40747   0.82663   0.52138   0.00000  Uiso   1.00
C1023  C     0.50669   0.83702   0.97548   0.00000  Uiso   1.00
C1024  C     0.49097   0.84418   0.52249   0.00000  Uiso   1.00
Cu1025 Cu    0.38022   0.83334   0.75000   0.00000  Uiso   1.00
Cu1026 Cu    0.61978   0.83333   0.75000   0.00000  Uiso   1.00
H1027  H     0.44883   0.84489   0.61298   0.00000  Uiso   1.00
H1028  H     0.55300   0.81800   0.88823   0.00000  Uiso   1.00
H1029  H     0.63775   0.81806   0.60662   0.00000  Uiso   1.00
H1030  H     0.36069   0.85867   0.89163   0.00000  Uiso   1.00
H1031  H     0.66436   0.87293   0.97173   0.00000  Uiso   1.00
H1032  H     0.66576   0.81211   0.52523   0.00000  Uiso   1.00
H1033  H     0.51578   0.86720   0.57934   0.00000  Uiso   1.00
H1034  H     0.47982   0.82363   0.91676   0.00000  Uiso   1.00
H1035  H     0.52809   0.79009   0.80343   0.00000  Uiso   1.00
H1036  H     0.47191   0.87658   0.69657   0.00000  Uiso   1.00
H1037  H     0.44114   0.79020   0.80344   0.00000  Uiso   1.00
H1038  H     0.55886   0.87647   0.69656   0.00000  Uiso   1.00
N1039  N     0.45069   0.83334   0.74999   0.00000  Uiso   1.00
N1040  N     0.54931   0.83332   0.75001   0.00000  Uiso   1.00
O1041  O     0.37291   0.77322   0.75000   0.00000  Uiso   1.00
O1042  O     0.62709   0.89345   0.75000   0.00000  Uiso   1.00
O1043  O     0.62706   0.77321   0.75001   0.00000  Uiso   1.00
O1044  O     0.37294   0.89346   0.75000   0.00000  Uiso   1.00
O1045  O     0.35186   0.83334   0.81491   0.00000  Uiso   1.00
O1046  O     0.64814   0.83332   0.68509   0.00000  Uiso   1.00
O1047  O     0.60600   0.83333   0.81492   0.00000  Uiso   1.00
O1048  O     0.39400   0.83333   0.68508   0.00000  Uiso   1.00
H1049  H     0.59852   0.87573   0.53996   0.00000  Uiso   1.00
H1050  H     0.39733   0.81425   0.95621   0.00000  Uiso   1.00
H1051  H     0.59763   0.70608   0.79769   0.00000  Uiso   1.00
H1052  H     0.40238   0.96058   0.70238   0.00000  Uiso   1.00
I1053  I     0.56666   0.95121   0.82506   0.00000  Uiso   1.00
I1054  I     0.43344   0.71541   0.67500   0.00000  Uiso   1.00
C1055  C     0.66707   0.75410   0.74892   0.00000  Uiso   1.00
C1056  C     0.99959   0.91257   0.75110   0.00000  Uiso   1.00
C1057  C     0.85857   0.85867   0.54454   0.00000  Uiso   1.00
C1058  C     0.80481   0.82701   0.95255   0.00000  Uiso   1.00
C1059  C     0.90697   0.86434   0.52177   0.00000  Uiso   1.00
C1060  C     0.75626   0.82212   0.97515   0.00000  Uiso   1.00
C1061  C     0.96090   0.68884   0.77653   0.00000  Uiso   1.00
C1062  C     0.70577   0.97782   0.72355   0.00000  Uiso   1.00
C1063  C     0.96000   0.97937   0.77836   0.00000  Uiso   1.00
C1064  C     0.70668   0.68729   0.72172   0.00000  Uiso   1.00
C1065  C     0.99934   0.95715   0.75141   0.00000  Uiso   1.00
C1066  C     0.66732   0.70951   0.74866   0.00000  Uiso   1.00
C1067  C     0.84959   0.80937   0.77969   0.00000  Uiso   1.00
C1068  C     0.81708   0.85730   0.72031   0.00000  Uiso   1.00
C1069  C     0.79999   0.80940   0.77969   0.00000  Uiso   1.00
C1070  C     0.86667   0.85727   0.72031   0.00000  Uiso   1.00
C1071  C     0.97277   0.83391   0.83605   0.00000  Uiso   1.00
C1072  C     0.69390   0.83321   0.66392   0.00000  Uiso   1.00
C1073  C     0.95760   0.83825   0.88489   0.00000  Uiso   1.00
C1074  C     0.70887   0.83244   0.61478   0.00000  Uiso   1.00
C1075  C     0.97255   0.86118   0.95406   0.00000  Uiso   1.00
C1076  C     0.69170   0.82026   0.54366   0.00000  Uiso   1.00
C1077  C     0.98958   0.85280   0.90851   0.00000  Uiso   1.00
C1078  C     0.67570   0.82357   0.59006   0.00000  Uiso   1.00
C1079  C     0.90890   0.83127   0.90731   0.00000  Uiso   1.00
C1080  C     0.75774   0.83925   0.59260   0.00000  Uiso   1.00
C1081  C     0.89030   0.84106   0.95283   0.00000  Uiso   1.00
C1082  C     0.77464   0.83724   0.54569   0.00000  Uiso   1.00
C1083  C     0.92333   0.85543   0.97636   0.00000  Uiso   1.00
C1084  C     0.74081   0.82663   0.52138   0.00000  Uiso   1.00
C1085  C     0.84003   0.83702   0.97548   0.00000  Uiso   1.00
C1086  C     0.82430   0.84418   0.52249   0.00000  Uiso   1.00
Cu1087 Cu    0.71355   0.83334   0.75000   0.00000  Uiso   1.00
Cu1088 Cu    0.95311   0.83333   0.75000   0.00000  Uiso   1.00
H1089  H     0.78216   0.84489   0.61298   0.00000  Uiso   1.00
H1090  H     0.88633   0.81800   0.88823   0.00000  Uiso   1.00
H1091  H     0.97108   0.81806   0.60662   0.00000  Uiso   1.00
H1092  H     0.69402   0.85867   0.89163   0.00000  Uiso   1.00
H1093  H     0.99769   0.87293   0.97173   0.00000  Uiso   1.00
H1094  H     0.99909   0.81211   0.52523   0.00000  Uiso   1.00
H1095  H     0.84911   0.86720   0.57934   0.00000  Uiso   1.00
H1096  H     0.81315   0.82363   0.91676   0.00000  Uiso   1.00
H1097  H     0.86142   0.79009   0.80343   0.00000  Uiso   1.00
H1098  H     0.80524   0.87658   0.69657   0.00000  Uiso   1.00
H1099  H     0.77448   0.79020   0.80344   0.00000  Uiso   1.00
H1100  H     0.89219   0.87647   0.69656   0.00000  Uiso   1.00
N1101  N     0.78403   0.83334   0.74999   0.00000  Uiso   1.00
N1102  N     0.88264   0.83332   0.75001   0.00000  Uiso   1.00
O1103  O     0.70625   0.77322   0.75000   0.00000  Uiso   1.00
O1104  O     0.96042   0.89345   0.75000   0.00000  Uiso   1.00
O1105  O     0.96039   0.77321   0.75001   0.00000  Uiso   1.00
O1106  O     0.70628   0.89346   0.75000   0.00000  Uiso   1.00
O1107  O     0.68519   0.83334   0.81491   0.00000  Uiso   1.00
O1108  O     0.98148   0.83332   0.68509   0.00000  Uiso   1.00
O1109  O     0.93933   0.83333   0.81492   0.00000  Uiso   1.00
O1110  O     0.72733   0.83333   0.68508   0.00000  Uiso   1.00
H1111  H     0.93186   0.87573   0.53996   0.00000  Uiso   1.00
H1112  H     0.73067   0.81425   0.95621   0.00000  Uiso   1.00
H1113  H     0.93096   0.70608   0.79769   0.00000  Uiso   1.00
H1114  H     0.73571   0.96058   0.70238   0.00000  Uiso   1.00
I1115  I     0.90000   0.95121   0.82506   0.00000  Uiso   1.00
I1116  I     0.76678   0.71541   0.67500   0.00000  Uiso   1.00
loop_
_geom_bond_atom_site_label_1
_geom_bond_atom_site_label_2
_geom_bond_distance
_geom_bond_site_symmetry_2
_ccdc_geom_bond_type
C1     C12     1.443   .     S
C1     O49     1.289   .     A
C1     O175    1.291   1_455 S
C2     C11     1.443   .     S
C2     O50     1.289   .     A
C2     O114    1.291   .     S
C3     C32     1.417   .     A
C3     H41     1.076   .     S
C3     C5      1.387   .     A
C4     H42     1.076   .     S
C4     C31     1.417   .     A
C4     C6      1.386   .     A
C5     H57     1.085   .     S
C5     C587    1.390   1_554 S
C6     H58     1.084   .     S
C6     C588    1.390   .     S
C7     H59     1.084   .     S
C7     C381    1.386   1_545 S
C7     C74     1.399   .     S
C8     H60     1.084   .     S
C8     C196    1.386   .     S
C8     C135    1.399   1_455 S
C9     C11     1.407   .     A
C9     I61     2.129   .     S
C9     C193    1.386   .     S
C10    I62     2.130   .     S
C10    C12     1.407   .     A
C10    C380    1.386   1_545 S
C11    C70     1.399   .     S
C12    C131    1.399   1_455 S
C13    N48     1.368   .     A
C13    H43     1.082   .     S
C13    C15     1.417   .     A
C14    N47     1.368   .     A
C14    C16     1.417   .     A
C14    H44     1.082   .     S
C15    N47     1.367   .     A
C15    H45     1.082   .     S
C16    N48     1.367   .     A
C16    H46     1.082   .     S
C17    O55     1.294   .     A
C17    C19     1.466   .     S
C17    O115    1.297   .     S
C18    O56     1.295   .     A
C18    C20     1.467   .     S
C18    O178    1.297   1_455 S
C19    C23     1.398   .     A
C19    C25     1.398   .     A
C20    C26     1.399   .     A
C20    C24     1.399   .     A
C21    C29     1.404   .     A
C21    H39     1.083   .     S
C21    C23     1.392   .     A
C22    C24     1.392   .     A
C22    C30     1.404   .     A
C22    H164    1.083   1_455 S
C23    H100    1.083   .     S
C24    H161    1.083   1_455 S
C25    H36     1.076   .     S
C25    C27     1.405   .     A
C26    C28     1.405   .     A
C26    H35     1.075   .     S
C27    C29     1.418   .     A
C27    C31     1.426   .     A
C28    C30     1.418   .     A
C28    C32     1.427   .     A
C29    C563    1.390   .     S
C30    C564    1.390   1_554 S
C31    C590    1.425   .     S
C32    C589    1.425   1_554 S
Cu33   O56     1.943   .     S
Cu33   O52     1.956   .     S
Cu33   O53     1.957   .     S
Cu33   N47     2.013   .     S
Cu33   O49     1.957   .     S
Cu33   Cu158   2.679   1_455 S
Cu34   O55     1.943   .     S
Cu34   O51     1.956   .     S
Cu34   O54     1.957   .     S
Cu34   O50     1.957   .     S
Cu34   N48     2.013   .     S
Cu34   Cu95    2.679   .     S
H37    C86     1.083   .     S
H38    C147    1.083   1_455 S
H40    C84     1.083   .     S
O51    C63     1.291   .     S
O52    C126    1.291   1_455 S
O53    C141    1.297   1_455 S
O54    C80     1.297   .     S
C63    C74     1.443   .     S
C63    O111    1.289   .     A
C64    C73     1.443   .     S
C64    O112    1.289   .     A
C64    O176    1.291   .     S
C65    C94     1.417   .     A
C65    H103    1.076   .     S
C65    C67     1.387   .     A
C66    H104    1.076   .     S
C66    C93     1.417   .     A
C66    C68     1.386   .     A
C67    H119    1.085   .     S
C67    C649    1.390   1_554 S
C68    H120    1.084   .     S
C68    C650    1.390   .     S
C69    H121    1.084   .     S
C69    C443    1.386   1_545 S
C69    C136    1.399   .     S
C70    H122    1.084   .     S
C70    C258    1.386   .     S
C71    C73     1.407   .     A
C71    I123    2.129   .     S
C71    C255    1.386   .     S
C72    I124    2.130   .     S
C72    C74     1.407   .     A
C72    C442    1.386   1_545 S
C73    C132    1.399   .     S
C75    N110    1.368   .     A
C75    H105    1.082   .     S
C75    C77     1.417   .     A
C76    N109    1.368   .     A
C76    C78     1.417   .     A
C76    H106    1.082   .     S
C77    N109    1.367   .     A
C77    H107    1.082   .     S
C78    N110    1.367   .     A
C78    H108    1.082   .     S
C79    O117    1.294   .     A
C79    C81     1.466   .     S
C79    O177    1.297   .     S
C80    O118    1.295   .     A
C80    C82     1.467   .     S
C81    C85     1.398   .     A
C81    C87     1.398   .     A
C82    C88     1.399   .     A
C82    C86     1.399   .     A
C83    C91     1.404   .     A
C83    H101    1.083   .     S
C83    C85     1.392   .     A
C84    C86     1.392   .     A
C84    C92     1.404   .     A
C85    H162    1.083   .     S
C87    H98     1.076   .     S
C87    C89     1.405   .     A
C88    C90     1.405   .     A
C88    H97     1.075   .     S
C89    C91     1.418   .     A
C89    C93     1.426   .     A
C90    C92     1.418   .     A
C90    C94     1.427   .     A
C91    C625    1.390   .     S
C92    C626    1.390   1_554 S
C93    C652    1.425   .     S
C94    C651    1.425   1_554 S
Cu95   O118    1.943   .     S
Cu95   O114    1.956   .     S
Cu95   O115    1.957   .     S
Cu95   N109    2.013   .     S
Cu95   O111    1.957   .     S
Cu96   O117    1.943   .     S
Cu96   O113    1.956   .     S
Cu96   O116    1.957   .     S
Cu96   O112    1.957   .     S
Cu96   N110    2.013   .     S
Cu96   Cu157   2.679   .     S
H99    C148    1.083   .     S
H102   C146    1.083   .     S
O113   C125    1.291   .     S
O116   C142    1.297   .     S
C125   C136    1.443   .     S
C125   O173    1.289   .     A
C126   C135    1.443   .     S
C126   O174    1.289   .     A
C126   O52     1.291   1_655 S
C127   C156    1.417   .     A
C127   H165    1.076   .     S
C127   C129    1.387   .     A
C128   H166    1.076   .     S
C128   C155    1.417   .     A
C128   C130    1.386   .     A
C129   H181    1.085   .     S
C129   C711    1.390   1_554 S
C130   H182    1.084   .     S
C130   C712    1.390   .     S
C131   H183    1.084   .     S
C131   C505    1.386   1_545 S
C131   C12     1.399   1_655 S
C132   H184    1.084   .     S
C132   C320    1.386   .     S
C133   C135    1.407   .     A
C133   I185    2.129   .     S
C133   C317    1.386   .     S
C134   I186    2.130   .     S
C134   C136    1.407   .     A
C134   C504    1.386   1_545 S
C135   C8      1.399   1_655 S
C137   N172    1.368   .     A
C137   H167    1.082   .     S
C137   C139    1.417   .     A
C138   N171    1.368   .     A
C138   C140    1.417   .     A
C138   H168    1.082   .     S
C139   N171    1.367   .     A
C139   H169    1.082   .     S
C140   N172    1.367   .     A
C140   H170    1.082   .     S
C141   O179    1.294   .     A
C141   C143    1.466   .     S
C141   O53     1.297   1_655 S
C142   O180    1.295   .     A
C142   C144    1.467   .     S
C143   C147    1.398   .     A
C143   C149    1.398   .     A
C144   C150    1.399   .     A
C144   C148    1.399   .     A
C145   C153    1.404   .     A
C145   H163    1.083   .     S
C145   C147    1.392   .     A
C146   C148    1.392   .     A
C146   C154    1.404   .     A
C147   H38     1.083   1_655 S
C149   H160    1.076   .     S
C149   C151    1.405   .     A
C150   C152    1.405   .     A
C150   H159    1.075   .     S
C151   C153    1.418   .     A
C151   C155    1.426   .     A
C152   C154    1.418   .     A
C152   C156    1.427   .     A
C153   C687    1.390   .     S
C154   C688    1.390   1_554 S
C155   C714    1.425   .     S
C156   C713    1.425   1_554 S
Cu157  O180    1.943   .     S
Cu157  O176    1.956   .     S
Cu157  O177    1.957   .     S
Cu157  N171    2.013   .     S
Cu157  O173    1.957   .     S
Cu158  O179    1.943   .     S
Cu158  O175    1.956   .     S
Cu158  O178    1.957   .     S
Cu158  O174    1.957   .     S
Cu158  N172    2.013   .     S
Cu158  Cu33    2.679   1_655 S
H161   C24     1.083   1_655 S
H164   C22     1.083   1_655 S
O175   C1      1.291   1_655 S
O178   C18     1.297   1_655 S
C187   C198    1.443   .     S
C187   O235    1.289   .     A
C187   O361    1.291   1_455 S
C188   C197    1.443   .     S
C188   O236    1.289   .     A
C188   O300    1.291   .     S
C189   C218    1.417   .     A
C189   H227    1.076   .     S
C189   C191    1.387   .     A
C190   H228    1.076   .     S
C190   C217    1.417   .     A
C190   C192    1.386   .     A
C191   H243    1.085   .     S
C191   C773    1.390   1_554 S
C192   H244    1.084   .     S
C192   C774    1.390   .     S
C193   H245    1.084   .     S
C193   C260    1.399   .     S
C194   H246    1.084   .     S
C194   C382    1.386   .     S
C194   C321    1.399   1_455 S
C195   C197    1.407   .     A
C195   I247    2.129   .     S
C195   C379    1.386   .     S
C196   I248    2.130   .     S
C196   C198    1.407   .     A
C197   C256    1.399   .     S
C198   C317    1.399   1_455 S
C199   N234    1.368   .     A
C199   H229    1.082   .     S
C199   C201    1.417   .     A
C200   N233    1.368   .     A
C200   C202    1.417   .     A
C200   H230    1.082   .     S
C201   N233    1.367   .     A
C201   H231    1.082   .     S
C202   N234    1.367   .     A
C202   H232    1.082   .     S
C203   O241    1.294   .     A
C203   C205    1.466   .     S
C203   O301    1.297   .     S
C204   O242    1.295   .     A
C204   C206    1.467   .     S
C204   O364    1.297   1_455 S
C205   C209    1.398   .     A
C205   C211    1.398   .     A
C206   C212    1.399   .     A
C206   C210    1.399   .     A
C207   C215    1.404   .     A
C207   H225    1.083   .     S
C207   C209    1.392   .     A
C208   C210    1.392   .     A
C208   C216    1.404   .     A
C208   H350    1.083   1_455 S
C209   H286    1.083   .     S
C210   H347    1.083   1_455 S
C211   H222    1.076   .     S
C211   C213    1.405   .     A
C212   C214    1.405   .     A
C212   H221    1.075   .     S
C213   C215    1.418   .     A
C213   C217    1.426   .     A
C214   C216    1.418   .     A
C214   C218    1.427   .     A
C215   C749    1.390   .     S
C216   C750    1.390   1_554 S
C217   C776    1.425   .     S
C218   C775    1.425   1_554 S
Cu219  O242    1.943   .     S
Cu219  O238    1.956   .     S
Cu219  O239    1.957   .     S
Cu219  N233    2.013   .     S
Cu219  O235    1.957   .     S
Cu219  Cu344   2.679   1_455 S
Cu220  O241    1.943   .     S
Cu220  O237    1.956   .     S
Cu220  O240    1.957   .     S
Cu220  O236    1.957   .     S
Cu220  N234    2.013   .     S
Cu220  Cu281   2.679   .     S
H223   C272    1.083   .     S
H224   C333    1.083   1_455 S
H226   C270    1.083   .     S
O237   C249    1.291   .     S
O238   C312    1.291   1_455 S
O239   C327    1.297   1_455 S
O240   C266    1.297   .     S
C249   C260    1.443   .     S
C249   O297    1.289   .     A
C250   C259    1.443   .     S
C250   O298    1.289   .     A
C250   O362    1.291   .     S
C251   C280    1.417   .     A
C251   H289    1.076   .     S
C251   C253    1.387   .     A
C252   H290    1.076   .     S
C252   C279    1.417   .     A
C252   C254    1.386   .     A
C253   H305    1.085   .     S
C253   C835    1.390   1_554 S
C254   H306    1.084   .     S
C254   C836    1.390   .     S
C255   H307    1.084   .     S
C255   C322    1.399   .     S
C256   H308    1.084   .     S
C256   C444    1.386   .     S
C257   C259    1.407   .     A
C257   I309    2.129   .     S
C257   C441    1.386   .     S
C258   I310    2.130   .     S
C258   C260    1.407   .     A
C259   C318    1.399   .     S
C261   N296    1.368   .     A
C261   H291    1.082   .     S
C261   C263    1.417   .     A
C262   N295    1.368   .     A
C262   C264    1.417   .     A
C262   H292    1.082   .     S
C263   N295    1.367   .     A
C263   H293    1.082   .     S
C264   N296    1.367   .     A
C264   H294    1.082   .     S
C265   O303    1.294   .     A
C265   C267    1.466   .     S
C265   O363    1.297   .     S
C266   O304    1.295   .     A
C266   C268    1.467   .     S
C267   C271    1.398   .     A
C267   C273    1.398   .     A
C268   C274    1.399   .     A
C268   C272    1.399   .     A
C269   C277    1.404   .     A
C269   H287    1.083   .     S
C269   C271    1.392   .     A
C270   C272    1.392   .     A
C270   C278    1.404   .     A
C271   H348    1.083   .     S
C273   H284    1.076   .     S
C273   C275    1.405   .     A
C274   C276    1.405   .     A
C274   H283    1.075   .     S
C275   C277    1.418   .     A
C275   C279    1.426   .     A
C276   C278    1.418   .     A
C276   C280    1.427   .     A
C277   C811    1.390   .     S
C278   C812    1.390   1_554 S
C279   C838    1.425   .     S
C280   C837    1.425   1_554 S
Cu281  O304    1.943   .     S
Cu281  O300    1.956   .     S
Cu281  O301    1.957   .     S
Cu281  N295    2.013   .     S
Cu281  O297    1.957   .     S
Cu282  O303    1.943   .     S
Cu282  O299    1.956   .     S
Cu282  O302    1.957   .     S
Cu282  O298    1.957   .     S
Cu282  N296    2.013   .     S
Cu282  Cu343   2.679   .     S
H285   C334    1.083   .     S
H288   C332    1.083   .     S
O299   C311    1.291   .     S
O302   C328    1.297   .     S
C311   C322    1.443   .     S
C311   O359    1.289   .     A
C312   C321    1.443   .     S
C312   O360    1.289   .     A
C312   O238    1.291   1_655 S
C313   C342    1.417   .     A
C313   H351    1.076   .     S
C313   C315    1.387   .     A
C314   H352    1.076   .     S
C314   C341    1.417   .     A
C314   C316    1.386   .     A
C315   H367    1.085   .     S
C315   C897    1.390   1_554 S
C316   H368    1.084   .     S
C316   C898    1.390   .     S
C317   H369    1.084   .     S
C317   C198    1.399   1_655 S
C318   H370    1.084   .     S
C318   C506    1.386   .     S
C319   C321    1.407   .     A
C319   I371    2.129   .     S
C319   C503    1.386   .     S
C320   I372    2.130   .     S
C320   C322    1.407   .     A
C321   C194    1.399   1_655 S
C323   N358    1.368   .     A
C323   H353    1.082   .     S
C323   C325    1.417   .     A
C324   N357    1.368   .     A
C324   C326    1.417   .     A
C324   H354    1.082   .     S
C325   N357    1.367   .     A
C325   H355    1.082   .     S
C326   N358    1.367   .     A
C326   H356    1.082   .     S
C327   O365    1.294   .     A
C327   C329    1.466   .     S
C327   O239    1.297   1_655 S
C328   O366    1.295   .     A
C328   C330    1.467   .     S
C329   C333    1.398   .     A
C329   C335    1.398   .     A
C330   C336    1.399   .     A
C330   C334    1.399   .     A
C331   C339    1.404   .     A
C331   H349    1.083   .     S
C331   C333    1.392   .     A
C332   C334    1.392   .     A
C332   C340    1.404   .     A
C333   H224    1.083   1_655 S
C335   H346    1.076   .     S
C335   C337    1.405   .     A
C336   C338    1.405   .     A
C336   H345    1.075   .     S
C337   C339    1.418   .     A
C337   C341    1.426   .     A
C338   C340    1.418   .     A
C338   C342    1.427   .     A
C339   C873    1.390   .     S
C340   C874    1.390   1_554 S
C341   C900    1.425   .     S
C342   C899    1.425   1_554 S
Cu343  O366    1.943   .     S
Cu343  O362    1.956   .     S
Cu343  O363    1.957   .     S
Cu343  N357    2.013   .     S
Cu343  O359    1.957   .     S
Cu344  O365    1.943   .     S
Cu344  O361    1.956   .     S
Cu344  O364    1.957   .     S
Cu344  O360    1.957   .     S
Cu344  N358    2.013   .     S
Cu344  Cu219   2.679   1_655 S
H347   C210    1.083   1_655 S
H350   C208    1.083   1_655 S
O361   C187    1.291   1_655 S
O364   C204    1.297   1_655 S
C373   C384    1.443   .     S
C373   O421    1.289   .     A
C373   O547    1.291   1_455 S
C374   C383    1.443   .     S
C374   O422    1.289   .     A
C374   O486    1.291   .     S
C375   C404    1.417   .     A
C375   H413    1.076   .     S
C375   C377    1.387   .     A
C376   H414    1.076   .     S
C376   C403    1.417   .     A
C376   C378    1.386   .     A
C377   H429    1.085   .     S
C377   C959    1.390   1_554 S
C378   H430    1.084   .     S
C378   C960    1.390   .     S
C379   H431    1.084   .     S
C379   C446    1.399   .     S
C380   H432    1.084   .     S
C380   C10     1.386   1_565 S
C380   C507    1.399   1_455 S
C381   C383    1.407   .     A
C381   I433    2.129   .     S
C381   C7      1.386   1_565 S
C382   I434    2.130   .     S
C382   C384    1.407   .     A
C383   C442    1.399   .     S
C384   C503    1.399   1_455 S
C385   N420    1.368   .     A
C385   H415    1.082   .     S
C385   C387    1.417   .     A
C386   N419    1.368   .     A
C386   C388    1.417   .     A
C386   H416    1.082   .     S
C387   N419    1.367   .     A
C387   H417    1.082   .     S
C388   N420    1.367   .     A
C388   H418    1.082   .     S
C389   O427    1.294   .     A
C389   C391    1.466   .     S
C389   O487    1.297   .     S
C390   O428    1.295   .     A
C390   C392    1.467   .     S
C390   O550    1.297   1_455 S
C391   C395    1.398   .     A
C391   C397    1.398   .     A
C392   C398    1.399   .     A
C392   C396    1.399   .     A
C393   C401    1.404   .     A
C393   H411    1.083   .     S
C393   C395    1.392   .     A
C394   C396    1.392   .     A
C394   C402    1.404   .     A
C394   H536    1.083   1_455 S
C395   H472    1.083   .     S
C396   H533    1.083   1_455 S
C397   H408    1.076   .     S
C397   C399    1.405   .     A
C398   C400    1.405   .     A
C398   H407    1.075   .     S
C399   C401    1.418   .     A
C399   C403    1.426   .     A
C400   C402    1.418   .     A
C400   C404    1.427   .     A
C401   C935    1.390   .     S
C402   C936    1.390   1_554 S
C403   C962    1.425   .     S
C404   C961    1.425   1_554 S
Cu405  O428    1.943   .     S
Cu405  O424    1.956   .     S
Cu405  O425    1.957   .     S
Cu405  N419    2.013   .     S
Cu405  O421    1.957   .     S
Cu405  Cu530   2.679   1_455 S
Cu406  O427    1.943   .     S
Cu406  O423    1.956   .     S
Cu406  O426    1.957   .     S
Cu406  O422    1.957   .     S
Cu406  N420    2.013   .     S
Cu406  Cu467   2.679   .     S
H409   C458    1.083   .     S
H410   C519    1.083   1_455 S
H412   C456    1.083   .     S
O423   C435    1.291   .     S
O424   C498    1.291   1_455 S
O425   C513    1.297   1_455 S
O426   C452    1.297   .     S
C435   C446    1.443   .     S
C435   O483    1.289   .     A
C436   C445    1.443   .     S
C436   O484    1.289   .     A
C436   O548    1.291   .     S
C437   C466    1.417   .     A
C437   H475    1.076   .     S
C437   C439    1.387   .     A
C438   H476    1.076   .     S
C438   C465    1.417   .     A
C438   C440    1.386   .     A
C439   H491    1.085   .     S
C439   C1021   1.390   1_554 S
C440   H492    1.084   .     S
C440   C1022   1.390   .     S
C441   H493    1.084   .     S
C441   C508    1.399   .     S
C442   H494    1.084   .     S
C442   C72     1.386   1_565 S
C443   C445    1.407   .     A
C443   I495    2.129   .     S
C443   C69     1.386   1_565 S
C444   I496    2.130   .     S
C444   C446    1.407   .     A
C445   C504    1.399   .     S
C447   N482    1.368   .     A
C447   H477    1.082   .     S
C447   C449    1.417   .     A
C448   N481    1.368   .     A
C448   C450    1.417   .     A
C448   H478    1.082   .     S
C449   N481    1.367   .     A
C449   H479    1.082   .     S
C450   N482    1.367   .     A
C450   H480    1.082   .     S
C451   O489    1.294   .     A
C451   C453    1.466   .     S
C451   O549    1.297   .     S
C452   O490    1.295   .     A
C452   C454    1.467   .     S
C453   C457    1.398   .     A
C453   C459    1.398   .     A
C454   C460    1.399   .     A
C454   C458    1.399   .     A
C455   C463    1.404   .     A
C455   H473    1.083   .     S
C455   C457    1.392   .     A
C456   C458    1.392   .     A
C456   C464    1.404   .     A
C457   H534    1.083   .     S
C459   H470    1.076   .     S
C459   C461    1.405   .     A
C460   C462    1.405   .     A
C460   H469    1.075   .     S
C461   C463    1.418   .     A
C461   C465    1.426   .     A
C462   C464    1.418   .     A
C462   C466    1.427   .     A
C463   C997    1.390   .     S
C464   C998    1.390   1_554 S
C465   C1024   1.425   .     S
C466   C1023   1.425   1_554 S
Cu467  O490    1.943   .     S
Cu467  O486    1.956   .     S
Cu467  O487    1.957   .     S
Cu467  N481    2.013   .     S
Cu467  O483    1.957   .     S
Cu468  O489    1.943   .     S
Cu468  O485    1.956   .     S
Cu468  O488    1.957   .     S
Cu468  O484    1.957   .     S
Cu468  N482    2.013   .     S
Cu468  Cu529   2.679   .     S
H471   C520    1.083   .     S
H474   C518    1.083   .     S
O485   C497    1.291   .     S
O488   C514    1.297   .     S
C497   C508    1.443   .     S
C497   O545    1.289   .     A
C498   C507    1.443   .     S
C498   O546    1.289   .     A
C498   O424    1.291   1_655 S
C499   C528    1.417   .     A
C499   H537    1.076   .     S
C499   C501    1.387   .     A
C500   H538    1.076   .     S
C500   C527    1.417   .     A
C500   C502    1.386   .     A
C501   H553    1.085   .     S
C501   C1083   1.390   1_554 S
C502   H554    1.084   .     S
C502   C1084   1.390   .     S
C503   H555    1.084   .     S
C503   C384    1.399   1_655 S
C504   H556    1.084   .     S
C504   C134    1.386   1_565 S
C505   C507    1.407   .     A
C505   I557    2.129   .     S
C505   C131    1.386   1_565 S
C506   I558    2.130   .     S
C506   C508    1.407   .     A
C507   C380    1.399   1_655 S
C509   N544    1.368   .     A
C509   H539    1.082   .     S
C509   C511    1.417   .     A
C510   N543    1.368   .     A
C510   C512    1.417   .     A
C510   H540    1.082   .     S
C511   N543    1.367   .     A
C511   H541    1.082   .     S
C512   N544    1.367   .     A
C512   H542    1.082   .     S
C513   O551    1.294   .     A
C513   C515    1.466   .     S
C513   O425    1.297   1_655 S
C514   O552    1.295   .     A
C514   C516    1.467   .     S
C515   C519    1.398   .     A
C515   C521    1.398   .     A
C516   C522    1.399   .     A
C516   C520    1.399   .     A
C517   C525    1.404   .     A
C517   H535    1.083   .     S
C517   C519    1.392   .     A
C518   C520    1.392   .     A
C518   C526    1.404   .     A
C519   H410    1.083   1_655 S
C521   H532    1.076   .     S
C521   C523    1.405   .     A
C522   C524    1.405   .     A
C522   H531    1.075   .     S
C523   C525    1.418   .     A
C523   C527    1.426   .     A
C524   C526    1.418   .     A
C524   C528    1.427   .     A
C525   C1059   1.390   .     S
C526   C1060   1.390   1_554 S
C527   C1086   1.425   .     S
C528   C1085   1.425   1_554 S
Cu529  O552    1.943   .     S
Cu529  O548    1.956   .     S
Cu529  O549    1.957   .     S
Cu529  N543    2.013   .     S
Cu529  O545    1.957   .     S
Cu530  O551    1.943   .     S
Cu530  O547    1.956   .     S
Cu530  O550    1.957   .     S
Cu530  O546    1.957   .     S
Cu530  N544    2.013   .     S
Cu530  Cu405   2.679   1_655 S
H533   C396    1.083   1_655 S
H536   C394    1.083   1_655 S
O547   C373    1.291   1_655 S
O550   C390    1.297   1_655 S
C559   C570    1.443   .     S
C559   O607    1.289   .     A
C559   O733    1.291   1_455 S
C560   C569    1.443   .     S
C560   O608    1.289   .     A
C560   O672    1.291   .     S
C561   C590    1.417   .     A
C561   H599    1.076   .     S
C561   C563    1.387   .     A
C562   H600    1.076   .     S
C562   C589    1.417   .     A
C562   C564    1.386   .     A
C563   H615    1.085   .     S
C564   H616    1.084   .     S
C564   C30     1.390   1_556 S
C565   H617    1.084   .     S
C565   C939    1.386   1_545 S
C565   C632    1.399   .     S
C566   H618    1.084   .     S
C566   C754    1.386   .     S
C566   C693    1.399   1_455 S
C567   C569    1.407   .     A
C567   I619    2.129   .     S
C567   C751    1.386   .     S
C568   I620    2.130   .     S
C568   C570    1.407   .     A
C568   C938    1.386   1_545 S
C569   C628    1.399   .     S
C570   C689    1.399   1_455 S
C571   N606    1.368   .     A
C571   H601    1.082   .     S
C571   C573    1.417   .     A
C572   N605    1.368   .     A
C572   C574    1.417   .     A
C572   H602    1.082   .     S
C573   N605    1.367   .     A
C573   H603    1.082   .     S
C574   N606    1.367   .     A
C574   H604    1.082   .     S
C575   O613    1.294   .     A
C575   C577    1.466   .     S
C575   O673    1.297   .     S
C576   O614    1.295   .     A
C576   C578    1.467   .     S
C576   O736    1.297   1_455 S
C577   C581    1.398   .     A
C577   C583    1.398   .     A
C578   C584    1.399   .     A
C578   C582    1.399   .     A
C579   C587    1.404   .     A
C579   H597    1.083   .     S
C579   C581    1.392   .     A
C580   C582    1.392   .     A
C580   C588    1.404   .     A
C580   H722    1.083   1_455 S
C581   H658    1.083   .     S
C582   H719    1.083   1_455 S
C583   H594    1.076   .     S
C583   C585    1.405   .     A
C584   C586    1.405   .     A
C584   H593    1.075   .     S
C585   C587    1.418   .     A
C585   C589    1.426   .     A
C586   C588    1.418   .     A
C586   C590    1.427   .     A
C587   C5      1.390   1_556 S
C589   C32     1.425   1_556 S
Cu591  O614    1.943   .     S
Cu591  O610    1.956   .     S
Cu591  O611    1.957   .     S
Cu591  N605    2.013   .     S
Cu591  O607    1.957   .     S
Cu591  Cu716   2.679   1_455 S
Cu592  O613    1.943   .     S
Cu592  O609    1.956   .     S
Cu592  O612    1.957   .     S
Cu592  O608    1.957   .     S
Cu592  N606    2.013   .     S
Cu592  Cu653   2.679   .     S
H595   C644    1.083   .     S
H596   C705    1.083   1_455 S
H598   C642    1.083   .     S
O609   C621    1.291   .     S
O610   C684    1.291   1_455 S
O611   C699    1.297   1_455 S
O612   C638    1.297   .     S
C621   C632    1.443   .     S
C621   O669    1.289   .     A
C622   C631    1.443   .     S
C622   O670    1.289   .     A
C622   O734    1.291   .     S
C623   C652    1.417   .     A
C623   H661    1.076   .     S
C623   C625    1.387   .     A
C624   H662    1.076   .     S
C624   C651    1.417   .     A
C624   C626    1.386   .     A
C625   H677    1.085   .     S
C626   H678    1.084   .     S
C626   C92     1.390   1_556 S
C627   H679    1.084   .     S
C627   C1001   1.386   1_545 S
C627   C694    1.399   .     S
C628   H680    1.084   .     S
C628   C816    1.386   .     S
C629   C631    1.407   .     A
C629   I681    2.129   .     S
C629   C813    1.386   .     S
C630   I682    2.130   .     S
C630   C632    1.407   .     A
C630   C1000   1.386   1_545 S
C631   C690    1.399   .     S
C633   N668    1.368   .     A
C633   H663    1.082   .     S
C633   C635    1.417   .     A
C634   N667    1.368   .     A
C634   C636    1.417   .     A
C634   H664    1.082   .     S
C635   N667    1.367   .     A
C635   H665    1.082   .     S
C636   N668    1.367   .     A
C636   H666    1.082   .     S
C637   O675    1.294   .     A
C637   C639    1.466   .     S
C637   O735    1.297   .     S
C638   O676    1.295   .     A
C638   C640    1.467   .     S
C639   C643    1.398   .     A
C639   C645    1.398   .     A
C640   C646    1.399   .     A
C640   C644    1.399   .     A
C641   C649    1.404   .     A
C641   H659    1.083   .     S
C641   C643    1.392   .     A
C642   C644    1.392   .     A
C642   C650    1.404   .     A
C643   H720    1.083   .     S
C645   H656    1.076   .     S
C645   C647    1.405   .     A
C646   C648    1.405   .     A
C646   H655    1.075   .     S
C647   C649    1.418   .     A
C647   C651    1.426   .     A
C648   C650    1.418   .     A
C648   C652    1.427   .     A
C649   C67     1.390   1_556 S
C651   C94     1.425   1_556 S
Cu653  O676    1.943   .     S
Cu653  O672    1.956   .     S
Cu653  O673    1.957   .     S
Cu653  N667    2.013   .     S
Cu653  O669    1.957   .     S
Cu654  O675    1.943   .     S
Cu654  O671    1.956   .     S
Cu654  O674    1.957   .     S
Cu654  O670    1.957   .     S
Cu654  N668    2.013   .     S
Cu654  Cu715   2.679   .     S
H657   C706    1.083   .     S
H660   C704    1.083   .     S
O671   C683    1.291   .     S
O674   C700    1.297   .     S
C683   C694    1.443   .     S
C683   O731    1.289   .     A
C684   C693    1.443   .     S
C684   O732    1.289   .     A
C684   O610    1.291   1_655 S
C685   C714    1.417   .     A
C685   H723    1.076   .     S
C685   C687    1.387   .     A
C686   H724    1.076   .     S
C686   C713    1.417   .     A
C686   C688    1.386   .     A
C687   H739    1.085   .     S
C688   H740    1.084   .     S
C688   C154    1.390   1_556 S
C689   H741    1.084   .     S
C689   C1063   1.386   1_545 S
C689   C570    1.399   1_655 S
C690   H742    1.084   .     S
C690   C878    1.386   .     S
C691   C693    1.407   .     A
C691   I743    2.129   .     S
C691   C875    1.386   .     S
C692   I744    2.130   .     S
C692   C694    1.407   .     A
C692   C1062   1.386   1_545 S
C693   C566    1.399   1_655 S
C695   N730    1.368   .     A
C695   H725    1.082   .     S
C695   C697    1.417   .     A
C696   N729    1.368   .     A
C696   C698    1.417   .     A
C696   H726    1.082   .     S
C697   N729    1.367   .     A
C697   H727    1.082   .     S
C698   N730    1.367   .     A
C698   H728    1.082   .     S
C699   O737    1.294   .     A
C699   C701    1.466   .     S
C699   O611    1.297   1_655 S
C700   O738    1.295   .     A
C700   C702    1.467   .     S
C701   C705    1.398   .     A
C701   C707    1.398   .     A
C702   C708    1.399   .     A
C702   C706    1.399   .     A
C703   C711    1.404   .     A
C703   H721    1.083   .     S
C703   C705    1.392   .     A
C704   C706    1.392   .     A
C704   C712    1.404   .     A
C705   H596    1.083   1_655 S
C707   H718    1.076   .     S
C707   C709    1.405   .     A
C708   C710    1.405   .     A
C708   H717    1.075   .     S
C709   C711    1.418   .     A
C709   C713    1.426   .     A
C710   C712    1.418   .     A
C710   C714    1.427   .     A
C711   C129    1.390   1_556 S
C713   C156    1.425   1_556 S
Cu715  O738    1.943   .     S
Cu715  O734    1.956   .     S
Cu715  O735    1.957   .     S
Cu715  N729    2.013   .     S
Cu715  O731    1.957   .     S
Cu716  O737    1.943   .     S
Cu716  O733    1.956   .     S
Cu716  O736    1.957   .     S
Cu716  O732    1.957   .     S
Cu716  N730    2.013   .     S
Cu716  Cu591   2.679   1_655 S
H719   C582    1.083   1_655 S
H722   C580    1.083   1_655 S
O733   C559    1.291   1_655 S
O736   C576    1.297   1_655 S
C745   C756    1.443   .     S
C745   O793    1.289   .     A
C745   O919    1.291   1_455 S
C746   C755    1.443   .     S
C746   O794    1.289   .     A
C746   O858    1.291   .     S
C747   C776    1.417   .     A
C747   H785    1.076   .     S
C747   C749    1.387   .     A
C748   H786    1.076   .     S
C748   C775    1.417   .     A
C748   C750    1.386   .     A
C749   H801    1.085   .     S
C750   H802    1.084   .     S
C750   C216    1.390   1_556 S
C751   H803    1.084   .     S
C751   C818    1.399   .     S
C752   H804    1.084   .     S
C752   C940    1.386   .     S
C752   C879    1.399   1_455 S
C753   C755    1.407   .     A
C753   I805    2.129   .     S
C753   C937    1.386   .     S
C754   I806    2.130   .     S
C754   C756    1.407   .     A
C755   C814    1.399   .     S
C756   C875    1.399   1_455 S
C757   N792    1.368   .     A
C757   H787    1.082   .     S
C757   C759    1.417   .     A
C758   N791    1.368   .     A
C758   C760    1.417   .     A
C758   H788    1.082   .     S
C759   N791    1.367   .     A
C759   H789    1.082   .     S
C760   N792    1.367   .     A
C760   H790    1.082   .     S
C761   O799    1.294   .     A
C761   C763    1.466   .     S
C761   O859    1.297   .     S
C762   O800    1.295   .     A
C762   C764    1.467   .     S
C762   O922    1.297   1_455 S
C763   C767    1.398   .     A
C763   C769    1.398   .     A
C764   C770    1.399   .     A
C764   C768    1.399   .     A
C765   C773    1.404   .     A
C765   H783    1.083   .     S
C765   C767    1.392   .     A
C766   C768    1.392   .     A
C766   C774    1.404   .     A
C766   H908    1.083   1_455 S
C767   H844    1.083   .     S
C768   H905    1.083   1_455 S
C769   H780    1.076   .     S
C769   C771    1.405   .     A
C770   C772    1.405   .     A
C770   H779    1.075   .     S
C771   C773    1.418   .     A
C771   C775    1.426   .     A
C772   C774    1.418   .     A
C772   C776    1.427   .     A
C773   C191    1.390   1_556 S
C775   C218    1.425   1_556 S
Cu777  O800    1.943   .     S
Cu777  O796    1.956   .     S
Cu777  O797    1.957   .     S
Cu777  N791    2.013   .     S
Cu777  O793    1.957   .     S
Cu777  Cu902   2.679   1_455 S
Cu778  O799    1.943   .     S
Cu778  O795    1.956   .     S
Cu778  O798    1.957   .     S
Cu778  O794    1.957   .     S
Cu778  N792    2.013   .     S
Cu778  Cu839   2.679   .     S
H781   C830    1.083   .     S
H782   C891    1.083   1_455 S
H784   C828    1.083   .     S
O795   C807    1.291   .     S
O796   C870    1.291   1_455 S
O797   C885    1.297   1_455 S
O798   C824    1.297   .     S
C807   C818    1.443   .     S
C807   O855    1.289   .     A
C808   C817    1.443   .     S
C808   O856    1.289   .     A
C808   O920    1.291   .     S
C809   C838    1.417   .     A
C809   H847    1.076   .     S
C809   C811    1.387   .     A
C810   H848    1.076   .     S
C810   C837    1.417   .     A
C810   C812    1.386   .     A
C811   H863    1.085   .     S
C812   H864    1.084   .     S
C812   C278    1.390   1_556 S
C813   H865    1.084   .     S
C813   C880    1.399   .     S
C814   H866    1.084   .     S
C814   C1002   1.386   .     S
C815   C817    1.407   .     A
C815   I867    2.129   .     S
C815   C999    1.386   .     S
C816   I868    2.130   .     S
C816   C818    1.407   .     A
C817   C876    1.399   .     S
C819   N854    1.368   .     A
C819   H849    1.082   .     S
C819   C821    1.417   .     A
C820   N853    1.368   .     A
C820   C822    1.417   .     A
C820   H850    1.082   .     S
C821   N853    1.367   .     A
C821   H851    1.082   .     S
C822   N854    1.367   .     A
C822   H852    1.082   .     S
C823   O861    1.294   .     A
C823   C825    1.466   .     S
C823   O921    1.297   .     S
C824   O862    1.295   .     A
C824   C826    1.467   .     S
C825   C829    1.398   .     A
C825   C831    1.398   .     A
C826   C832    1.399   .     A
C826   C830    1.399   .     A
C827   C835    1.404   .     A
C827   H845    1.083   .     S
C827   C829    1.392   .     A
C828   C830    1.392   .     A
C828   C836    1.404   .     A
C829   H906    1.083   .     S
C831   H842    1.076   .     S
C831   C833    1.405   .     A
C832   C834    1.405   .     A
C832   H841    1.075   .     S
C833   C835    1.418   .     A
C833   C837    1.426   .     A
C834   C836    1.418   .     A
C834   C838    1.427   .     A
C835   C253    1.390   1_556 S
C837   C280    1.425   1_556 S
Cu839  O862    1.943   .     S
Cu839  O858    1.956   .     S
Cu839  O859    1.957   .     S
Cu839  N853    2.013   .     S
Cu839  O855    1.957   .     S
Cu840  O861    1.943   .     S
Cu840  O857    1.956   .     S
Cu840  O860    1.957   .     S
Cu840  O856    1.957   .     S
Cu840  N854    2.013   .     S
Cu840  Cu901   2.679   .     S
H843   C892    1.083   .     S
H846   C890    1.083   .     S
O857   C869    1.291   .     S
O860   C886    1.297   .     S
C869   C880    1.443   .     S
C869   O917    1.289   .     A
C870   C879    1.443   .     S
C870   O918    1.289   .     A
C870   O796    1.291   1_655 S
C871   C900    1.417   .     A
C871   H909    1.076   .     S
C871   C873    1.387   .     A
C872   H910    1.076   .     S
C872   C899    1.417   .     A
C872   C874    1.386   .     A
C873   H925    1.085   .     S
C874   H926    1.084   .     S
C874   C340    1.390   1_556 S
C875   H927    1.084   .     S
C875   C756    1.399   1_655 S
C876   H928    1.084   .     S
C876   C1064   1.386   .     S
C877   C879    1.407   .     A
C877   I929    2.129   .     S
C877   C1061   1.386   .     S
C878   I930    2.130   .     S
C878   C880    1.407   .     A
C879   C752    1.399   1_655 S
C881   N916    1.368   .     A
C881   H911    1.082   .     S
C881   C883    1.417   .     A
C882   N915    1.368   .     A
C882   C884    1.417   .     A
C882   H912    1.082   .     S
C883   N915    1.367   .     A
C883   H913    1.082   .     S
C884   N916    1.367   .     A
C884   H914    1.082   .     S
C885   O923    1.294   .     A
C885   C887    1.466   .     S
C885   O797    1.297   1_655 S
C886   O924    1.295   .     A
C886   C888    1.467   .     S
C887   C891    1.398   .     A
C887   C893    1.398   .     A
C888   C894    1.399   .     A
C888   C892    1.399   .     A
C889   C897    1.404   .     A
C889   H907    1.083   .     S
C889   C891    1.392   .     A
C890   C892    1.392   .     A
C890   C898    1.404   .     A
C891   H782    1.083   1_655 S
C893   H904    1.076   .     S
C893   C895    1.405   .     A
C894   C896    1.405   .     A
C894   H903    1.075   .     S
C895   C897    1.418   .     A
C895   C899    1.426   .     A
C896   C898    1.418   .     A
C896   C900    1.427   .     A
C897   C315    1.390   1_556 S
C899   C342    1.425   1_556 S
Cu901  O924    1.943   .     S
Cu901  O920    1.956   .     S
Cu901  O921    1.957   .     S
Cu901  N915    2.013   .     S
Cu901  O917    1.957   .     S
Cu902  O923    1.943   .     S
Cu902  O919    1.956   .     S
Cu902  O922    1.957   .     S
Cu902  O918    1.957   .     S
Cu902  N916    2.013   .     S
Cu902  Cu777   2.679   1_655 S
H905   C768    1.083   1_655 S
H908   C766    1.083   1_655 S
O919   C745    1.291   1_655 S
O922   C762    1.297   1_655 S
C931   C942    1.443   .     S
C931   O979    1.289   .     A
C931   O1105   1.291   1_455 S
C932   C941    1.443   .     S
C932   O980    1.289   .     A
C932   O1044   1.291   .     S
C933   C962    1.417   .     A
C933   H971    1.076   .     S
C933   C935    1.387   .     A
C934   H972    1.076   .     S
C934   C961    1.417   .     A
C934   C936    1.386   .     A
C935   H987    1.085   .     S
C936   H988    1.084   .     S
C936   C402    1.390   1_556 S
C937   H989    1.084   .     S
C937   C1004   1.399   .     S
C938   H990    1.084   .     S
C938   C568    1.386   1_565 S
C938   C1065   1.399   1_455 S
C939   C941    1.407   .     A
C939   I991    2.129   .     S
C939   C565    1.386   1_565 S
C940   I992    2.130   .     S
C940   C942    1.407   .     A
C941   C1000   1.399   .     S
C942   C1061   1.399   1_455 S
C943   N978    1.368   .     A
C943   H973    1.082   .     S
C943   C945    1.417   .     A
C944   N977    1.368   .     A
C944   C946    1.417   .     A
C944   H974    1.082   .     S
C945   N977    1.367   .     A
C945   H975    1.082   .     S
C946   N978    1.367   .     A
C946   H976    1.082   .     S
C947   O985    1.294   .     A
C947   C949    1.466   .     S
C947   O1045   1.297   .     S
C948   O986    1.295   .     A
C948   C950    1.467   .     S
C948   O1108   1.297   1_455 S
C949   C953    1.398   .     A
C949   C955    1.398   .     A
C950   C956    1.399   .     A
C950   C954    1.399   .     A
C951   C959    1.404   .     A
C951   H969    1.083   .     S
C951   C953    1.392   .     A
C952   C954    1.392   .     A
C952   C960    1.404   .     A
C952   H1094   1.083   1_455 S
C953   H1030   1.083   .     S
C954   H1091   1.083   1_455 S
C955   H966    1.076   .     S
C955   C957    1.405   .     A
C956   C958    1.405   .     A
C956   H965    1.075   .     S
C957   C959    1.418   .     A
C957   C961    1.426   .     A
C958   C960    1.418   .     A
C958   C962    1.427   .     A
C959   C377    1.390   1_556 S
C961   C404    1.425   1_556 S
Cu963  O986    1.943   .     S
Cu963  O982    1.956   .     S
Cu963  O983    1.957   .     S
Cu963  N977    2.013   .     S
Cu963  O979    1.957   .     S
Cu963  Cu1088  2.679   1_455 S
Cu964  O985    1.943   .     S
Cu964  O981    1.956   .     S
Cu964  O984    1.957   .     S
Cu964  O980    1.957   .     S
Cu964  N978    2.013   .     S
Cu964  Cu1025  2.679   .     S
H967   C1016   1.083   .     S
H968   C1077   1.083   1_455 S
H970   C1014   1.083   .     S
O981   C993    1.291   .     S
O982   C1056   1.291   1_455 S
O983   C1071   1.297   1_455 S
O984   C1010   1.297   .     S
C993   C1004   1.443   .     S
C993   O1041   1.289   .     A
C994   C1003   1.443   .     S
C994   O1042   1.289   .     A
C994   O1106   1.291   .     S
C995   C1024   1.417   .     A
C995   H1033   1.076   .     S
C995   C997    1.387   .     A
C996   H1034   1.076   .     S
C996   C1023   1.417   .     A
C996   C998    1.386   .     A
C997   H1049   1.085   .     S
C998   H1050   1.084   .     S
C998   C464    1.390   1_556 S
C999   H1051   1.084   .     S
C999   C1066   1.399   .     S
C1000  H1052   1.084   .     S
C1000  C630    1.386   1_565 S
C1001  C1003   1.407   .     A
C1001  I1053   2.129   .     S
C1001  C627    1.386   1_565 S
C1002  I1054   2.130   .     S
C1002  C1004   1.407   .     A
C1003  C1062   1.399   .     S
C1005  N1040   1.368   .     A
C1005  H1035   1.082   .     S
C1005  C1007   1.417   .     A
C1006  N1039   1.368   .     A
C1006  C1008   1.417   .     A
C1006  H1036   1.082   .     S
C1007  N1039   1.367   .     A
C1007  H1037   1.082   .     S
C1008  N1040   1.367   .     A
C1008  H1038   1.082   .     S
C1009  O1047   1.294   .     A
C1009  C1011   1.466   .     S
C1009  O1107   1.297   .     S
C1010  O1048   1.295   .     A
C1010  C1012   1.467   .     S
C1011  C1015   1.398   .     A
C1011  C1017   1.398   .     A
C1012  C1018   1.399   .     A
C1012  C1016   1.399   .     A
C1013  C1021   1.404   .     A
C1013  H1031   1.083   .     S
C1013  C1015   1.392   .     A
C1014  C1016   1.392   .     A
C1014  C1022   1.404   .     A
C1015  H1092   1.083   .     S
C1017  H1028   1.076   .     S
C1017  C1019   1.405   .     A
C1018  C1020   1.405   .     A
C1018  H1027   1.075   .     S
C1019  C1021   1.418   .     A
C1019  C1023   1.426   .     A
C1020  C1022   1.418   .     A
C1020  C1024   1.427   .     A
C1021  C439    1.390   1_556 S
C1023  C466    1.425   1_556 S
Cu1025 O1048   1.943   .     S
Cu1025 O1044   1.956   .     S
Cu1025 O1045   1.957   .     S
Cu1025 N1039   2.013   .     S
Cu1025 O1041   1.957   .     S
Cu1026 O1047   1.943   .     S
Cu1026 O1043   1.956   .     S
Cu1026 O1046   1.957   .     S
Cu1026 O1042   1.957   .     S
Cu1026 N1040   2.013   .     S
Cu1026 Cu1087  2.679   .     S
H1029  C1078   1.083   .     S
H1032  C1076   1.083   .     S
O1043  C1055   1.291   .     S
O1046  C1072   1.297   .     S
C1055  C1066   1.443   .     S
C1055  O1103   1.289   .     A
C1056  C1065   1.443   .     S
C1056  O1104   1.289   .     A
C1056  O982    1.291   1_655 S
C1057  C1086   1.417   .     A
C1057  H1095   1.076   .     S
C1057  C1059   1.387   .     A
C1058  H1096   1.076   .     S
C1058  C1085   1.417   .     A
C1058  C1060   1.386   .     A
C1059  H1111   1.085   .     S
C1060  H1112   1.084   .     S
C1060  C526    1.390   1_556 S
C1061  H1113   1.084   .     S
C1061  C942    1.399   1_655 S
C1062  H1114   1.084   .     S
C1062  C692    1.386   1_565 S
C1063  C1065   1.407   .     A
C1063  I1115   2.129   .     S
C1063  C689    1.386   1_565 S
C1064  I1116   2.130   .     S
C1064  C1066   1.407   .     A
C1065  C938    1.399   1_655 S
C1067  N1102   1.368   .     A
C1067  H1097   1.082   .     S
C1067  C1069   1.417   .     A
C1068  N1101   1.368   .     A
C1068  C1070   1.417   .     A
C1068  H1098   1.082   .     S
C1069  N1101   1.367   .     A
C1069  H1099   1.082   .     S
C1070  N1102   1.367   .     A
C1070  H1100   1.082   .     S
C1071  O1109   1.294   .     A
C1071  C1073   1.466   .     S
C1071  O983    1.297   1_655 S
C1072  O1110   1.295   .     A
C1072  C1074   1.467   .     S
C1073  C1077   1.398   .     A
C1073  C1079   1.398   .     A
C1074  C1080   1.399   .     A
C1074  C1078   1.399   .     A
C1075  C1083   1.404   .     A
C1075  H1093   1.083   .     S
C1075  C1077   1.392   .     A
C1076  C1078   1.392   .     A
C1076  C1084   1.404   .     A
C1077  H968    1.083   1_655 S
C1079  H1090   1.076   .     S
C1079  C1081   1.405   .     A
C1080  C1082   1.405   .     A
C1080  H1089   1.075   .     S
C1081  C1083   1.418   .     A
C1081  C1085   1.426   .     A
C1082  C1084   1.418   .     A
C1082  C1086   1.427   .     A
C1083  C501    1.390   1_556 S
C1085  C528    1.425   1_556 S
Cu1087 O1110   1.943   .     S
Cu1087 O1106   1.956   .     S
Cu1087 O1107   1.957   .     S
Cu1087 N1101   2.013   .     S
Cu1087 O1103   1.957   .     S
Cu1088 O1109   1.943   .     S
Cu1088 O1105   1.956   .     S
Cu1088 O1108   1.957   .     S
Cu1088 O1104   1.957   .     S
Cu1088 N1102   2.013   .     S
Cu1088 Cu963   2.679   1_655 S
H1091  C954    1.083   1_655 S
H1094  C952    1.083   1_655 S
O1105  C931    1.291   1_655 S
O1108  C948    1.297   1_655 S
