data_str_m1_o1_o2_pcu_sym.34
_audit_creation_date              2020-01-03
_audit_creation_method            'Materials Studio'
_symmetry_space_group_name_H-M    'P1'
_symmetry_Int_Tables_number       1
_symmetry_cell_setting            triclinic
loop_
_symmetry_equiv_pos_as_xyz
  x,y,z
_cell_length_a                    36.5745
_cell_length_b                    36.5745
_cell_length_c                    34.5766
_cell_angle_alpha                 89.9976
_cell_angle_beta                  89.9974
_cell_angle_gamma                 89.7245
loop_
_atom_site_label
_atom_site_type_symbol
_atom_site_fract_x
_atom_site_fract_y
_atom_site_fract_z
_atom_site_U_iso_or_equiv
_atom_site_adp_type
_atom_site_occupancy
C1     C     0.21861   0.01082   0.04182   0.00000  Uiso   1.00
C2     C     0.03134   0.23903   0.45818   0.00000  Uiso   1.00
C3     C     0.34806   0.40194   0.75000   0.00000  Uiso   1.00
C4     C     0.40191   0.15191   0.25000   0.00000  Uiso   1.00
C5     C     0.09809   0.34809   0.75000   0.00000  Uiso   1.00
C6     C     0.34806   0.40194   0.25000   0.00000  Uiso   1.00
C7     C     0.15194   0.09806   0.75000   0.00000  Uiso   1.00
C8     C     0.09806   0.15194   0.75000   0.00000  Uiso   1.00
C9     C     0.40194   0.34806   0.25000   0.00000  Uiso   1.00
C10    C     0.15191   0.40191   0.75000   0.00000  Uiso   1.00
C11    C     0.34809   0.09809   0.25000   0.00000  Uiso   1.00
C12    C     0.40194   0.34806   0.75000   0.00000  Uiso   1.00
C13    C     0.23911   0.46874   0.54182   0.00000  Uiso   1.00
C14    C     0.09806   0.15194   0.25000   0.00000  Uiso   1.00
C15    C     0.34809   0.09809   0.75000   0.00000  Uiso   1.00
C16    C     0.15191   0.40191   0.25000   0.00000  Uiso   1.00
C17    C     0.25000   0.00000   0.10243   0.00000  Uiso   1.00
C18    C     0.25000   0.00000   0.89757   0.00000  Uiso   1.00
C19    C     0.00000   0.25000   0.10243   0.00000  Uiso   1.00
C20    C     0.00000   0.25000   0.89758   0.00000  Uiso   1.00
C21    C     0.00000   0.25000   0.60242   0.00000  Uiso   1.00
C22    C    -0.00000   0.25000   0.39757   0.00000  Uiso   1.00
C23    C     0.25000   0.00000   0.60243   0.00000  Uiso   1.00
C24    C     0.23911   0.03137   0.45818   0.00000  Uiso   1.00
C25    C     0.25000  -0.00000   0.39757   0.00000  Uiso   1.00
C26    C     0.03130   0.26078   0.54181   0.00000  Uiso   1.00
C27    C     0.46866   0.26097   0.45818   0.00000  Uiso   1.00
C28    C     0.26089   0.03126   0.54181   0.00000  Uiso   1.00
C29    C     0.26089   0.46863   0.45818   0.00000  Uiso   1.00
C30    C     0.21853   0.01056   0.08206   0.00000  Uiso   1.00
C31    C     0.28133   0.01066   0.91794   0.00000  Uiso   1.00
C32    C     0.01070   0.21858   0.08206   0.00000  Uiso   1.00
C33    C     0.28125   0.01092   0.95818   0.00000  Uiso   1.00
C34    C     0.01053   0.28138   0.91794   0.00000  Uiso   1.00
C35    C     0.28147   0.48945   0.08206   0.00000  Uiso   1.00
C36    C     0.21866   0.48935   0.91794   0.00000  Uiso   1.00
C37    C     0.48931   0.28143   0.08206   0.00000  Uiso   1.00
C38    C     0.48947   0.21862   0.91795   0.00000  Uiso   1.00
C39    C     0.46862   0.23948   0.58206   0.00000  Uiso   1.00
C40    C     0.03142   0.23929   0.41793   0.00000  Uiso   1.00
C41    C     0.23937   0.46866   0.58206   0.00000  Uiso   1.00
C42    C     0.23937   0.03145   0.41794   0.00000  Uiso   1.00
C43    C     0.03138   0.26052   0.58205   0.00000  Uiso   1.00
C44    C     0.01096   0.21866   0.04182   0.00000  Uiso   1.00
C45    C     0.46858   0.26070   0.41794   0.00000  Uiso   1.00
C46    C     0.26063   0.03135   0.58206   0.00000  Uiso   1.00
C47    C     0.26063   0.46855   0.41794   0.00000  Uiso   1.00
C48    C     0.25000   0.00000   0.02132   0.00000  Uiso   1.00
C49    C     0.25000   0.00000   0.97868   0.00000  Uiso   1.00
C50    C     0.00000   0.25000   0.02132   0.00000  Uiso   1.00
C51    C     0.00000   0.25000   0.97869   0.00000  Uiso   1.00
C52    C     0.00000   0.25000   0.52131   0.00000  Uiso   1.00
C53    C    -0.00000   0.25000   0.47868   0.00000  Uiso   1.00
C54    C     0.25000   0.00000   0.52132   0.00000  Uiso   1.00
C55    C     0.01079   0.28130   0.95818   0.00000  Uiso   1.00
C56    C     0.25000  -0.00000   0.47868   0.00000  Uiso   1.00
C57    C     0.25000  -0.00000   0.35524   0.00000  Uiso   1.00
C58    C     0.25000   0.00000   0.64476   0.00000  Uiso   1.00
C59    C    -0.00000   0.25000   0.35524   0.00000  Uiso   1.00
C60    C     0.00000   0.25000   0.64476   0.00000  Uiso   1.00
C61    C     0.00000   0.25000   0.85524   0.00000  Uiso   1.00
C62    C     0.00000   0.25000   0.14476   0.00000  Uiso   1.00
C63    C     0.25000  -0.00000   0.85524   0.00000  Uiso   1.00
C64    C     0.25000  -0.00000   0.14476   0.00000  Uiso   1.00
C65    C     0.18001   0.06999   0.25000   0.00000  Uiso   1.00
C66    C     0.28139   0.48919   0.04181   0.00000  Uiso   1.00
C67    C     0.31999   0.43001   0.75000   0.00000  Uiso   1.00
C68    C     0.42997   0.17997   0.25000   0.00000  Uiso   1.00
C69    C     0.07003   0.32003   0.75000   0.00000  Uiso   1.00
C70    C     0.31999   0.43001   0.25000   0.00000  Uiso   1.00
C71    C     0.18001   0.06999   0.75000   0.00000  Uiso   1.00
C72    C     0.07003   0.32003   0.25000   0.00000  Uiso   1.00
C73    C     0.42997   0.17997   0.75000   0.00000  Uiso   1.00
C74    C     0.17997   0.42997   0.75000   0.00000  Uiso   1.00
C75    C     0.32003   0.07003   0.25000   0.00000  Uiso   1.00
C76    C     0.43001   0.31999   0.75000   0.00000  Uiso   1.00
C77    C     0.21875   0.48908   0.95818   0.00000  Uiso   1.00
C78    C     0.06999   0.18001   0.25000   0.00000  Uiso   1.00
C79    C     0.32003   0.07003   0.75000   0.00000  Uiso   1.00
C80    C     0.17997   0.42997   0.25000   0.00000  Uiso   1.00
C81    C     0.06999   0.18001   0.75000   0.00000  Uiso   1.00
C82    C     0.43001   0.31999   0.25000   0.00000  Uiso   1.00
C83    C     0.11490   0.41204   0.25381   0.00000  Uiso   1.00
C84    C     0.38511   0.08796   0.74632   0.00000  Uiso   1.00
C85    C     0.09271   0.11979   0.27144   0.00000  Uiso   1.00
C86    C     0.40749   0.38041   0.72896   0.00000  Uiso   1.00
C87    C     0.38510   0.08796   0.25378   0.00000  Uiso   1.00
C88    C     0.48904   0.28134   0.04182   0.00000  Uiso   1.00
C89    C     0.11489   0.41204   0.74631   0.00000  Uiso   1.00
C90    C     0.40735   0.38027   0.27133   0.00000  Uiso   1.00
C91    C     0.09255   0.11963   0.72888   0.00000  Uiso   1.00
C92    C     0.11963   0.09255   0.72888   0.00000  Uiso   1.00
C93    C     0.38027   0.40735   0.27133   0.00000  Uiso   1.00
C94    C     0.08796   0.38511   0.74631   0.00000  Uiso   1.00
C95    C     0.41204   0.11490   0.25379   0.00000  Uiso   1.00
C96    C     0.38041   0.40749   0.72896   0.00000  Uiso   1.00
C97    C     0.11979   0.09271   0.27144   0.00000  Uiso   1.00
C98    C     0.41204   0.11490   0.74632   0.00000  Uiso   1.00
C99    C     0.48921   0.21870   0.95819   0.00000  Uiso   1.00
C100   C     0.08796   0.38510   0.25381   0.00000  Uiso   1.00
C101   C     0.36489   0.16204   0.75368   0.00000  Uiso   1.00
C102   C     0.13510   0.33796   0.24619   0.00000  Uiso   1.00
C103   C     0.34251   0.36959   0.77104   0.00000  Uiso   1.00
C104   C     0.15729   0.13021   0.22857   0.00000  Uiso   1.00
C105   C     0.13510   0.33796   0.75369   0.00000  Uiso   1.00
C106   C     0.36490   0.16204   0.24622   0.00000  Uiso   1.00
C107   C     0.15745   0.13037   0.77112   0.00000  Uiso   1.00
C108   C     0.34265   0.36973   0.22867   0.00000  Uiso   1.00
C109   C     0.36973   0.34265   0.22867   0.00000  Uiso   1.00
C110   C     0.46870   0.23921   0.54182   0.00000  Uiso   1.00
C111   C     0.13037   0.15745   0.77112   0.00000  Uiso   1.00
C112   C     0.33796   0.13510   0.24621   0.00000  Uiso   1.00
C113   C     0.16204   0.36489   0.75369   0.00000  Uiso   1.00
C114   C     0.13021   0.15729   0.22856   0.00000  Uiso   1.00
C115   C     0.36959   0.34251   0.77104   0.00000  Uiso   1.00
C116   C     0.16204   0.36490   0.24619   0.00000  Uiso   1.00
C117   C     0.33796   0.13510   0.75368   0.00000  Uiso   1.00
C118   C     0.09809   0.34809   0.25000   0.00000  Uiso   1.00
C119   C     0.40191   0.15191   0.75000   0.00000  Uiso   1.00
C120   C     0.15194   0.09806   0.25000   0.00000  Uiso   1.00
Cl121  Cl    0.10210   0.45837   0.26047   0.00000  Uiso   1.00
Cl122  Cl    0.38644   0.44781   0.29850   0.00000  Uiso   1.00
Cl123  Cl    0.04162   0.39794   0.73980   0.00000  Uiso   1.00
Cl124  Cl    0.45837   0.10209   0.26044   0.00000  Uiso   1.00
Cl125  Cl    0.38675   0.44812   0.70210   0.00000  Uiso   1.00
Cl126  Cl    0.11368   0.05231   0.29874   0.00000  Uiso   1.00
Cl127  Cl    0.45838   0.10207   0.73981   0.00000  Uiso   1.00
Cl128  Cl    0.04163   0.39791   0.26047   0.00000  Uiso   1.00
Cl129  Cl    0.35206   0.20838   0.76018   0.00000  Uiso   1.00
Cl130  Cl    0.14790   0.29163   0.23953   0.00000  Uiso   1.00
Cl131  Cl    0.30188   0.36325   0.79791   0.00000  Uiso   1.00
Cl132  Cl    0.39794   0.04162   0.73982   0.00000  Uiso   1.00
Cl133  Cl    0.19769   0.13632   0.20127   0.00000  Uiso   1.00
Cl134  Cl    0.14793   0.29162   0.76019   0.00000  Uiso   1.00
Cl135  Cl    0.35209   0.20837   0.23961   0.00000  Uiso   1.00
Cl136  Cl    0.19803   0.13666   0.79807   0.00000  Uiso   1.00
Cl137  Cl    0.30219   0.36357   0.20148   0.00000  Uiso   1.00
Cl138  Cl    0.36356   0.30219   0.20150   0.00000  Uiso   1.00
Cl139  Cl    0.13666   0.19803   0.79807   0.00000  Uiso   1.00
Cl140  Cl    0.29163   0.14791   0.23956   0.00000  Uiso   1.00
Cl141  Cl    0.20838   0.35206   0.76020   0.00000  Uiso   1.00
Cl142  Cl    0.13632   0.19769   0.20126   0.00000  Uiso   1.00
Cl143  Cl    0.05231   0.11368   0.29874   0.00000  Uiso   1.00
Cl144  Cl    0.36325   0.30188   0.79790   0.00000  Uiso   1.00
Cl145  Cl    0.20837   0.35209   0.23953   0.00000  Uiso   1.00
Cl146  Cl    0.29162   0.14793   0.76019   0.00000  Uiso   1.00
Cl147  Cl    0.44812   0.38675   0.70209   0.00000  Uiso   1.00
Cl148  Cl    0.39791   0.04163   0.26039   0.00000  Uiso   1.00
Cl149  Cl    0.10207   0.45838   0.73981   0.00000  Uiso   1.00
Cl150  Cl    0.44781   0.38644   0.29852   0.00000  Uiso   1.00
Cl151  Cl    0.05197   0.11334   0.70193   0.00000  Uiso   1.00
Cl152  Cl    0.11334   0.05197   0.70193   0.00000  Uiso   1.00
H153   H     0.19425   0.01992   0.02678   0.00000  Uiso   1.00
H154   H     0.05566   0.22981   0.47321   0.00000  Uiso   1.00
H155   H     0.22995   0.44449   0.52678   0.00000  Uiso   1.00
H156   H     0.22995   0.05571   0.47322   0.00000  Uiso   1.00
H157   H     0.05558   0.26986   0.52677   0.00000  Uiso   1.00
H158   H     0.44434   0.27019   0.47322   0.00000  Uiso   1.00
H159   H     0.27005   0.05551   0.52677   0.00000  Uiso   1.00
H160   H     0.27005   0.44429   0.47322   0.00000  Uiso   1.00
H161   H     0.19403   0.01910   0.09723   0.00000  Uiso   1.00
H162   H     0.30573   0.01928   0.90277   0.00000  Uiso   1.00
H163   H     0.01936   0.19411   0.09723   0.00000  Uiso   1.00
H164   H     0.30549   0.02011   0.97321   0.00000  Uiso   1.00
H165   H     0.01906   0.30581   0.90277   0.00000  Uiso   1.00
H166   H     0.30597   0.48090   0.09722   0.00000  Uiso   1.00
H167   H     0.19427   0.48072   0.90278   0.00000  Uiso   1.00
H168   H     0.48065   0.30589   0.09723   0.00000  Uiso   1.00
H169   H     0.48094   0.19419   0.90278   0.00000  Uiso   1.00
H170   H     0.44419   0.23095   0.59723   0.00000  Uiso   1.00
H171   H     0.05588   0.23063   0.40277   0.00000  Uiso   1.00
H172   H     0.23076   0.44426   0.59723   0.00000  Uiso   1.00
H173   H     0.23077   0.05594   0.40277   0.00000  Uiso   1.00
H174   H     0.05581   0.26904   0.59722   0.00000  Uiso   1.00
H175   H     0.02017   0.19434   0.02679   0.00000  Uiso   1.00
H176   H     0.44411   0.26937   0.40277   0.00000  Uiso   1.00
H177   H     0.26923   0.05575   0.59722   0.00000  Uiso   1.00
H178   H     0.26923   0.44406   0.40278   0.00000  Uiso   1.00
H179   H     0.01988   0.30558   0.97322   0.00000  Uiso   1.00
H180   H     0.30575   0.48008   0.02678   0.00000  Uiso   1.00
H181   H     0.19451   0.47989   0.97322   0.00000  Uiso   1.00
H182   H     0.47983   0.30566   0.02678   0.00000  Uiso   1.00
H183   H     0.48012   0.19442   0.97323   0.00000  Uiso   1.00
H184   H     0.44442   0.23013   0.52678   0.00000  Uiso   1.00
O185   O     0.25000  -0.00000   0.25000   0.00000  Uiso   1.00
O186   O     0.25000   0.46964   0.66317   0.00000  Uiso   1.00
O187   O     0.46964   0.25000   0.33683   0.00000  Uiso   1.00
O188   O     0.03036   0.25000   0.66317   0.00000  Uiso   1.00
O189   O     0.00000   0.21964   0.83683   0.00000  Uiso   1.00
O190   O    -0.00000   0.28036   0.16317   0.00000  Uiso   1.00
O191   O     0.28036  -0.00000   0.83683   0.00000  Uiso   1.00
O192   O     0.21964  -0.00000   0.16317   0.00000  Uiso   1.00
O193   O     0.00000   0.28036   0.83683   0.00000  Uiso   1.00
O194   O    -0.00000   0.21964   0.16317   0.00000  Uiso   1.00
O195   O     0.21964  -0.00000   0.83683   0.00000  Uiso   1.00
O196   O     0.25000  -0.00000   0.75000   0.00000  Uiso   1.00
O197   O     0.28036  -0.00000   0.16317   0.00000  Uiso   1.00
O198   O     0.20725   0.07307   0.27282   0.00000  Uiso   1.00
O199   O     0.29274   0.42693   0.72718   0.00000  Uiso   1.00
O200   O     0.42693   0.20726   0.27282   0.00000  Uiso   1.00
O201   O     0.07307   0.29275   0.72718   0.00000  Uiso   1.00
O202   O     0.29274   0.42693   0.27282   0.00000  Uiso   1.00
O203   O     0.20725   0.07307   0.72718   0.00000  Uiso   1.00
O204   O     0.07307   0.29275   0.27282   0.00000  Uiso   1.00
O205   O     0.42693   0.20726   0.72718   0.00000  Uiso   1.00
O206   O     0.20725   0.42693   0.72718   0.00000  Uiso   1.00
O207   O    -0.00000   0.25000   0.25000   0.00000  Uiso   1.00
O208   O     0.29274   0.07307   0.27282   0.00000  Uiso   1.00
O209   O     0.42693   0.29275   0.72718   0.00000  Uiso   1.00
O210   O     0.07307   0.20726   0.27282   0.00000  Uiso   1.00
O211   O     0.29274   0.07307   0.72718   0.00000  Uiso   1.00
O212   O     0.20725   0.42693   0.27282   0.00000  Uiso   1.00
O213   O     0.07307   0.20726   0.72718   0.00000  Uiso   1.00
O214   O     0.42693   0.29275   0.27282   0.00000  Uiso   1.00
O215   O     0.45725   0.32307   0.77282   0.00000  Uiso   1.00
O216   O     0.04274   0.17693   0.22718   0.00000  Uiso   1.00
O217   O     0.17693   0.45726   0.77282   0.00000  Uiso   1.00
O218   O     0.00000   0.25000   0.75000   0.00000  Uiso   1.00
O219   O     0.32307   0.04275   0.22718   0.00000  Uiso   1.00
O220   O     0.04274   0.17693   0.77282   0.00000  Uiso   1.00
O221   O     0.45725   0.32307   0.22718   0.00000  Uiso   1.00
O222   O     0.32307   0.04275   0.77282   0.00000  Uiso   1.00
O223   O     0.17693   0.45726   0.22718   0.00000  Uiso   1.00
O224   O     0.45725   0.17693   0.22718   0.00000  Uiso   1.00
O225   O     0.04274   0.32307   0.77282   0.00000  Uiso   1.00
O226   O     0.17693   0.04275   0.22718   0.00000  Uiso   1.00
O227   O     0.32307   0.45726   0.77282   0.00000  Uiso   1.00
O228   O     0.04274   0.32307   0.22718   0.00000  Uiso   1.00
O229   O     0.25000   0.46964   0.33683   0.00000  Uiso   1.00
O230   O     0.45725   0.17693   0.77282   0.00000  Uiso   1.00
O231   O     0.32307   0.45726   0.22718   0.00000  Uiso   1.00
O232   O     0.17693   0.04275   0.77282   0.00000  Uiso   1.00
O233   O     0.25000   0.03036   0.66317   0.00000  Uiso   1.00
O234   O     0.03036   0.25000   0.33683   0.00000  Uiso   1.00
O235   O     0.46964   0.25000   0.66317   0.00000  Uiso   1.00
O236   O     0.25000   0.03036   0.33683   0.00000  Uiso   1.00
Zn237  Zn    0.20660  -0.00000   0.21760   0.00000  Uiso   1.00
Zn238  Zn    0.04340   0.25000   0.28240   0.00000  Uiso   1.00
Zn239  Zn    0.25000   0.45660   0.71760   0.00000  Uiso   1.00
Zn240  Zn    0.25000   0.04340   0.28240   0.00000  Uiso   1.00
Zn241  Zn    0.04340   0.25000   0.71760   0.00000  Uiso   1.00
Zn242  Zn    0.45660   0.25000   0.28240   0.00000  Uiso   1.00
Zn243  Zn    0.25000   0.04340   0.71760   0.00000  Uiso   1.00
Zn244  Zn    0.25000   0.45660   0.28240   0.00000  Uiso   1.00
Zn245  Zn    0.29340  -0.00000   0.78240   0.00000  Uiso   1.00
Zn246  Zn    0.00000   0.20660   0.21760   0.00000  Uiso   1.00
Zn247  Zn   -0.00000   0.29340   0.78240   0.00000  Uiso   1.00
Zn248  Zn    0.29340  -0.00000   0.21760   0.00000  Uiso   1.00
Zn249  Zn    0.20660  -0.00000   0.78240   0.00000  Uiso   1.00
Zn250  Zn   -0.00000   0.29340   0.21760   0.00000  Uiso   1.00
Zn251  Zn    0.00000   0.20660   0.78240   0.00000  Uiso   1.00
Zn252  Zn    0.45660   0.25000   0.71760   0.00000  Uiso   1.00
C253   C     0.71861   0.01082   0.04182   0.00000  Uiso   1.00
C254   C     0.53134   0.23903   0.45818   0.00000  Uiso   1.00
C255   C     0.84806   0.40194   0.75000   0.00000  Uiso   1.00
C256   C     0.90191   0.15191   0.25000   0.00000  Uiso   1.00
C257   C     0.59809   0.34809   0.75000   0.00000  Uiso   1.00
C258   C     0.84806   0.40194   0.25000   0.00000  Uiso   1.00
C259   C     0.65194   0.09806   0.75000   0.00000  Uiso   1.00
C260   C     0.59806   0.15194   0.75000   0.00000  Uiso   1.00
C261   C     0.90194   0.34806   0.25000   0.00000  Uiso   1.00
C262   C     0.65191   0.40191   0.75000   0.00000  Uiso   1.00
C263   C     0.84809   0.09809   0.25000   0.00000  Uiso   1.00
C264   C     0.90194   0.34806   0.75000   0.00000  Uiso   1.00
C265   C     0.73911   0.46874   0.54182   0.00000  Uiso   1.00
C266   C     0.59806   0.15194   0.25000   0.00000  Uiso   1.00
C267   C     0.84809   0.09809   0.75000   0.00000  Uiso   1.00
C268   C     0.65191   0.40191   0.25000   0.00000  Uiso   1.00
C269   C     0.75000   0.00000   0.10243   0.00000  Uiso   1.00
C270   C     0.75000   0.00000   0.89757   0.00000  Uiso   1.00
C271   C     0.50000   0.25000   0.10243   0.00000  Uiso   1.00
C272   C     0.50000   0.25000   0.89758   0.00000  Uiso   1.00
C273   C     0.50000   0.25000   0.60242   0.00000  Uiso   1.00
C274   C     0.50000   0.25000   0.39757   0.00000  Uiso   1.00
C275   C     0.75000   0.00000   0.60243   0.00000  Uiso   1.00
C276   C     0.73911   0.03137   0.45818   0.00000  Uiso   1.00
C277   C     0.75000  -0.00000   0.39757   0.00000  Uiso   1.00
C278   C     0.53130   0.26078   0.54181   0.00000  Uiso   1.00
C279   C     0.96866   0.26097   0.45818   0.00000  Uiso   1.00
C280   C     0.76089   0.03126   0.54181   0.00000  Uiso   1.00
C281   C     0.76089   0.46863   0.45818   0.00000  Uiso   1.00
C282   C     0.71853   0.01056   0.08206   0.00000  Uiso   1.00
C283   C     0.78133   0.01066   0.91794   0.00000  Uiso   1.00
C284   C     0.51070   0.21858   0.08206   0.00000  Uiso   1.00
C285   C     0.78125   0.01092   0.95818   0.00000  Uiso   1.00
C286   C     0.51053   0.28138   0.91794   0.00000  Uiso   1.00
C287   C     0.78147   0.48945   0.08206   0.00000  Uiso   1.00
C288   C     0.71866   0.48935   0.91794   0.00000  Uiso   1.00
C289   C     0.98931   0.28143   0.08206   0.00000  Uiso   1.00
C290   C     0.98947   0.21862   0.91795   0.00000  Uiso   1.00
C291   C     0.96862   0.23948   0.58206   0.00000  Uiso   1.00
C292   C     0.53142   0.23929   0.41793   0.00000  Uiso   1.00
C293   C     0.73937   0.46866   0.58206   0.00000  Uiso   1.00
C294   C     0.73937   0.03145   0.41794   0.00000  Uiso   1.00
C295   C     0.53138   0.26052   0.58205   0.00000  Uiso   1.00
C296   C     0.51096   0.21866   0.04182   0.00000  Uiso   1.00
C297   C     0.96858   0.26070   0.41794   0.00000  Uiso   1.00
C298   C     0.76063   0.03135   0.58206   0.00000  Uiso   1.00
C299   C     0.76063   0.46855   0.41794   0.00000  Uiso   1.00
C300   C     0.75000   0.00000   0.02132   0.00000  Uiso   1.00
C301   C     0.75000   0.00000   0.97868   0.00000  Uiso   1.00
C302   C     0.50000   0.25000   0.02132   0.00000  Uiso   1.00
C303   C     0.50000   0.25000   0.97869   0.00000  Uiso   1.00
C304   C     0.50000   0.25000   0.52131   0.00000  Uiso   1.00
C305   C     0.50000   0.25000   0.47868   0.00000  Uiso   1.00
C306   C     0.75000   0.00000   0.52132   0.00000  Uiso   1.00
C307   C     0.51079   0.28130   0.95818   0.00000  Uiso   1.00
C308   C     0.75000  -0.00000   0.47868   0.00000  Uiso   1.00
C309   C     0.75000  -0.00000   0.35524   0.00000  Uiso   1.00
C310   C     0.75000   0.00000   0.64476   0.00000  Uiso   1.00
C311   C     0.50000   0.25000   0.35524   0.00000  Uiso   1.00
C312   C     0.50000   0.25000   0.64476   0.00000  Uiso   1.00
C313   C     0.50000   0.25000   0.85524   0.00000  Uiso   1.00
C314   C     0.50000   0.25000   0.14476   0.00000  Uiso   1.00
C315   C     0.75000  -0.00000   0.85524   0.00000  Uiso   1.00
C316   C     0.75000  -0.00000   0.14476   0.00000  Uiso   1.00
C317   C     0.68001   0.06999   0.25000   0.00000  Uiso   1.00
C318   C     0.78139   0.48919   0.04181   0.00000  Uiso   1.00
C319   C     0.81999   0.43001   0.75000   0.00000  Uiso   1.00
C320   C     0.92997   0.17997   0.25000   0.00000  Uiso   1.00
C321   C     0.57003   0.32003   0.75000   0.00000  Uiso   1.00
C322   C     0.81999   0.43001   0.25000   0.00000  Uiso   1.00
C323   C     0.68001   0.06999   0.75000   0.00000  Uiso   1.00
C324   C     0.57003   0.32003   0.25000   0.00000  Uiso   1.00
C325   C     0.92997   0.17997   0.75000   0.00000  Uiso   1.00
C326   C     0.67997   0.42997   0.75000   0.00000  Uiso   1.00
C327   C     0.82003   0.07003   0.25000   0.00000  Uiso   1.00
C328   C     0.93001   0.31999   0.75000   0.00000  Uiso   1.00
C329   C     0.71875   0.48908   0.95818   0.00000  Uiso   1.00
C330   C     0.56999   0.18001   0.25000   0.00000  Uiso   1.00
C331   C     0.82003   0.07003   0.75000   0.00000  Uiso   1.00
C332   C     0.67997   0.42997   0.25000   0.00000  Uiso   1.00
C333   C     0.56999   0.18001   0.75000   0.00000  Uiso   1.00
C334   C     0.93001   0.31999   0.25000   0.00000  Uiso   1.00
C335   C     0.61490   0.41204   0.25381   0.00000  Uiso   1.00
C336   C     0.88511   0.08796   0.74632   0.00000  Uiso   1.00
C337   C     0.59271   0.11979   0.27144   0.00000  Uiso   1.00
C338   C     0.90749   0.38041   0.72896   0.00000  Uiso   1.00
C339   C     0.88510   0.08796   0.25378   0.00000  Uiso   1.00
C340   C     0.98904   0.28134   0.04182   0.00000  Uiso   1.00
C341   C     0.61489   0.41204   0.74631   0.00000  Uiso   1.00
C342   C     0.90735   0.38027   0.27133   0.00000  Uiso   1.00
C343   C     0.59255   0.11963   0.72888   0.00000  Uiso   1.00
C344   C     0.61963   0.09255   0.72888   0.00000  Uiso   1.00
C345   C     0.88027   0.40735   0.27133   0.00000  Uiso   1.00
C346   C     0.58796   0.38511   0.74631   0.00000  Uiso   1.00
C347   C     0.91204   0.11490   0.25379   0.00000  Uiso   1.00
C348   C     0.88041   0.40749   0.72896   0.00000  Uiso   1.00
C349   C     0.61979   0.09271   0.27144   0.00000  Uiso   1.00
C350   C     0.91204   0.11490   0.74632   0.00000  Uiso   1.00
C351   C     0.98921   0.21870   0.95819   0.00000  Uiso   1.00
C352   C     0.58796   0.38510   0.25381   0.00000  Uiso   1.00
C353   C     0.86489   0.16204   0.75368   0.00000  Uiso   1.00
C354   C     0.63510   0.33796   0.24619   0.00000  Uiso   1.00
C355   C     0.84251   0.36959   0.77104   0.00000  Uiso   1.00
C356   C     0.65729   0.13021   0.22857   0.00000  Uiso   1.00
C357   C     0.63510   0.33796   0.75369   0.00000  Uiso   1.00
C358   C     0.86490   0.16204   0.24622   0.00000  Uiso   1.00
C359   C     0.65745   0.13037   0.77112   0.00000  Uiso   1.00
C360   C     0.84265   0.36973   0.22867   0.00000  Uiso   1.00
C361   C     0.86973   0.34265   0.22867   0.00000  Uiso   1.00
C362   C     0.96870   0.23921   0.54182   0.00000  Uiso   1.00
C363   C     0.63037   0.15745   0.77112   0.00000  Uiso   1.00
C364   C     0.83796   0.13510   0.24621   0.00000  Uiso   1.00
C365   C     0.66204   0.36489   0.75369   0.00000  Uiso   1.00
C366   C     0.63021   0.15729   0.22856   0.00000  Uiso   1.00
C367   C     0.86959   0.34251   0.77104   0.00000  Uiso   1.00
C368   C     0.66204   0.36490   0.24619   0.00000  Uiso   1.00
C369   C     0.83796   0.13510   0.75368   0.00000  Uiso   1.00
C370   C     0.59809   0.34809   0.25000   0.00000  Uiso   1.00
C371   C     0.90191   0.15191   0.75000   0.00000  Uiso   1.00
C372   C     0.65194   0.09806   0.25000   0.00000  Uiso   1.00
Cl373  Cl    0.60210   0.45837   0.26047   0.00000  Uiso   1.00
Cl374  Cl    0.88644   0.44781   0.29850   0.00000  Uiso   1.00
Cl375  Cl    0.54162   0.39794   0.73980   0.00000  Uiso   1.00
Cl376  Cl    0.95837   0.10209   0.26044   0.00000  Uiso   1.00
Cl377  Cl    0.88675   0.44812   0.70210   0.00000  Uiso   1.00
Cl378  Cl    0.61368   0.05231   0.29874   0.00000  Uiso   1.00
Cl379  Cl    0.95838   0.10207   0.73981   0.00000  Uiso   1.00
Cl380  Cl    0.54163   0.39791   0.26047   0.00000  Uiso   1.00
Cl381  Cl    0.85206   0.20838   0.76018   0.00000  Uiso   1.00
Cl382  Cl    0.64790   0.29163   0.23953   0.00000  Uiso   1.00
Cl383  Cl    0.80188   0.36325   0.79791   0.00000  Uiso   1.00
Cl384  Cl    0.89794   0.04162   0.73982   0.00000  Uiso   1.00
Cl385  Cl    0.69769   0.13632   0.20127   0.00000  Uiso   1.00
Cl386  Cl    0.64793   0.29162   0.76019   0.00000  Uiso   1.00
Cl387  Cl    0.85209   0.20837   0.23961   0.00000  Uiso   1.00
Cl388  Cl    0.69803   0.13666   0.79807   0.00000  Uiso   1.00
Cl389  Cl    0.80219   0.36357   0.20148   0.00000  Uiso   1.00
Cl390  Cl    0.86356   0.30219   0.20150   0.00000  Uiso   1.00
Cl391  Cl    0.63666   0.19803   0.79807   0.00000  Uiso   1.00
Cl392  Cl    0.79163   0.14791   0.23956   0.00000  Uiso   1.00
Cl393  Cl    0.70838   0.35206   0.76020   0.00000  Uiso   1.00
Cl394  Cl    0.63632   0.19769   0.20126   0.00000  Uiso   1.00
Cl395  Cl    0.55231   0.11368   0.29874   0.00000  Uiso   1.00
Cl396  Cl    0.86325   0.30188   0.79790   0.00000  Uiso   1.00
Cl397  Cl    0.70837   0.35209   0.23953   0.00000  Uiso   1.00
Cl398  Cl    0.79162   0.14793   0.76019   0.00000  Uiso   1.00
Cl399  Cl    0.94812   0.38675   0.70209   0.00000  Uiso   1.00
Cl400  Cl    0.89791   0.04163   0.26039   0.00000  Uiso   1.00
Cl401  Cl    0.60207   0.45838   0.73981   0.00000  Uiso   1.00
Cl402  Cl    0.94781   0.38644   0.29852   0.00000  Uiso   1.00
Cl403  Cl    0.55197   0.11334   0.70193   0.00000  Uiso   1.00
Cl404  Cl    0.61334   0.05197   0.70193   0.00000  Uiso   1.00
H405   H     0.69425   0.01992   0.02678   0.00000  Uiso   1.00
H406   H     0.55566   0.22981   0.47321   0.00000  Uiso   1.00
H407   H     0.72995   0.44449   0.52678   0.00000  Uiso   1.00
H408   H     0.72995   0.05571   0.47322   0.00000  Uiso   1.00
H409   H     0.55558   0.26986   0.52677   0.00000  Uiso   1.00
H410   H     0.94434   0.27019   0.47322   0.00000  Uiso   1.00
H411   H     0.77005   0.05551   0.52677   0.00000  Uiso   1.00
H412   H     0.77005   0.44429   0.47322   0.00000  Uiso   1.00
H413   H     0.69403   0.01910   0.09723   0.00000  Uiso   1.00
H414   H     0.80573   0.01928   0.90277   0.00000  Uiso   1.00
H415   H     0.51936   0.19411   0.09723   0.00000  Uiso   1.00
H416   H     0.80549   0.02011   0.97321   0.00000  Uiso   1.00
H417   H     0.51906   0.30581   0.90277   0.00000  Uiso   1.00
H418   H     0.80597   0.48090   0.09722   0.00000  Uiso   1.00
H419   H     0.69427   0.48072   0.90278   0.00000  Uiso   1.00
H420   H     0.98065   0.30589   0.09723   0.00000  Uiso   1.00
H421   H     0.98094   0.19419   0.90278   0.00000  Uiso   1.00
H422   H     0.94419   0.23095   0.59723   0.00000  Uiso   1.00
H423   H     0.55588   0.23063   0.40277   0.00000  Uiso   1.00
H424   H     0.73076   0.44426   0.59723   0.00000  Uiso   1.00
H425   H     0.73077   0.05594   0.40277   0.00000  Uiso   1.00
H426   H     0.55581   0.26904   0.59722   0.00000  Uiso   1.00
H427   H     0.52017   0.19434   0.02679   0.00000  Uiso   1.00
H428   H     0.94411   0.26937   0.40277   0.00000  Uiso   1.00
H429   H     0.76923   0.05575   0.59722   0.00000  Uiso   1.00
H430   H     0.76923   0.44406   0.40278   0.00000  Uiso   1.00
H431   H     0.51988   0.30558   0.97322   0.00000  Uiso   1.00
H432   H     0.80575   0.48008   0.02678   0.00000  Uiso   1.00
H433   H     0.69451   0.47989   0.97322   0.00000  Uiso   1.00
H434   H     0.97983   0.30566   0.02678   0.00000  Uiso   1.00
H435   H     0.98012   0.19442   0.97323   0.00000  Uiso   1.00
H436   H     0.94442   0.23013   0.52678   0.00000  Uiso   1.00
O437   O     0.75000  -0.00000   0.25000   0.00000  Uiso   1.00
O438   O     0.75000   0.46964   0.66317   0.00000  Uiso   1.00
O439   O     0.96964   0.25000   0.33683   0.00000  Uiso   1.00
O440   O     0.53036   0.25000   0.66317   0.00000  Uiso   1.00
O441   O     0.50000   0.21964   0.83683   0.00000  Uiso   1.00
O442   O     0.50000   0.28036   0.16317   0.00000  Uiso   1.00
O443   O     0.78036  -0.00000   0.83683   0.00000  Uiso   1.00
O444   O     0.71964  -0.00000   0.16317   0.00000  Uiso   1.00
O445   O     0.50000   0.28036   0.83683   0.00000  Uiso   1.00
O446   O     0.50000   0.21964   0.16317   0.00000  Uiso   1.00
O447   O     0.71964  -0.00000   0.83683   0.00000  Uiso   1.00
O448   O     0.75000  -0.00000   0.75000   0.00000  Uiso   1.00
O449   O     0.78036  -0.00000   0.16317   0.00000  Uiso   1.00
O450   O     0.70725   0.07307   0.27282   0.00000  Uiso   1.00
O451   O     0.79274   0.42693   0.72718   0.00000  Uiso   1.00
O452   O     0.92693   0.20726   0.27282   0.00000  Uiso   1.00
O453   O     0.57307   0.29275   0.72718   0.00000  Uiso   1.00
O454   O     0.79274   0.42693   0.27282   0.00000  Uiso   1.00
O455   O     0.70725   0.07307   0.72718   0.00000  Uiso   1.00
O456   O     0.57307   0.29275   0.27282   0.00000  Uiso   1.00
O457   O     0.92693   0.20726   0.72718   0.00000  Uiso   1.00
O458   O     0.70725   0.42693   0.72718   0.00000  Uiso   1.00
O459   O     0.50000   0.25000   0.25000   0.00000  Uiso   1.00
O460   O     0.79274   0.07307   0.27282   0.00000  Uiso   1.00
O461   O     0.92693   0.29275   0.72718   0.00000  Uiso   1.00
O462   O     0.57307   0.20726   0.27282   0.00000  Uiso   1.00
O463   O     0.79274   0.07307   0.72718   0.00000  Uiso   1.00
O464   O     0.70725   0.42693   0.27282   0.00000  Uiso   1.00
O465   O     0.57307   0.20726   0.72718   0.00000  Uiso   1.00
O466   O     0.92693   0.29275   0.27282   0.00000  Uiso   1.00
O467   O     0.95725   0.32307   0.77282   0.00000  Uiso   1.00
O468   O     0.54274   0.17693   0.22718   0.00000  Uiso   1.00
O469   O     0.67693   0.45726   0.77282   0.00000  Uiso   1.00
O470   O     0.50000   0.25000   0.75000   0.00000  Uiso   1.00
O471   O     0.82307   0.04275   0.22718   0.00000  Uiso   1.00
O472   O     0.54274   0.17693   0.77282   0.00000  Uiso   1.00
O473   O     0.95725   0.32307   0.22718   0.00000  Uiso   1.00
O474   O     0.82307   0.04275   0.77282   0.00000  Uiso   1.00
O475   O     0.67693   0.45726   0.22718   0.00000  Uiso   1.00
O476   O     0.95725   0.17693   0.22718   0.00000  Uiso   1.00
O477   O     0.54274   0.32307   0.77282   0.00000  Uiso   1.00
O478   O     0.67693   0.04275   0.22718   0.00000  Uiso   1.00
O479   O     0.82307   0.45726   0.77282   0.00000  Uiso   1.00
O480   O     0.54274   0.32307   0.22718   0.00000  Uiso   1.00
O481   O     0.75000   0.46964   0.33683   0.00000  Uiso   1.00
O482   O     0.95725   0.17693   0.77282   0.00000  Uiso   1.00
O483   O     0.82307   0.45726   0.22718   0.00000  Uiso   1.00
O484   O     0.67693   0.04275   0.77282   0.00000  Uiso   1.00
O485   O     0.75000   0.03036   0.66317   0.00000  Uiso   1.00
O486   O     0.53036   0.25000   0.33683   0.00000  Uiso   1.00
O487   O     0.96964   0.25000   0.66317   0.00000  Uiso   1.00
O488   O     0.75000   0.03036   0.33683   0.00000  Uiso   1.00
Zn489  Zn    0.70660  -0.00000   0.21760   0.00000  Uiso   1.00
Zn490  Zn    0.54340   0.25000   0.28240   0.00000  Uiso   1.00
Zn491  Zn    0.75000   0.45660   0.71760   0.00000  Uiso   1.00
Zn492  Zn    0.75000   0.04340   0.28240   0.00000  Uiso   1.00
Zn493  Zn    0.54340   0.25000   0.71760   0.00000  Uiso   1.00
Zn494  Zn    0.95660   0.25000   0.28240   0.00000  Uiso   1.00
Zn495  Zn    0.75000   0.04340   0.71760   0.00000  Uiso   1.00
Zn496  Zn    0.75000   0.45660   0.28240   0.00000  Uiso   1.00
Zn497  Zn    0.79340  -0.00000   0.78240   0.00000  Uiso   1.00
Zn498  Zn    0.50000   0.20660   0.21760   0.00000  Uiso   1.00
Zn499  Zn    0.50000   0.29340   0.78240   0.00000  Uiso   1.00
Zn500  Zn    0.79340  -0.00000   0.21760   0.00000  Uiso   1.00
Zn501  Zn    0.70660  -0.00000   0.78240   0.00000  Uiso   1.00
Zn502  Zn    0.50000   0.29340   0.21760   0.00000  Uiso   1.00
Zn503  Zn    0.50000   0.20660   0.78240   0.00000  Uiso   1.00
Zn504  Zn    0.95660   0.25000   0.71760   0.00000  Uiso   1.00
C505   C     0.21861   0.51082   0.04182   0.00000  Uiso   1.00
C506   C     0.03134   0.73903   0.45818   0.00000  Uiso   1.00
C507   C     0.34806   0.90194   0.75000   0.00000  Uiso   1.00
C508   C     0.40191   0.65191   0.25000   0.00000  Uiso   1.00
C509   C     0.09809   0.84809   0.75000   0.00000  Uiso   1.00
C510   C     0.34806   0.90194   0.25000   0.00000  Uiso   1.00
C511   C     0.15194   0.59806   0.75000   0.00000  Uiso   1.00
C512   C     0.09806   0.65194   0.75000   0.00000  Uiso   1.00
C513   C     0.40194   0.84806   0.25000   0.00000  Uiso   1.00
C514   C     0.15191   0.90191   0.75000   0.00000  Uiso   1.00
C515   C     0.34809   0.59809   0.25000   0.00000  Uiso   1.00
C516   C     0.40194   0.84806   0.75000   0.00000  Uiso   1.00
C517   C     0.23911   0.96874   0.54182   0.00000  Uiso   1.00
C518   C     0.09806   0.65194   0.25000   0.00000  Uiso   1.00
C519   C     0.34809   0.59809   0.75000   0.00000  Uiso   1.00
C520   C     0.15191   0.90191   0.25000   0.00000  Uiso   1.00
C521   C     0.25000   0.50000   0.10243   0.00000  Uiso   1.00
C522   C     0.25000   0.50000   0.89757   0.00000  Uiso   1.00
C523   C     0.00000   0.75000   0.10243   0.00000  Uiso   1.00
C524   C     0.00000   0.75000   0.89758   0.00000  Uiso   1.00
C525   C     0.00000   0.75000   0.60242   0.00000  Uiso   1.00
C526   C    -0.00000   0.75000   0.39757   0.00000  Uiso   1.00
C527   C     0.25000   0.50000   0.60243   0.00000  Uiso   1.00
C528   C     0.23911   0.53137   0.45818   0.00000  Uiso   1.00
C529   C     0.25000   0.50000   0.39757   0.00000  Uiso   1.00
C530   C     0.03130   0.76078   0.54181   0.00000  Uiso   1.00
C531   C     0.46866   0.76097   0.45818   0.00000  Uiso   1.00
C532   C     0.26089   0.53126   0.54181   0.00000  Uiso   1.00
C533   C     0.26089   0.96863   0.45818   0.00000  Uiso   1.00
C534   C     0.21853   0.51056   0.08206   0.00000  Uiso   1.00
C535   C     0.28133   0.51066   0.91794   0.00000  Uiso   1.00
C536   C     0.01070   0.71858   0.08206   0.00000  Uiso   1.00
C537   C     0.28125   0.51092   0.95818   0.00000  Uiso   1.00
C538   C     0.01053   0.78138   0.91794   0.00000  Uiso   1.00
C539   C     0.28147   0.98945   0.08206   0.00000  Uiso   1.00
C540   C     0.21866   0.98935   0.91794   0.00000  Uiso   1.00
C541   C     0.48931   0.78143   0.08206   0.00000  Uiso   1.00
C542   C     0.48947   0.71862   0.91795   0.00000  Uiso   1.00
C543   C     0.46862   0.73948   0.58206   0.00000  Uiso   1.00
C544   C     0.03142   0.73929   0.41793   0.00000  Uiso   1.00
C545   C     0.23937   0.96866   0.58206   0.00000  Uiso   1.00
C546   C     0.23937   0.53145   0.41794   0.00000  Uiso   1.00
C547   C     0.03138   0.76052   0.58205   0.00000  Uiso   1.00
C548   C     0.01096   0.71866   0.04182   0.00000  Uiso   1.00
C549   C     0.46858   0.76070   0.41794   0.00000  Uiso   1.00
C550   C     0.26063   0.53135   0.58206   0.00000  Uiso   1.00
C551   C     0.26063   0.96855   0.41794   0.00000  Uiso   1.00
C552   C     0.25000   0.50000   0.02132   0.00000  Uiso   1.00
C553   C     0.25000   0.50000   0.97868   0.00000  Uiso   1.00
C554   C     0.00000   0.75000   0.02132   0.00000  Uiso   1.00
C555   C     0.00000   0.75000   0.97869   0.00000  Uiso   1.00
C556   C     0.00000   0.75000   0.52131   0.00000  Uiso   1.00
C557   C    -0.00000   0.75000   0.47868   0.00000  Uiso   1.00
C558   C     0.25000   0.50000   0.52132   0.00000  Uiso   1.00
C559   C     0.01079   0.78130   0.95818   0.00000  Uiso   1.00
C560   C     0.25000   0.50000   0.47868   0.00000  Uiso   1.00
C561   C     0.25000   0.50000   0.35524   0.00000  Uiso   1.00
C562   C     0.25000   0.50000   0.64476   0.00000  Uiso   1.00
C563   C    -0.00000   0.75000   0.35524   0.00000  Uiso   1.00
C564   C     0.00000   0.75000   0.64476   0.00000  Uiso   1.00
C565   C     0.00000   0.75000   0.85524   0.00000  Uiso   1.00
C566   C     0.00000   0.75000   0.14476   0.00000  Uiso   1.00
C567   C     0.25000   0.50000   0.85524   0.00000  Uiso   1.00
C568   C     0.25000   0.50000   0.14476   0.00000  Uiso   1.00
C569   C     0.18001   0.56999   0.25000   0.00000  Uiso   1.00
C570   C     0.28139   0.98919   0.04181   0.00000  Uiso   1.00
C571   C     0.31999   0.93001   0.75000   0.00000  Uiso   1.00
C572   C     0.42997   0.67997   0.25000   0.00000  Uiso   1.00
C573   C     0.07003   0.82003   0.75000   0.00000  Uiso   1.00
C574   C     0.31999   0.93001   0.25000   0.00000  Uiso   1.00
C575   C     0.18001   0.56999   0.75000   0.00000  Uiso   1.00
C576   C     0.07003   0.82003   0.25000   0.00000  Uiso   1.00
C577   C     0.42997   0.67997   0.75000   0.00000  Uiso   1.00
C578   C     0.17997   0.92997   0.75000   0.00000  Uiso   1.00
C579   C     0.32003   0.57003   0.25000   0.00000  Uiso   1.00
C580   C     0.43001   0.81999   0.75000   0.00000  Uiso   1.00
C581   C     0.21875   0.98908   0.95818   0.00000  Uiso   1.00
C582   C     0.06999   0.68001   0.25000   0.00000  Uiso   1.00
C583   C     0.32003   0.57003   0.75000   0.00000  Uiso   1.00
C584   C     0.17997   0.92997   0.25000   0.00000  Uiso   1.00
C585   C     0.06999   0.68001   0.75000   0.00000  Uiso   1.00
C586   C     0.43001   0.81999   0.25000   0.00000  Uiso   1.00
C587   C     0.11490   0.91204   0.25381   0.00000  Uiso   1.00
C588   C     0.38511   0.58796   0.74632   0.00000  Uiso   1.00
C589   C     0.09271   0.61979   0.27144   0.00000  Uiso   1.00
C590   C     0.40749   0.88041   0.72896   0.00000  Uiso   1.00
C591   C     0.38510   0.58796   0.25378   0.00000  Uiso   1.00
C592   C     0.48904   0.78134   0.04182   0.00000  Uiso   1.00
C593   C     0.11489   0.91204   0.74631   0.00000  Uiso   1.00
C594   C     0.40735   0.88027   0.27133   0.00000  Uiso   1.00
C595   C     0.09255   0.61963   0.72888   0.00000  Uiso   1.00
C596   C     0.11963   0.59255   0.72888   0.00000  Uiso   1.00
C597   C     0.38027   0.90735   0.27133   0.00000  Uiso   1.00
C598   C     0.08796   0.88511   0.74631   0.00000  Uiso   1.00
C599   C     0.41204   0.61490   0.25379   0.00000  Uiso   1.00
C600   C     0.38041   0.90749   0.72896   0.00000  Uiso   1.00
C601   C     0.11979   0.59271   0.27144   0.00000  Uiso   1.00
C602   C     0.41204   0.61490   0.74632   0.00000  Uiso   1.00
C603   C     0.48921   0.71870   0.95819   0.00000  Uiso   1.00
C604   C     0.08796   0.88510   0.25381   0.00000  Uiso   1.00
C605   C     0.36489   0.66204   0.75368   0.00000  Uiso   1.00
C606   C     0.13510   0.83796   0.24619   0.00000  Uiso   1.00
C607   C     0.34251   0.86959   0.77104   0.00000  Uiso   1.00
C608   C     0.15729   0.63021   0.22857   0.00000  Uiso   1.00
C609   C     0.13510   0.83796   0.75369   0.00000  Uiso   1.00
C610   C     0.36490   0.66204   0.24622   0.00000  Uiso   1.00
C611   C     0.15745   0.63037   0.77112   0.00000  Uiso   1.00
C612   C     0.34265   0.86973   0.22867   0.00000  Uiso   1.00
C613   C     0.36973   0.84265   0.22867   0.00000  Uiso   1.00
C614   C     0.46870   0.73921   0.54182   0.00000  Uiso   1.00
C615   C     0.13037   0.65745   0.77112   0.00000  Uiso   1.00
C616   C     0.33796   0.63510   0.24621   0.00000  Uiso   1.00
C617   C     0.16204   0.86489   0.75369   0.00000  Uiso   1.00
C618   C     0.13021   0.65729   0.22856   0.00000  Uiso   1.00
C619   C     0.36959   0.84251   0.77104   0.00000  Uiso   1.00
C620   C     0.16204   0.86490   0.24619   0.00000  Uiso   1.00
C621   C     0.33796   0.63510   0.75368   0.00000  Uiso   1.00
C622   C     0.09809   0.84809   0.25000   0.00000  Uiso   1.00
C623   C     0.40191   0.65191   0.75000   0.00000  Uiso   1.00
C624   C     0.15194   0.59806   0.25000   0.00000  Uiso   1.00
Cl625  Cl    0.10210   0.95837   0.26047   0.00000  Uiso   1.00
Cl626  Cl    0.38644   0.94781   0.29850   0.00000  Uiso   1.00
Cl627  Cl    0.04162   0.89794   0.73980   0.00000  Uiso   1.00
Cl628  Cl    0.45837   0.60209   0.26044   0.00000  Uiso   1.00
Cl629  Cl    0.38675   0.94812   0.70210   0.00000  Uiso   1.00
Cl630  Cl    0.11368   0.55231   0.29874   0.00000  Uiso   1.00
Cl631  Cl    0.45838   0.60207   0.73981   0.00000  Uiso   1.00
Cl632  Cl    0.04163   0.89791   0.26047   0.00000  Uiso   1.00
Cl633  Cl    0.35206   0.70838   0.76018   0.00000  Uiso   1.00
Cl634  Cl    0.14790   0.79163   0.23953   0.00000  Uiso   1.00
Cl635  Cl    0.30188   0.86325   0.79791   0.00000  Uiso   1.00
Cl636  Cl    0.39794   0.54162   0.73982   0.00000  Uiso   1.00
Cl637  Cl    0.19769   0.63632   0.20127   0.00000  Uiso   1.00
Cl638  Cl    0.14793   0.79162   0.76019   0.00000  Uiso   1.00
Cl639  Cl    0.35209   0.70837   0.23961   0.00000  Uiso   1.00
Cl640  Cl    0.19803   0.63666   0.79807   0.00000  Uiso   1.00
Cl641  Cl    0.30219   0.86357   0.20148   0.00000  Uiso   1.00
Cl642  Cl    0.36356   0.80219   0.20150   0.00000  Uiso   1.00
Cl643  Cl    0.13666   0.69803   0.79807   0.00000  Uiso   1.00
Cl644  Cl    0.29163   0.64791   0.23956   0.00000  Uiso   1.00
Cl645  Cl    0.20838   0.85206   0.76020   0.00000  Uiso   1.00
Cl646  Cl    0.13632   0.69769   0.20126   0.00000  Uiso   1.00
Cl647  Cl    0.05231   0.61368   0.29874   0.00000  Uiso   1.00
Cl648  Cl    0.36325   0.80188   0.79790   0.00000  Uiso   1.00
Cl649  Cl    0.20837   0.85209   0.23953   0.00000  Uiso   1.00
Cl650  Cl    0.29162   0.64793   0.76019   0.00000  Uiso   1.00
Cl651  Cl    0.44812   0.88675   0.70209   0.00000  Uiso   1.00
Cl652  Cl    0.39791   0.54163   0.26039   0.00000  Uiso   1.00
Cl653  Cl    0.10207   0.95838   0.73981   0.00000  Uiso   1.00
Cl654  Cl    0.44781   0.88644   0.29852   0.00000  Uiso   1.00
Cl655  Cl    0.05197   0.61334   0.70193   0.00000  Uiso   1.00
Cl656  Cl    0.11334   0.55197   0.70193   0.00000  Uiso   1.00
H657   H     0.19425   0.51992   0.02678   0.00000  Uiso   1.00
H658   H     0.05566   0.72981   0.47321   0.00000  Uiso   1.00
H659   H     0.22995   0.94449   0.52678   0.00000  Uiso   1.00
H660   H     0.22995   0.55571   0.47322   0.00000  Uiso   1.00
H661   H     0.05558   0.76986   0.52677   0.00000  Uiso   1.00
H662   H     0.44434   0.77019   0.47322   0.00000  Uiso   1.00
H663   H     0.27005   0.55551   0.52677   0.00000  Uiso   1.00
H664   H     0.27005   0.94429   0.47322   0.00000  Uiso   1.00
H665   H     0.19403   0.51910   0.09723   0.00000  Uiso   1.00
H666   H     0.30573   0.51928   0.90277   0.00000  Uiso   1.00
H667   H     0.01936   0.69411   0.09723   0.00000  Uiso   1.00
H668   H     0.30549   0.52011   0.97321   0.00000  Uiso   1.00
H669   H     0.01906   0.80581   0.90277   0.00000  Uiso   1.00
H670   H     0.30597   0.98090   0.09722   0.00000  Uiso   1.00
H671   H     0.19427   0.98072   0.90278   0.00000  Uiso   1.00
H672   H     0.48065   0.80589   0.09723   0.00000  Uiso   1.00
H673   H     0.48094   0.69419   0.90278   0.00000  Uiso   1.00
H674   H     0.44419   0.73095   0.59723   0.00000  Uiso   1.00
H675   H     0.05588   0.73063   0.40277   0.00000  Uiso   1.00
H676   H     0.23076   0.94426   0.59723   0.00000  Uiso   1.00
H677   H     0.23077   0.55594   0.40277   0.00000  Uiso   1.00
H678   H     0.05581   0.76904   0.59722   0.00000  Uiso   1.00
H679   H     0.02017   0.69434   0.02679   0.00000  Uiso   1.00
H680   H     0.44411   0.76937   0.40277   0.00000  Uiso   1.00
H681   H     0.26923   0.55575   0.59722   0.00000  Uiso   1.00
H682   H     0.26923   0.94406   0.40278   0.00000  Uiso   1.00
H683   H     0.01988   0.80558   0.97322   0.00000  Uiso   1.00
H684   H     0.30575   0.98008   0.02678   0.00000  Uiso   1.00
H685   H     0.19451   0.97989   0.97322   0.00000  Uiso   1.00
H686   H     0.47983   0.80566   0.02678   0.00000  Uiso   1.00
H687   H     0.48012   0.69442   0.97323   0.00000  Uiso   1.00
H688   H     0.44442   0.73013   0.52678   0.00000  Uiso   1.00
O689   O     0.25000   0.50000   0.25000   0.00000  Uiso   1.00
O690   O     0.25000   0.96964   0.66317   0.00000  Uiso   1.00
O691   O     0.46964   0.75000   0.33683   0.00000  Uiso   1.00
O692   O     0.03036   0.75000   0.66317   0.00000  Uiso   1.00
O693   O     0.00000   0.71964   0.83683   0.00000  Uiso   1.00
O694   O    -0.00000   0.78036   0.16317   0.00000  Uiso   1.00
O695   O     0.28036   0.50000   0.83683   0.00000  Uiso   1.00
O696   O     0.21964   0.50000   0.16317   0.00000  Uiso   1.00
O697   O     0.00000   0.78036   0.83683   0.00000  Uiso   1.00
O698   O    -0.00000   0.71964   0.16317   0.00000  Uiso   1.00
O699   O     0.21964   0.50000   0.83683   0.00000  Uiso   1.00
O700   O     0.25000   0.50000   0.75000   0.00000  Uiso   1.00
O701   O     0.28036   0.50000   0.16317   0.00000  Uiso   1.00
O702   O     0.20725   0.57307   0.27282   0.00000  Uiso   1.00
O703   O     0.29274   0.92693   0.72718   0.00000  Uiso   1.00
O704   O     0.42693   0.70726   0.27282   0.00000  Uiso   1.00
O705   O     0.07307   0.79275   0.72718   0.00000  Uiso   1.00
O706   O     0.29274   0.92693   0.27282   0.00000  Uiso   1.00
O707   O     0.20725   0.57307   0.72718   0.00000  Uiso   1.00
O708   O     0.07307   0.79275   0.27282   0.00000  Uiso   1.00
O709   O     0.42693   0.70726   0.72718   0.00000  Uiso   1.00
O710   O     0.20725   0.92693   0.72718   0.00000  Uiso   1.00
O711   O    -0.00000   0.75000   0.25000   0.00000  Uiso   1.00
O712   O     0.29274   0.57307   0.27282   0.00000  Uiso   1.00
O713   O     0.42693   0.79275   0.72718   0.00000  Uiso   1.00
O714   O     0.07307   0.70726   0.27282   0.00000  Uiso   1.00
O715   O     0.29274   0.57307   0.72718   0.00000  Uiso   1.00
O716   O     0.20725   0.92693   0.27282   0.00000  Uiso   1.00
O717   O     0.07307   0.70726   0.72718   0.00000  Uiso   1.00
O718   O     0.42693   0.79275   0.27282   0.00000  Uiso   1.00
O719   O     0.45725   0.82307   0.77282   0.00000  Uiso   1.00
O720   O     0.04274   0.67693   0.22718   0.00000  Uiso   1.00
O721   O     0.17693   0.95726   0.77282   0.00000  Uiso   1.00
O722   O     0.00000   0.75000   0.75000   0.00000  Uiso   1.00
O723   O     0.32307   0.54275   0.22718   0.00000  Uiso   1.00
O724   O     0.04274   0.67693   0.77282   0.00000  Uiso   1.00
O725   O     0.45725   0.82307   0.22718   0.00000  Uiso   1.00
O726   O     0.32307   0.54275   0.77282   0.00000  Uiso   1.00
O727   O     0.17693   0.95726   0.22718   0.00000  Uiso   1.00
O728   O     0.45725   0.67693   0.22718   0.00000  Uiso   1.00
O729   O     0.04274   0.82307   0.77282   0.00000  Uiso   1.00
O730   O     0.17693   0.54275   0.22718   0.00000  Uiso   1.00
O731   O     0.32307   0.95726   0.77282   0.00000  Uiso   1.00
O732   O     0.04274   0.82307   0.22718   0.00000  Uiso   1.00
O733   O     0.25000   0.96964   0.33683   0.00000  Uiso   1.00
O734   O     0.45725   0.67693   0.77282   0.00000  Uiso   1.00
O735   O     0.32307   0.95726   0.22718   0.00000  Uiso   1.00
O736   O     0.17693   0.54275   0.77282   0.00000  Uiso   1.00
O737   O     0.25000   0.53036   0.66317   0.00000  Uiso   1.00
O738   O     0.03036   0.75000   0.33683   0.00000  Uiso   1.00
O739   O     0.46964   0.75000   0.66317   0.00000  Uiso   1.00
O740   O     0.25000   0.53036   0.33683   0.00000  Uiso   1.00
Zn741  Zn    0.20660   0.50000   0.21760   0.00000  Uiso   1.00
Zn742  Zn    0.04340   0.75000   0.28240   0.00000  Uiso   1.00
Zn743  Zn    0.25000   0.95660   0.71760   0.00000  Uiso   1.00
Zn744  Zn    0.25000   0.54340   0.28240   0.00000  Uiso   1.00
Zn745  Zn    0.04340   0.75000   0.71760   0.00000  Uiso   1.00
Zn746  Zn    0.45660   0.75000   0.28240   0.00000  Uiso   1.00
Zn747  Zn    0.25000   0.54340   0.71760   0.00000  Uiso   1.00
Zn748  Zn    0.25000   0.95660   0.28240   0.00000  Uiso   1.00
Zn749  Zn    0.29340   0.50000   0.78240   0.00000  Uiso   1.00
Zn750  Zn    0.00000   0.70660   0.21760   0.00000  Uiso   1.00
Zn751  Zn   -0.00000   0.79340   0.78240   0.00000  Uiso   1.00
Zn752  Zn    0.29340   0.50000   0.21760   0.00000  Uiso   1.00
Zn753  Zn    0.20660   0.50000   0.78240   0.00000  Uiso   1.00
Zn754  Zn   -0.00000   0.79340   0.21760   0.00000  Uiso   1.00
Zn755  Zn    0.00000   0.70660   0.78240   0.00000  Uiso   1.00
Zn756  Zn    0.45660   0.75000   0.71760   0.00000  Uiso   1.00
C757   C     0.71861   0.51082   0.04182   0.00000  Uiso   1.00
C758   C     0.53134   0.73903   0.45818   0.00000  Uiso   1.00
C759   C     0.84806   0.90194   0.75000   0.00000  Uiso   1.00
C760   C     0.90191   0.65191   0.25000   0.00000  Uiso   1.00
C761   C     0.59809   0.84809   0.75000   0.00000  Uiso   1.00
C762   C     0.84806   0.90194   0.25000   0.00000  Uiso   1.00
C763   C     0.65194   0.59806   0.75000   0.00000  Uiso   1.00
C764   C     0.59806   0.65194   0.75000   0.00000  Uiso   1.00
C765   C     0.90194   0.84806   0.25000   0.00000  Uiso   1.00
C766   C     0.65191   0.90191   0.75000   0.00000  Uiso   1.00
C767   C     0.84809   0.59809   0.25000   0.00000  Uiso   1.00
C768   C     0.90194   0.84806   0.75000   0.00000  Uiso   1.00
C769   C     0.73911   0.96874   0.54182   0.00000  Uiso   1.00
C770   C     0.59806   0.65194   0.25000   0.00000  Uiso   1.00
C771   C     0.84809   0.59809   0.75000   0.00000  Uiso   1.00
C772   C     0.65191   0.90191   0.25000   0.00000  Uiso   1.00
C773   C     0.75000   0.50000   0.10243   0.00000  Uiso   1.00
C774   C     0.75000   0.50000   0.89757   0.00000  Uiso   1.00
C775   C     0.50000   0.75000   0.10243   0.00000  Uiso   1.00
C776   C     0.50000   0.75000   0.89758   0.00000  Uiso   1.00
C777   C     0.50000   0.75000   0.60242   0.00000  Uiso   1.00
C778   C     0.50000   0.75000   0.39757   0.00000  Uiso   1.00
C779   C     0.75000   0.50000   0.60243   0.00000  Uiso   1.00
C780   C     0.73911   0.53137   0.45818   0.00000  Uiso   1.00
C781   C     0.75000   0.50000   0.39757   0.00000  Uiso   1.00
C782   C     0.53130   0.76078   0.54181   0.00000  Uiso   1.00
C783   C     0.96866   0.76097   0.45818   0.00000  Uiso   1.00
C784   C     0.76089   0.53126   0.54181   0.00000  Uiso   1.00
C785   C     0.76089   0.96863   0.45818   0.00000  Uiso   1.00
C786   C     0.71853   0.51056   0.08206   0.00000  Uiso   1.00
C787   C     0.78133   0.51066   0.91794   0.00000  Uiso   1.00
C788   C     0.51070   0.71858   0.08206   0.00000  Uiso   1.00
C789   C     0.78125   0.51092   0.95818   0.00000  Uiso   1.00
C790   C     0.51053   0.78138   0.91794   0.00000  Uiso   1.00
C791   C     0.78147   0.98945   0.08206   0.00000  Uiso   1.00
C792   C     0.71866   0.98935   0.91794   0.00000  Uiso   1.00
C793   C     0.98931   0.78143   0.08206   0.00000  Uiso   1.00
C794   C     0.98947   0.71862   0.91795   0.00000  Uiso   1.00
C795   C     0.96862   0.73948   0.58206   0.00000  Uiso   1.00
C796   C     0.53142   0.73929   0.41793   0.00000  Uiso   1.00
C797   C     0.73937   0.96866   0.58206   0.00000  Uiso   1.00
C798   C     0.73937   0.53145   0.41794   0.00000  Uiso   1.00
C799   C     0.53138   0.76052   0.58205   0.00000  Uiso   1.00
C800   C     0.51096   0.71866   0.04182   0.00000  Uiso   1.00
C801   C     0.96858   0.76070   0.41794   0.00000  Uiso   1.00
C802   C     0.76063   0.53135   0.58206   0.00000  Uiso   1.00
C803   C     0.76063   0.96855   0.41794   0.00000  Uiso   1.00
C804   C     0.75000   0.50000   0.02132   0.00000  Uiso   1.00
C805   C     0.75000   0.50000   0.97868   0.00000  Uiso   1.00
C806   C     0.50000   0.75000   0.02132   0.00000  Uiso   1.00
C807   C     0.50000   0.75000   0.97869   0.00000  Uiso   1.00
C808   C     0.50000   0.75000   0.52131   0.00000  Uiso   1.00
C809   C     0.50000   0.75000   0.47868   0.00000  Uiso   1.00
C810   C     0.75000   0.50000   0.52132   0.00000  Uiso   1.00
C811   C     0.51079   0.78130   0.95818   0.00000  Uiso   1.00
C812   C     0.75000   0.50000   0.47868   0.00000  Uiso   1.00
C813   C     0.75000   0.50000   0.35524   0.00000  Uiso   1.00
C814   C     0.75000   0.50000   0.64476   0.00000  Uiso   1.00
C815   C     0.50000   0.75000   0.35524   0.00000  Uiso   1.00
C816   C     0.50000   0.75000   0.64476   0.00000  Uiso   1.00
C817   C     0.50000   0.75000   0.85524   0.00000  Uiso   1.00
C818   C     0.50000   0.75000   0.14476   0.00000  Uiso   1.00
C819   C     0.75000   0.50000   0.85524   0.00000  Uiso   1.00
C820   C     0.75000   0.50000   0.14476   0.00000  Uiso   1.00
C821   C     0.68001   0.56999   0.25000   0.00000  Uiso   1.00
C822   C     0.78139   0.98919   0.04181   0.00000  Uiso   1.00
C823   C     0.81999   0.93001   0.75000   0.00000  Uiso   1.00
C824   C     0.92997   0.67997   0.25000   0.00000  Uiso   1.00
C825   C     0.57003   0.82003   0.75000   0.00000  Uiso   1.00
C826   C     0.81999   0.93001   0.25000   0.00000  Uiso   1.00
C827   C     0.68001   0.56999   0.75000   0.00000  Uiso   1.00
C828   C     0.57003   0.82003   0.25000   0.00000  Uiso   1.00
C829   C     0.92997   0.67997   0.75000   0.00000  Uiso   1.00
C830   C     0.67997   0.92997   0.75000   0.00000  Uiso   1.00
C831   C     0.82003   0.57003   0.25000   0.00000  Uiso   1.00
C832   C     0.93001   0.81999   0.75000   0.00000  Uiso   1.00
C833   C     0.71875   0.98908   0.95818   0.00000  Uiso   1.00
C834   C     0.56999   0.68001   0.25000   0.00000  Uiso   1.00
C835   C     0.82003   0.57003   0.75000   0.00000  Uiso   1.00
C836   C     0.67997   0.92997   0.25000   0.00000  Uiso   1.00
C837   C     0.56999   0.68001   0.75000   0.00000  Uiso   1.00
C838   C     0.93001   0.81999   0.25000   0.00000  Uiso   1.00
C839   C     0.61490   0.91204   0.25381   0.00000  Uiso   1.00
C840   C     0.88511   0.58796   0.74632   0.00000  Uiso   1.00
C841   C     0.59271   0.61979   0.27144   0.00000  Uiso   1.00
C842   C     0.90749   0.88041   0.72896   0.00000  Uiso   1.00
C843   C     0.88510   0.58796   0.25378   0.00000  Uiso   1.00
C844   C     0.98904   0.78134   0.04182   0.00000  Uiso   1.00
C845   C     0.61489   0.91204   0.74631   0.00000  Uiso   1.00
C846   C     0.90735   0.88027   0.27133   0.00000  Uiso   1.00
C847   C     0.59255   0.61963   0.72888   0.00000  Uiso   1.00
C848   C     0.61963   0.59255   0.72888   0.00000  Uiso   1.00
C849   C     0.88027   0.90735   0.27133   0.00000  Uiso   1.00
C850   C     0.58796   0.88511   0.74631   0.00000  Uiso   1.00
C851   C     0.91204   0.61490   0.25379   0.00000  Uiso   1.00
C852   C     0.88041   0.90749   0.72896   0.00000  Uiso   1.00
C853   C     0.61979   0.59271   0.27144   0.00000  Uiso   1.00
C854   C     0.91204   0.61490   0.74632   0.00000  Uiso   1.00
C855   C     0.98921   0.71870   0.95819   0.00000  Uiso   1.00
C856   C     0.58796   0.88510   0.25381   0.00000  Uiso   1.00
C857   C     0.86489   0.66204   0.75368   0.00000  Uiso   1.00
C858   C     0.63510   0.83796   0.24619   0.00000  Uiso   1.00
C859   C     0.84251   0.86959   0.77104   0.00000  Uiso   1.00
C860   C     0.65729   0.63021   0.22857   0.00000  Uiso   1.00
C861   C     0.63510   0.83796   0.75369   0.00000  Uiso   1.00
C862   C     0.86490   0.66204   0.24622   0.00000  Uiso   1.00
C863   C     0.65745   0.63037   0.77112   0.00000  Uiso   1.00
C864   C     0.84265   0.86973   0.22867   0.00000  Uiso   1.00
C865   C     0.86973   0.84265   0.22867   0.00000  Uiso   1.00
C866   C     0.96870   0.73921   0.54182   0.00000  Uiso   1.00
C867   C     0.63037   0.65745   0.77112   0.00000  Uiso   1.00
C868   C     0.83796   0.63510   0.24621   0.00000  Uiso   1.00
C869   C     0.66204   0.86489   0.75369   0.00000  Uiso   1.00
C870   C     0.63021   0.65729   0.22856   0.00000  Uiso   1.00
C871   C     0.86959   0.84251   0.77104   0.00000  Uiso   1.00
C872   C     0.66204   0.86490   0.24619   0.00000  Uiso   1.00
C873   C     0.83796   0.63510   0.75368   0.00000  Uiso   1.00
C874   C     0.59809   0.84809   0.25000   0.00000  Uiso   1.00
C875   C     0.90191   0.65191   0.75000   0.00000  Uiso   1.00
C876   C     0.65194   0.59806   0.25000   0.00000  Uiso   1.00
Cl877  Cl    0.60210   0.95837   0.26047   0.00000  Uiso   1.00
Cl878  Cl    0.88644   0.94781   0.29850   0.00000  Uiso   1.00
Cl879  Cl    0.54162   0.89794   0.73980   0.00000  Uiso   1.00
Cl880  Cl    0.95837   0.60209   0.26044   0.00000  Uiso   1.00
Cl881  Cl    0.88675   0.94812   0.70210   0.00000  Uiso   1.00
Cl882  Cl    0.61368   0.55231   0.29874   0.00000  Uiso   1.00
Cl883  Cl    0.95838   0.60207   0.73981   0.00000  Uiso   1.00
Cl884  Cl    0.54163   0.89791   0.26047   0.00000  Uiso   1.00
Cl885  Cl    0.85206   0.70838   0.76018   0.00000  Uiso   1.00
Cl886  Cl    0.64790   0.79163   0.23953   0.00000  Uiso   1.00
Cl887  Cl    0.80188   0.86325   0.79791   0.00000  Uiso   1.00
Cl888  Cl    0.89794   0.54162   0.73982   0.00000  Uiso   1.00
Cl889  Cl    0.69769   0.63632   0.20127   0.00000  Uiso   1.00
Cl890  Cl    0.64793   0.79162   0.76019   0.00000  Uiso   1.00
Cl891  Cl    0.85209   0.70837   0.23961   0.00000  Uiso   1.00
Cl892  Cl    0.69803   0.63666   0.79807   0.00000  Uiso   1.00
Cl893  Cl    0.80219   0.86357   0.20148   0.00000  Uiso   1.00
Cl894  Cl    0.86356   0.80219   0.20150   0.00000  Uiso   1.00
Cl895  Cl    0.63666   0.69803   0.79807   0.00000  Uiso   1.00
Cl896  Cl    0.79163   0.64791   0.23956   0.00000  Uiso   1.00
Cl897  Cl    0.70838   0.85206   0.76020   0.00000  Uiso   1.00
Cl898  Cl    0.63632   0.69769   0.20126   0.00000  Uiso   1.00
Cl899  Cl    0.55231   0.61368   0.29874   0.00000  Uiso   1.00
Cl900  Cl    0.86325   0.80188   0.79790   0.00000  Uiso   1.00
Cl901  Cl    0.70837   0.85209   0.23953   0.00000  Uiso   1.00
Cl902  Cl    0.79162   0.64793   0.76019   0.00000  Uiso   1.00
Cl903  Cl    0.94812   0.88675   0.70209   0.00000  Uiso   1.00
Cl904  Cl    0.89791   0.54163   0.26039   0.00000  Uiso   1.00
Cl905  Cl    0.60207   0.95838   0.73981   0.00000  Uiso   1.00
Cl906  Cl    0.94781   0.88644   0.29852   0.00000  Uiso   1.00
Cl907  Cl    0.55197   0.61334   0.70193   0.00000  Uiso   1.00
Cl908  Cl    0.61334   0.55197   0.70193   0.00000  Uiso   1.00
H909   H     0.69425   0.51992   0.02678   0.00000  Uiso   1.00
H910   H     0.55566   0.72981   0.47321   0.00000  Uiso   1.00
H911   H     0.72995   0.94449   0.52678   0.00000  Uiso   1.00
H912   H     0.72995   0.55571   0.47322   0.00000  Uiso   1.00
H913   H     0.55558   0.76986   0.52677   0.00000  Uiso   1.00
H914   H     0.94434   0.77019   0.47322   0.00000  Uiso   1.00
H915   H     0.77005   0.55551   0.52677   0.00000  Uiso   1.00
H916   H     0.77005   0.94429   0.47322   0.00000  Uiso   1.00
H917   H     0.69403   0.51910   0.09723   0.00000  Uiso   1.00
H918   H     0.80573   0.51928   0.90277   0.00000  Uiso   1.00
H919   H     0.51936   0.69411   0.09723   0.00000  Uiso   1.00
H920   H     0.80549   0.52011   0.97321   0.00000  Uiso   1.00
H921   H     0.51906   0.80581   0.90277   0.00000  Uiso   1.00
H922   H     0.80597   0.98090   0.09722   0.00000  Uiso   1.00
H923   H     0.69427   0.98072   0.90278   0.00000  Uiso   1.00
H924   H     0.98065   0.80589   0.09723   0.00000  Uiso   1.00
H925   H     0.98094   0.69419   0.90278   0.00000  Uiso   1.00
H926   H     0.94419   0.73095   0.59723   0.00000  Uiso   1.00
H927   H     0.55588   0.73063   0.40277   0.00000  Uiso   1.00
H928   H     0.73076   0.94426   0.59723   0.00000  Uiso   1.00
H929   H     0.73077   0.55594   0.40277   0.00000  Uiso   1.00
H930   H     0.55581   0.76904   0.59722   0.00000  Uiso   1.00
H931   H     0.52017   0.69434   0.02679   0.00000  Uiso   1.00
H932   H     0.94411   0.76937   0.40277   0.00000  Uiso   1.00
H933   H     0.76923   0.55575   0.59722   0.00000  Uiso   1.00
H934   H     0.76923   0.94406   0.40278   0.00000  Uiso   1.00
H935   H     0.51988   0.80558   0.97322   0.00000  Uiso   1.00
H936   H     0.80575   0.98008   0.02678   0.00000  Uiso   1.00
H937   H     0.69451   0.97989   0.97322   0.00000  Uiso   1.00
H938   H     0.97983   0.80566   0.02678   0.00000  Uiso   1.00
H939   H     0.98012   0.69442   0.97323   0.00000  Uiso   1.00
H940   H     0.94442   0.73013   0.52678   0.00000  Uiso   1.00
O941   O     0.75000   0.50000   0.25000   0.00000  Uiso   1.00
O942   O     0.75000   0.96964   0.66317   0.00000  Uiso   1.00
O943   O     0.96964   0.75000   0.33683   0.00000  Uiso   1.00
O944   O     0.53036   0.75000   0.66317   0.00000  Uiso   1.00
O945   O     0.50000   0.71964   0.83683   0.00000  Uiso   1.00
O946   O     0.50000   0.78036   0.16317   0.00000  Uiso   1.00
O947   O     0.78036   0.50000   0.83683   0.00000  Uiso   1.00
O948   O     0.71964   0.50000   0.16317   0.00000  Uiso   1.00
O949   O     0.50000   0.78036   0.83683   0.00000  Uiso   1.00
O950   O     0.50000   0.71964   0.16317   0.00000  Uiso   1.00
O951   O     0.71964   0.50000   0.83683   0.00000  Uiso   1.00
O952   O     0.75000   0.50000   0.75000   0.00000  Uiso   1.00
O953   O     0.78036   0.50000   0.16317   0.00000  Uiso   1.00
O954   O     0.70725   0.57307   0.27282   0.00000  Uiso   1.00
O955   O     0.79274   0.92693   0.72718   0.00000  Uiso   1.00
O956   O     0.92693   0.70726   0.27282   0.00000  Uiso   1.00
O957   O     0.57307   0.79275   0.72718   0.00000  Uiso   1.00
O958   O     0.79274   0.92693   0.27282   0.00000  Uiso   1.00
O959   O     0.70725   0.57307   0.72718   0.00000  Uiso   1.00
O960   O     0.57307   0.79275   0.27282   0.00000  Uiso   1.00
O961   O     0.92693   0.70726   0.72718   0.00000  Uiso   1.00
O962   O     0.70725   0.92693   0.72718   0.00000  Uiso   1.00
O963   O     0.50000   0.75000   0.25000   0.00000  Uiso   1.00
O964   O     0.79274   0.57307   0.27282   0.00000  Uiso   1.00
O965   O     0.92693   0.79275   0.72718   0.00000  Uiso   1.00
O966   O     0.57307   0.70726   0.27282   0.00000  Uiso   1.00
O967   O     0.79274   0.57307   0.72718   0.00000  Uiso   1.00
O968   O     0.70725   0.92693   0.27282   0.00000  Uiso   1.00
O969   O     0.57307   0.70726   0.72718   0.00000  Uiso   1.00
O970   O     0.92693   0.79275   0.27282   0.00000  Uiso   1.00
O971   O     0.95725   0.82307   0.77282   0.00000  Uiso   1.00
O972   O     0.54274   0.67693   0.22718   0.00000  Uiso   1.00
O973   O     0.67693   0.95726   0.77282   0.00000  Uiso   1.00
O974   O     0.50000   0.75000   0.75000   0.00000  Uiso   1.00
O975   O     0.82307   0.54275   0.22718   0.00000  Uiso   1.00
O976   O     0.54274   0.67693   0.77282   0.00000  Uiso   1.00
O977   O     0.95725   0.82307   0.22718   0.00000  Uiso   1.00
O978   O     0.82307   0.54275   0.77282   0.00000  Uiso   1.00
O979   O     0.67693   0.95726   0.22718   0.00000  Uiso   1.00
O980   O     0.95725   0.67693   0.22718   0.00000  Uiso   1.00
O981   O     0.54274   0.82307   0.77282   0.00000  Uiso   1.00
O982   O     0.67693   0.54275   0.22718   0.00000  Uiso   1.00
O983   O     0.82307   0.95726   0.77282   0.00000  Uiso   1.00
O984   O     0.54274   0.82307   0.22718   0.00000  Uiso   1.00
O985   O     0.75000   0.96964   0.33683   0.00000  Uiso   1.00
O986   O     0.95725   0.67693   0.77282   0.00000  Uiso   1.00
O987   O     0.82307   0.95726   0.22718   0.00000  Uiso   1.00
O988   O     0.67693   0.54275   0.77282   0.00000  Uiso   1.00
O989   O     0.75000   0.53036   0.66317   0.00000  Uiso   1.00
O990   O     0.53036   0.75000   0.33683   0.00000  Uiso   1.00
O991   O     0.96964   0.75000   0.66317   0.00000  Uiso   1.00
O992   O     0.75000   0.53036   0.33683   0.00000  Uiso   1.00
Zn993  Zn    0.70660   0.50000   0.21760   0.00000  Uiso   1.00
Zn994  Zn    0.54340   0.75000   0.28240   0.00000  Uiso   1.00
Zn995  Zn    0.75000   0.95660   0.71760   0.00000  Uiso   1.00
Zn996  Zn    0.75000   0.54340   0.28240   0.00000  Uiso   1.00
Zn997  Zn    0.54340   0.75000   0.71760   0.00000  Uiso   1.00
Zn998  Zn    0.95660   0.75000   0.28240   0.00000  Uiso   1.00
Zn999  Zn    0.75000   0.54340   0.71760   0.00000  Uiso   1.00
Zn1000 Zn    0.75000   0.95660   0.28240   0.00000  Uiso   1.00
Zn1001 Zn    0.79340   0.50000   0.78240   0.00000  Uiso   1.00
Zn1002 Zn    0.50000   0.70660   0.21760   0.00000  Uiso   1.00
Zn1003 Zn    0.50000   0.79340   0.78240   0.00000  Uiso   1.00
Zn1004 Zn    0.79340   0.50000   0.21760   0.00000  Uiso   1.00
Zn1005 Zn    0.70660   0.50000   0.78240   0.00000  Uiso   1.00
Zn1006 Zn    0.50000   0.79340   0.21760   0.00000  Uiso   1.00
Zn1007 Zn    0.50000   0.70660   0.78240   0.00000  Uiso   1.00
Zn1008 Zn    0.95660   0.75000   0.71760   0.00000  Uiso   1.00
loop_
_geom_bond_atom_site_label_1
_geom_bond_atom_site_label_2
_geom_bond_distance
_geom_bond_site_symmetry_2
_ccdc_geom_bond_type
C1     C30     1.392   .     A
C1     H153    1.083   .     S
C1     C48     1.404   .     A
C2     C40     1.392   .     A
C2     H154    1.083   .     S
C2     C53     1.405   .     S
C3     C96     1.405   .     A
C3     C103    1.405   .     A
C3     C67     1.448   .     S
C4     C68     1.455   .     S
C4     C106    1.408   .     A
C4     C95     1.408   .     A
C5     C94     1.408   .     A
C5     C69     1.455   .     S
C5     C105    1.408   .     A
C6     C70     1.448   .     S
C6     C93     1.405   .     A
C6     C108    1.405   .     A
C7     C71     1.448   .     S
C7     C92     1.405   .     A
C7     C107    1.405   .     A
C8     C81     1.448   .     S
C8     C111    1.405   .     A
C8     C91     1.405   .     A
C9     C82     1.448   .     S
C9     C109    1.405   .     A
C9     C90     1.405   .     A
C10    C89     1.408   .     A
C10    C113    1.408   .     A
C10    C74     1.455   .     S
C11    C87     1.408   .     A
C11    C112    1.408   .     A
C11    C75     1.455   .     S
C12    C115    1.405   .     A
C12    C76     1.448   .     S
C12    C86     1.405   .     A
C13    C41     1.392   .     A
C13    H155    1.083   .     S
C13    C558    1.405   .     S
C14    C114    1.405   .     A
C14    C85     1.405   .     A
C14    C78     1.448   .     S
C15    C79     1.455   .     S
C15    C117    1.408   .     A
C15    C84     1.408   .     A
C16    C116    1.408   .     A
C16    C80     1.455   .     S
C16    C83     1.408   .     A
C17    C64     1.464   .     S
C17    C30     1.402   .     A
C17    C539    1.402   1_545 S
C18    C63     1.464   .     S
C18    C31     1.402   .     A
C18    C540    1.402   1_545 S
C19    C62     1.464   .     S
C19    C32     1.402   .     A
C19    C289    1.402   1_455 S
C20    C34     1.402   .     A
C20    C61     1.464   .     S
C20    C290    1.402   1_455 S
C21    C43     1.402   .     A
C21    C60     1.464   .     S
C21    C291    1.402   1_455 S
C22    C59     1.464   .     S
C22    C297    1.402   1_455 A
C22    C40     1.402   .     S
C23    C58     1.464   .     S
C23    C46     1.402   .     A
C23    C545    1.402   1_545 S
C24    C42     1.392   .     A
C24    H156    1.083   .     S
C24    C56     1.405   .     S
C25    C57     1.464   .     S
C25    C551    1.402   1_545 A
C25    C42     1.402   .     S
C26    H157    1.083   .     S
C26    C43     1.392   .     A
C26    C52     1.405   .     A
C27    H158    1.083   .     S
C27    C45     1.392   .     A
C27    C305    1.405   .     A
C28    C46     1.392   .     A
C28    C54     1.405   .     A
C28    H159    1.083   .     S
C29    C47     1.392   .     A
C29    H160    1.083   .     S
C29    C560    1.405   .     A
C30    H161    1.083   .     S
C31    C33     1.392   .     A
C31    H162    1.083   .     S
C32    H163    1.083   .     S
C32    C44     1.392   .     A
C33    C49     1.404   .     A
C33    H164    1.083   .     S
C34    H165    1.083   .     S
C34    C55     1.392   .     A
C35    H166    1.083   .     S
C35    C66     1.392   .     A
C35    C521    1.402   .     S
C36    C77     1.392   .     A
C36    H167    1.083   .     S
C36    C522    1.402   .     S
C37    C88     1.392   .     A
C37    H168    1.083   .     S
C37    C271    1.402   .     S
C38    H169    1.083   .     S
C38    C99     1.392   .     A
C38    C272    1.402   .     S
C39    H170    1.083   .     S
C39    C110    1.392   .     A
C39    C273    1.402   .     S
C40    H171    1.083   .     S
C41    H172    1.083   .     S
C41    C527    1.402   .     S
C42    H173    1.083   .     S
C43    H174    1.083   .     S
C44    H175    1.083   .     S
C44    C50     1.405   .     A
C45    H176    1.083   .     S
C45    C274    1.402   .     A
C46    H177    1.083   .     S
C47    C529    1.402   .     A
C47    H178    1.083   .     S
C48    C49     1.474   1_554 S
C48    C570    1.404   1_545 S
C49    C48     1.474   1_556 S
C49    C581    1.404   1_545 S
C50    C51     1.474   1_554 S
C50    C340    1.405   1_455 S
C51    C55     1.405   .     A
C51    C50     1.474   1_556 S
C51    C351    1.405   1_455 S
C52    C53     1.474   .     S
C52    C362    1.405   1_455 S
C53    C279    1.405   1_455 A
C54    C517    1.405   1_545 S
C54    C56     1.474   .     S
C55    H179    1.083   .     S
C56    C533    1.405   1_545 A
C57    O733    1.280   1_545 A
C57    O236    1.280   .     S
C58    O233    1.280   .     A
C58    O690    1.280   1_545 S
C59    O439    1.280   1_455 A
C59    O234    1.280   .     S
C60    O188    1.280   .     A
C60    O487    1.280   1_455 S
C61    O189    1.280   .     A
C61    O193    1.280   .     A
C62    O190    1.280   .     S
C62    O194    1.280   .     S
C63    O195    1.280   .     A
C63    O191    1.280   .     A
C64    O197    1.280   .     A
C64    O192    1.280   .     A
C65    O198    1.277   .     A
C65    O226    1.277   .     A
C65    C120    1.448   .     S
C66    H180    1.083   .     S
C66    C552    1.404   .     S
C67    O199    1.277   .     A
C67    O227    1.277   .     A
C68    O200    1.277   .     A
C68    O224    1.277   .     A
C69    O201    1.277   .     A
C69    O225    1.277   .     A
C70    O202    1.277   .     A
C70    O231    1.276   .     A
C71    O232    1.277   .     A
C71    O203    1.277   .     A
C72    O204    1.277   .     A
C72    O228    1.277   .     A
C72    C118    1.455   .     S
C73    C119    1.455   .     S
C73    O230    1.277   .     A
C73    O205    1.277   .     A
C74    O206    1.277   .     A
C74    O217    1.277   .     A
C75    O219    1.277   .     A
C75    O208    1.277   .     A
C76    O215    1.277   .     A
C76    O209    1.277   .     A
C77    H181    1.083   .     S
C77    C553    1.404   .     S
C78    O210    1.277   .     A
C78    O216    1.277   .     A
C79    O211    1.277   .     A
C79    O222    1.277   .     A
C80    O212    1.277   .     A
C80    O223    1.277   .     A
C81    O213    1.277   .     A
C81    O220    1.277   .     A
C82    O221    1.277   .     A
C82    O214    1.276   .     A
C83    Cl121   1.771   .     S
C83    C100    1.397   .     A
C84    C98     1.397   .     A
C84    Cl132   1.771   .     S
C85    Cl143   1.768   .     S
C85    C97     1.397   .     A
C86    Cl147   1.769   .     S
C86    C96     1.397   .     A
C87    C95     1.397   .     A
C87    Cl148   1.771   .     S
C88    H182    1.083   .     S
C88    C302    1.405   .     S
C89    C94     1.397   .     A
C89    Cl149   1.771   .     S
C90    Cl150   1.769   .     S
C90    C93     1.397   .     A
C91    C92     1.397   .     A
C91    Cl151   1.769   .     S
C92    Cl152   1.769   .     S
C93    Cl122   1.768   .     S
C94    Cl123   1.771   .     S
C95    Cl124   1.771   .     S
C96    Cl125   1.769   .     S
C97    Cl126   1.768   .     S
C97    C120    1.405   .     A
C98    C119    1.408   .     A
C98    Cl127   1.771   .     S
C99    H183    1.083   .     S
C99    C303    1.405   .     S
C100   C118    1.408   .     A
C100   Cl128   1.771   .     S
C101   C119    1.408   .     A
C101   C117    1.397   .     A
C101   Cl129   1.771   .     S
C102   C118    1.408   .     A
C102   C116    1.397   .     A
C102   Cl130   1.771   .     S
C103   C115    1.397   .     A
C103   Cl131   1.769   .     S
C104   C114    1.397   .     A
C104   Cl133   1.768   .     S
C104   C120    1.405   .     A
C105   C113    1.397   .     A
C105   Cl134   1.771   .     S
C106   C112    1.397   .     A
C106   Cl135   1.771   .     S
C107   Cl136   1.769   .     S
C107   C111    1.397   .     A
C108   C109    1.397   .     A
C108   Cl137   1.769   .     S
C109   Cl138   1.768   .     S
C110   H184    1.083   .     S
C110   C304    1.405   .     S
C111   Cl139   1.769   .     S
C112   Cl140   1.771   .     S
C113   Cl141   1.771   .     S
C114   Cl142   1.769   .     S
C115   Cl144   1.769   .     S
C116   Cl145   1.771   .     S
C117   Cl146   1.771   .     S
O185   Zn240   1.943   .     S
O185   Zn248   1.943   .     S
O185   Zn237   1.943   .     S
O185   Zn748   1.943   1_545 S
O186   Zn239   1.941   .     S
O186   C562    1.280   .     S
O187   C311    1.280   .     A
O187   Zn242   1.942   .     S
O188   Zn241   1.942   .     S
O189   Zn251   1.942   .     S
O190   Zn250   1.942   .     S
O191   Zn245   1.941   .     S
O192   Zn237   1.941   .     S
O193   Zn247   1.941   .     S
O194   Zn246   1.941   .     S
O195   Zn249   1.942   .     S
O196   Zn245   1.943   .     S
O196   Zn249   1.943   .     S
O196   Zn243   1.943   .     S
O196   Zn743   1.943   1_545 S
O197   Zn248   1.942   .     S
O198   Zn240   1.927   .     S
O199   Zn239   1.927   .     S
O200   Zn242   1.936   .     S
O201   Zn241   1.936   .     S
O202   Zn244   1.927   .     S
O203   Zn243   1.927   .     S
O204   Zn238   1.936   .     S
O205   Zn252   1.936   .     S
O206   Zn239   1.936   .     S
O207   Zn494   1.943   1_455 S
O207   Zn250   1.943   .     S
O207   Zn238   1.943   .     S
O207   Zn246   1.943   .     S
O208   Zn240   1.936   .     S
O209   Zn252   1.927   .     S
O210   Zn238   1.927   .     S
O211   Zn243   1.936   .     S
O212   Zn244   1.936   .     S
O213   Zn241   1.927   .     S
O214   Zn242   1.927   .     S
O215   Zn499   1.927   .     S
O216   Zn246   1.927   .     S
O217   Zn753   1.936   .     S
O218   Zn251   1.943   .     S
O218   Zn241   1.943   .     S
O218   Zn247   1.943   .     S
O218   Zn504   1.943   1_455 S
O219   Zn248   1.936   .     S
O220   Zn251   1.927   .     S
O221   Zn502   1.927   .     S
O222   Zn245   1.936   .     S
O223   Zn741   1.936   .     S
O224   Zn498   1.936   .     S
O225   Zn247   1.936   .     S
O226   Zn237   1.927   .     S
O227   Zn749   1.927   .     S
O228   Zn250   1.936   .     S
O229   Zn244   1.942   .     S
O229   C561    1.280   .     A
O230   Zn503   1.936   .     S
O231   Zn752   1.927   .     S
O232   Zn249   1.927   .     S
O233   Zn243   1.942   .     S
O234   Zn238   1.941   .     S
O235   Zn252   1.941   .     S
O235   C312    1.280   .     S
O236   Zn240   1.941   .     S
Zn237  O727    1.936   1_545 S
Zn239  O700    1.943   .     S
Zn242  O459    1.943   .     S
Zn244  O689    1.943   .     S
Zn245  O731    1.927   1_545 S
Zn246  O476    1.936   1_455 S
Zn247  O467    1.927   1_455 S
Zn248  O735    1.927   1_545 S
Zn249  O721    1.936   1_545 S
Zn250  O473    1.927   1_455 S
Zn251  O482    1.936   1_455 S
Zn252  O470    1.943   .     S
C253   C282    1.392   .     A
C253   H405    1.083   .     S
C253   C300    1.404   .     A
C254   C292    1.392   .     A
C254   H406    1.083   .     S
C254   C305    1.405   .     S
C255   C348    1.405   .     A
C255   C355    1.405   .     A
C255   C319    1.448   .     S
C256   C320    1.455   .     S
C256   C358    1.408   .     A
C256   C347    1.408   .     A
C257   C346    1.408   .     A
C257   C321    1.455   .     S
C257   C357    1.408   .     A
C258   C322    1.448   .     S
C258   C345    1.405   .     A
C258   C360    1.405   .     A
C259   C323    1.448   .     S
C259   C344    1.405   .     A
C259   C359    1.405   .     A
C260   C333    1.448   .     S
C260   C363    1.405   .     A
C260   C343    1.405   .     A
C261   C334    1.448   .     S
C261   C361    1.405   .     A
C261   C342    1.405   .     A
C262   C341    1.408   .     A
C262   C365    1.408   .     A
C262   C326    1.455   .     S
C263   C339    1.408   .     A
C263   C364    1.408   .     A
C263   C327    1.455   .     S
C264   C367    1.405   .     A
C264   C328    1.448   .     S
C264   C338    1.405   .     A
C265   C293    1.392   .     A
C265   H407    1.083   .     S
C265   C810    1.405   .     S
C266   C366    1.405   .     A
C266   C337    1.405   .     A
C266   C330    1.448   .     S
C267   C331    1.455   .     S
C267   C369    1.408   .     A
C267   C336    1.408   .     A
C268   C368    1.408   .     A
C268   C332    1.455   .     S
C268   C335    1.408   .     A
C269   C316    1.464   .     S
C269   C282    1.402   .     A
C269   C791    1.402   1_545 S
C270   C315    1.464   .     S
C270   C283    1.402   .     A
C270   C792    1.402   1_545 S
C271   C314    1.464   .     S
C271   C284    1.402   .     A
C272   C286    1.402   .     A
C272   C313    1.464   .     S
C273   C295    1.402   .     A
C273   C312    1.464   .     S
C274   C311    1.464   .     S
C274   C292    1.402   .     S
C275   C310    1.464   .     S
C275   C298    1.402   .     A
C275   C797    1.402   1_545 S
C276   C294    1.392   .     A
C276   H408    1.083   .     S
C276   C308    1.405   .     S
C277   C309    1.464   .     S
C277   C803    1.402   1_545 A
C277   C294    1.402   .     S
C278   H409    1.083   .     S
C278   C295    1.392   .     A
C278   C304    1.405   .     A
C279   H410    1.083   .     S
C279   C297    1.392   .     A
C279   C53     1.405   1_655 A
C280   C298    1.392   .     A
C280   C306    1.405   .     A
C280   H411    1.083   .     S
C281   C299    1.392   .     A
C281   H412    1.083   .     S
C281   C812    1.405   .     A
C282   H413    1.083   .     S
C283   C285    1.392   .     A
C283   H414    1.083   .     S
C284   H415    1.083   .     S
C284   C296    1.392   .     A
C285   C301    1.404   .     A
C285   H416    1.083   .     S
C286   H417    1.083   .     S
C286   C307    1.392   .     A
C287   H418    1.083   .     S
C287   C318    1.392   .     A
C287   C773    1.402   .     S
C288   C329    1.392   .     A
C288   H419    1.083   .     S
C288   C774    1.402   .     S
C289   C340    1.392   .     A
C289   H420    1.083   .     S
C289   C19     1.402   1_655 S
C290   H421    1.083   .     S
C290   C351    1.392   .     A
C290   C20     1.402   1_655 S
C291   H422    1.083   .     S
C291   C362    1.392   .     A
C291   C21     1.402   1_655 S
C292   H423    1.083   .     S
C293   H424    1.083   .     S
C293   C779    1.402   .     S
C294   H425    1.083   .     S
C295   H426    1.083   .     S
C296   H427    1.083   .     S
C296   C302    1.405   .     A
C297   H428    1.083   .     S
C297   C22     1.402   1_655 A
C298   H429    1.083   .     S
C299   C781    1.402   .     A
C299   H430    1.083   .     S
C300   C301    1.474   1_554 S
C300   C822    1.404   1_545 S
C301   C300    1.474   1_556 S
C301   C833    1.404   1_545 S
C302   C303    1.474   1_554 S
C303   C307    1.405   .     A
C303   C302    1.474   1_556 S
C304   C305    1.474   .     S
C306   C769    1.405   1_545 S
C306   C308    1.474   .     S
C307   H431    1.083   .     S
C308   C785    1.405   1_545 A
C309   O985    1.280   1_545 A
C309   O488    1.280   .     S
C310   O485    1.280   .     A
C310   O942    1.280   1_545 S
C311   O486    1.280   .     S
C312   O440    1.280   .     A
C313   O441    1.280   .     A
C313   O445    1.280   .     A
C314   O442    1.280   .     S
C314   O446    1.280   .     S
C315   O447    1.280   .     A
C315   O443    1.280   .     A
C316   O449    1.280   .     A
C316   O444    1.280   .     A
C317   O450    1.277   .     A
C317   O478    1.277   .     A
C317   C372    1.448   .     S
C318   H432    1.083   .     S
C318   C804    1.404   .     S
C319   O451    1.277   .     A
C319   O479    1.277   .     A
C320   O452    1.277   .     A
C320   O476    1.277   .     A
C321   O453    1.277   .     A
C321   O477    1.277   .     A
C322   O454    1.277   .     A
C322   O483    1.276   .     A
C323   O484    1.277   .     A
C323   O455    1.277   .     A
C324   O456    1.277   .     A
C324   O480    1.277   .     A
C324   C370    1.455   .     S
C325   C371    1.455   .     S
C325   O482    1.277   .     A
C325   O457    1.277   .     A
C326   O458    1.277   .     A
C326   O469    1.277   .     A
C327   O471    1.277   .     A
C327   O460    1.277   .     A
C328   O467    1.277   .     A
C328   O461    1.277   .     A
C329   H433    1.083   .     S
C329   C805    1.404   .     S
C330   O462    1.277   .     A
C330   O468    1.277   .     A
C331   O463    1.277   .     A
C331   O474    1.277   .     A
C332   O464    1.277   .     A
C332   O475    1.277   .     A
C333   O465    1.277   .     A
C333   O472    1.277   .     A
C334   O473    1.277   .     A
C334   O466    1.276   .     A
C335   Cl373   1.771   .     S
C335   C352    1.397   .     A
C336   C350    1.397   .     A
C336   Cl384   1.771   .     S
C337   Cl395   1.768   .     S
C337   C349    1.397   .     A
C338   Cl399   1.769   .     S
C338   C348    1.397   .     A
C339   C347    1.397   .     A
C339   Cl400   1.771   .     S
C340   H434    1.083   .     S
C340   C50     1.405   1_655 S
C341   C346    1.397   .     A
C341   Cl401   1.771   .     S
C342   Cl402   1.769   .     S
C342   C345    1.397   .     A
C343   C344    1.397   .     A
C343   Cl403   1.769   .     S
C344   Cl404   1.769   .     S
C345   Cl374   1.768   .     S
C346   Cl375   1.771   .     S
C347   Cl376   1.771   .     S
C348   Cl377   1.769   .     S
C349   Cl378   1.768   .     S
C349   C372    1.405   .     A
C350   C371    1.408   .     A
C350   Cl379   1.771   .     S
C351   H435    1.083   .     S
C351   C51     1.405   1_655 S
C352   C370    1.408   .     A
C352   Cl380   1.771   .     S
C353   C371    1.408   .     A
C353   C369    1.397   .     A
C353   Cl381   1.771   .     S
C354   C370    1.408   .     A
C354   C368    1.397   .     A
C354   Cl382   1.771   .     S
C355   C367    1.397   .     A
C355   Cl383   1.769   .     S
C356   C366    1.397   .     A
C356   Cl385   1.768   .     S
C356   C372    1.405   .     A
C357   C365    1.397   .     A
C357   Cl386   1.771   .     S
C358   C364    1.397   .     A
C358   Cl387   1.771   .     S
C359   Cl388   1.769   .     S
C359   C363    1.397   .     A
C360   C361    1.397   .     A
C360   Cl389   1.769   .     S
C361   Cl390   1.768   .     S
C362   H436    1.083   .     S
C362   C52     1.405   1_655 S
C363   Cl391   1.769   .     S
C364   Cl392   1.771   .     S
C365   Cl393   1.771   .     S
C366   Cl394   1.769   .     S
C367   Cl396   1.769   .     S
C368   Cl397   1.771   .     S
C369   Cl398   1.771   .     S
O437   Zn492   1.943   .     S
O437   Zn500   1.943   .     S
O437   Zn489   1.943   .     S
O437   Zn1000  1.943   1_545 S
O438   Zn491   1.941   .     S
O438   C814    1.280   .     S
O439   C59     1.280   1_655 A
O439   Zn494   1.942   .     S
O440   Zn493   1.942   .     S
O441   Zn503   1.942   .     S
O442   Zn502   1.942   .     S
O443   Zn497   1.941   .     S
O444   Zn489   1.941   .     S
O445   Zn499   1.941   .     S
O446   Zn498   1.941   .     S
O447   Zn501   1.942   .     S
O448   Zn497   1.943   .     S
O448   Zn501   1.943   .     S
O448   Zn495   1.943   .     S
O448   Zn995   1.943   1_545 S
O449   Zn500   1.942   .     S
O450   Zn492   1.927   .     S
O451   Zn491   1.927   .     S
O452   Zn494   1.936   .     S
O453   Zn493   1.936   .     S
O454   Zn496   1.927   .     S
O455   Zn495   1.927   .     S
O456   Zn490   1.936   .     S
O457   Zn504   1.936   .     S
O458   Zn491   1.936   .     S
O459   Zn502   1.943   .     S
O459   Zn490   1.943   .     S
O459   Zn498   1.943   .     S
O460   Zn492   1.936   .     S
O461   Zn504   1.927   .     S
O462   Zn490   1.927   .     S
O463   Zn495   1.936   .     S
O464   Zn496   1.936   .     S
O465   Zn493   1.927   .     S
O466   Zn494   1.927   .     S
O467   Zn247   1.927   1_655 S
O468   Zn498   1.927   .     S
O469   Zn1005  1.936   .     S
O470   Zn503   1.943   .     S
O470   Zn493   1.943   .     S
O470   Zn499   1.943   .     S
O471   Zn500   1.936   .     S
O472   Zn503   1.927   .     S
O473   Zn250   1.927   1_655 S
O474   Zn497   1.936   .     S
O475   Zn993   1.936   .     S
O476   Zn246   1.936   1_655 S
O477   Zn499   1.936   .     S
O478   Zn489   1.927   .     S
O479   Zn1001  1.927   .     S
O480   Zn502   1.936   .     S
O481   Zn496   1.942   .     S
O481   C813    1.280   .     A
O482   Zn251   1.936   1_655 S
O483   Zn1004  1.927   .     S
O484   Zn501   1.927   .     S
O485   Zn495   1.942   .     S
O486   Zn490   1.941   .     S
O487   Zn504   1.941   .     S
O487   C60     1.280   1_655 S
O488   Zn492   1.941   .     S
Zn489  O979    1.936   1_545 S
Zn491  O952    1.943   .     S
Zn494  O207    1.943   1_655 S
Zn496  O941    1.943   .     S
Zn497  O983    1.927   1_545 S
Zn500  O987    1.927   1_545 S
Zn501  O973    1.936   1_545 S
Zn504  O218    1.943   1_655 S
C505   C534    1.392   .     A
C505   H657    1.083   .     S
C505   C552    1.404   .     A
C506   C544    1.392   .     A
C506   H658    1.083   .     S
C506   C557    1.405   .     S
C507   C600    1.405   .     A
C507   C607    1.405   .     A
C507   C571    1.448   .     S
C508   C572    1.455   .     S
C508   C610    1.408   .     A
C508   C599    1.408   .     A
C509   C598    1.408   .     A
C509   C573    1.455   .     S
C509   C609    1.408   .     A
C510   C574    1.448   .     S
C510   C597    1.405   .     A
C510   C612    1.405   .     A
C511   C575    1.448   .     S
C511   C596    1.405   .     A
C511   C611    1.405   .     A
C512   C585    1.448   .     S
C512   C615    1.405   .     A
C512   C595    1.405   .     A
C513   C586    1.448   .     S
C513   C613    1.405   .     A
C513   C594    1.405   .     A
C514   C593    1.408   .     A
C514   C617    1.408   .     A
C514   C578    1.455   .     S
C515   C591    1.408   .     A
C515   C616    1.408   .     A
C515   C579    1.455   .     S
C516   C619    1.405   .     A
C516   C580    1.448   .     S
C516   C590    1.405   .     A
C517   C545    1.392   .     A
C517   H659    1.083   .     S
C517   C54     1.405   1_565 S
C518   C618    1.405   .     A
C518   C589    1.405   .     A
C518   C582    1.448   .     S
C519   C583    1.455   .     S
C519   C621    1.408   .     A
C519   C588    1.408   .     A
C520   C620    1.408   .     A
C520   C584    1.455   .     S
C520   C587    1.408   .     A
C521   C568    1.464   .     S
C521   C534    1.402   .     A
C522   C567    1.464   .     S
C522   C535    1.402   .     A
C523   C566    1.464   .     S
C523   C536    1.402   .     A
C523   C793    1.402   1_455 S
C524   C538    1.402   .     A
C524   C565    1.464   .     S
C524   C794    1.402   1_455 S
C525   C547    1.402   .     A
C525   C564    1.464   .     S
C525   C795    1.402   1_455 S
C526   C563    1.464   .     S
C526   C801    1.402   1_455 A
C526   C544    1.402   .     S
C527   C562    1.464   .     S
C527   C550    1.402   .     A
C528   C546    1.392   .     A
C528   H660    1.083   .     S
C528   C560    1.405   .     S
C529   C561    1.464   .     S
C529   C546    1.402   .     S
C530   H661    1.083   .     S
C530   C547    1.392   .     A
C530   C556    1.405   .     A
C531   H662    1.083   .     S
C531   C549    1.392   .     A
C531   C809    1.405   .     A
C532   C550    1.392   .     A
C532   C558    1.405   .     A
C532   H663    1.083   .     S
C533   C551    1.392   .     A
C533   H664    1.083   .     S
C533   C56     1.405   1_565 A
C534   H665    1.083   .     S
C535   C537    1.392   .     A
C535   H666    1.083   .     S
C536   H667    1.083   .     S
C536   C548    1.392   .     A
C537   C553    1.404   .     A
C537   H668    1.083   .     S
C538   H669    1.083   .     S
C538   C559    1.392   .     A
C539   H670    1.083   .     S
C539   C570    1.392   .     A
C539   C17     1.402   1_565 S
C540   C581    1.392   .     A
C540   H671    1.083   .     S
C540   C18     1.402   1_565 S
C541   C592    1.392   .     A
C541   H672    1.083   .     S
C541   C775    1.402   .     S
C542   H673    1.083   .     S
C542   C603    1.392   .     A
C542   C776    1.402   .     S
C543   H674    1.083   .     S
C543   C614    1.392   .     A
C543   C777    1.402   .     S
C544   H675    1.083   .     S
C545   H676    1.083   .     S
C545   C23     1.402   1_565 S
C546   H677    1.083   .     S
C547   H678    1.083   .     S
C548   H679    1.083   .     S
C548   C554    1.405   .     A
C549   H680    1.083   .     S
C549   C778    1.402   .     A
C550   H681    1.083   .     S
C551   C25     1.402   1_565 A
C551   H682    1.083   .     S
C552   C553    1.474   1_554 S
C553   C552    1.474   1_556 S
C554   C555    1.474   1_554 S
C554   C844    1.405   1_455 S
C555   C559    1.405   .     A
C555   C554    1.474   1_556 S
C555   C855    1.405   1_455 S
C556   C557    1.474   .     S
C556   C866    1.405   1_455 S
C557   C783    1.405   1_455 A
C558   C560    1.474   .     S
C559   H683    1.083   .     S
C561   O740    1.280   .     S
C562   O737    1.280   .     A
C563   O943    1.280   1_455 A
C563   O738    1.280   .     S
C564   O692    1.280   .     A
C564   O991    1.280   1_455 S
C565   O693    1.280   .     A
C565   O697    1.280   .     A
C566   O694    1.280   .     S
C566   O698    1.280   .     S
C567   O699    1.280   .     A
C567   O695    1.280   .     A
C568   O701    1.280   .     A
C568   O696    1.280   .     A
C569   O702    1.277   .     A
C569   O730    1.277   .     A
C569   C624    1.448   .     S
C570   H684    1.083   .     S
C570   C48     1.404   1_565 S
C571   O703    1.277   .     A
C571   O731    1.277   .     A
C572   O704    1.277   .     A
C572   O728    1.277   .     A
C573   O705    1.277   .     A
C573   O729    1.277   .     A
C574   O706    1.277   .     A
C574   O735    1.276   .     A
C575   O736    1.277   .     A
C575   O707    1.277   .     A
C576   O708    1.277   .     A
C576   O732    1.277   .     A
C576   C622    1.455   .     S
C577   C623    1.455   .     S
C577   O734    1.277   .     A
C577   O709    1.277   .     A
C578   O710    1.277   .     A
C578   O721    1.277   .     A
C579   O723    1.277   .     A
C579   O712    1.277   .     A
C580   O719    1.277   .     A
C580   O713    1.277   .     A
C581   H685    1.083   .     S
C581   C49     1.404   1_565 S
C582   O714    1.277   .     A
C582   O720    1.277   .     A
C583   O715    1.277   .     A
C583   O726    1.277   .     A
C584   O716    1.277   .     A
C584   O727    1.277   .     A
C585   O717    1.277   .     A
C585   O724    1.277   .     A
C586   O725    1.277   .     A
C586   O718    1.276   .     A
C587   Cl625   1.771   .     S
C587   C604    1.397   .     A
C588   C602    1.397   .     A
C588   Cl636   1.771   .     S
C589   Cl647   1.768   .     S
C589   C601    1.397   .     A
C590   Cl651   1.769   .     S
C590   C600    1.397   .     A
C591   C599    1.397   .     A
C591   Cl652   1.771   .     S
C592   H686    1.083   .     S
C592   C806    1.405   .     S
C593   C598    1.397   .     A
C593   Cl653   1.771   .     S
C594   Cl654   1.769   .     S
C594   C597    1.397   .     A
C595   C596    1.397   .     A
C595   Cl655   1.769   .     S
C596   Cl656   1.769   .     S
C597   Cl626   1.768   .     S
C598   Cl627   1.771   .     S
C599   Cl628   1.771   .     S
C600   Cl629   1.769   .     S
C601   Cl630   1.768   .     S
C601   C624    1.405   .     A
C602   C623    1.408   .     A
C602   Cl631   1.771   .     S
C603   H687    1.083   .     S
C603   C807    1.405   .     S
C604   C622    1.408   .     A
C604   Cl632   1.771   .     S
C605   C623    1.408   .     A
C605   C621    1.397   .     A
C605   Cl633   1.771   .     S
C606   C622    1.408   .     A
C606   C620    1.397   .     A
C606   Cl634   1.771   .     S
C607   C619    1.397   .     A
C607   Cl635   1.769   .     S
C608   C618    1.397   .     A
C608   Cl637   1.768   .     S
C608   C624    1.405   .     A
C609   C617    1.397   .     A
C609   Cl638   1.771   .     S
C610   C616    1.397   .     A
C610   Cl639   1.771   .     S
C611   Cl640   1.769   .     S
C611   C615    1.397   .     A
C612   C613    1.397   .     A
C612   Cl641   1.769   .     S
C613   Cl642   1.768   .     S
C614   H688    1.083   .     S
C614   C808    1.405   .     S
C615   Cl643   1.769   .     S
C616   Cl644   1.771   .     S
C617   Cl645   1.771   .     S
C618   Cl646   1.769   .     S
C619   Cl648   1.769   .     S
C620   Cl649   1.771   .     S
C621   Cl650   1.771   .     S
O689   Zn744   1.943   .     S
O689   Zn752   1.943   .     S
O689   Zn741   1.943   .     S
O690   Zn743   1.941   .     S
O690   C58     1.280   1_565 S
O691   C815    1.280   .     A
O691   Zn746   1.942   .     S
O692   Zn745   1.942   .     S
O693   Zn755   1.942   .     S
O694   Zn754   1.942   .     S
O695   Zn749   1.941   .     S
O696   Zn741   1.941   .     S
O697   Zn751   1.941   .     S
O698   Zn750   1.941   .     S
O699   Zn753   1.942   .     S
O700   Zn749   1.943   .     S
O700   Zn753   1.943   .     S
O700   Zn747   1.943   .     S
O701   Zn752   1.942   .     S
O702   Zn744   1.927   .     S
O703   Zn743   1.927   .     S
O704   Zn746   1.936   .     S
O705   Zn745   1.936   .     S
O706   Zn748   1.927   .     S
O707   Zn747   1.927   .     S
O708   Zn742   1.936   .     S
O709   Zn756   1.936   .     S
O710   Zn743   1.936   .     S
O711   Zn998   1.943   1_455 S
O711   Zn754   1.943   .     S
O711   Zn742   1.943   .     S
O711   Zn750   1.943   .     S
O712   Zn744   1.936   .     S
O713   Zn756   1.927   .     S
O714   Zn742   1.927   .     S
O715   Zn747   1.936   .     S
O716   Zn748   1.936   .     S
O717   Zn745   1.927   .     S
O718   Zn746   1.927   .     S
O719   Zn1003  1.927   .     S
O720   Zn750   1.927   .     S
O721   Zn249   1.936   1_565 S
O722   Zn755   1.943   .     S
O722   Zn745   1.943   .     S
O722   Zn751   1.943   .     S
O722   Zn1008  1.943   1_455 S
O723   Zn752   1.936   .     S
O724   Zn755   1.927   .     S
O725   Zn1006  1.927   .     S
O726   Zn749   1.936   .     S
O727   Zn237   1.936   1_565 S
O728   Zn1002  1.936   .     S
O729   Zn751   1.936   .     S
O730   Zn741   1.927   .     S
O731   Zn245   1.927   1_565 S
O732   Zn754   1.936   .     S
O733   Zn748   1.942   .     S
O733   C57     1.280   1_565 A
O734   Zn1007  1.936   .     S
O735   Zn248   1.927   1_565 S
O736   Zn753   1.927   .     S
O737   Zn747   1.942   .     S
O738   Zn742   1.941   .     S
O739   Zn756   1.941   .     S
O739   C816    1.280   .     S
O740   Zn744   1.941   .     S
Zn743  O196    1.943   1_565 S
Zn746  O963    1.943   .     S
Zn748  O185    1.943   1_565 S
Zn750  O980    1.936   1_455 S
Zn751  O971    1.927   1_455 S
Zn754  O977    1.927   1_455 S
Zn755  O986    1.936   1_455 S
Zn756  O974    1.943   .     S
C757   C786    1.392   .     A
C757   H909    1.083   .     S
C757   C804    1.404   .     A
C758   C796    1.392   .     A
C758   H910    1.083   .     S
C758   C809    1.405   .     S
C759   C852    1.405   .     A
C759   C859    1.405   .     A
C759   C823    1.448   .     S
C760   C824    1.455   .     S
C760   C862    1.408   .     A
C760   C851    1.408   .     A
C761   C850    1.408   .     A
C761   C825    1.455   .     S
C761   C861    1.408   .     A
C762   C826    1.448   .     S
C762   C849    1.405   .     A
C762   C864    1.405   .     A
C763   C827    1.448   .     S
C763   C848    1.405   .     A
C763   C863    1.405   .     A
C764   C837    1.448   .     S
C764   C867    1.405   .     A
C764   C847    1.405   .     A
C765   C838    1.448   .     S
C765   C865    1.405   .     A
C765   C846    1.405   .     A
C766   C845    1.408   .     A
C766   C869    1.408   .     A
C766   C830    1.455   .     S
C767   C843    1.408   .     A
C767   C868    1.408   .     A
C767   C831    1.455   .     S
C768   C871    1.405   .     A
C768   C832    1.448   .     S
C768   C842    1.405   .     A
C769   C797    1.392   .     A
C769   H911    1.083   .     S
C769   C306    1.405   1_565 S
C770   C870    1.405   .     A
C770   C841    1.405   .     A
C770   C834    1.448   .     S
C771   C835    1.455   .     S
C771   C873    1.408   .     A
C771   C840    1.408   .     A
C772   C872    1.408   .     A
C772   C836    1.455   .     S
C772   C839    1.408   .     A
C773   C820    1.464   .     S
C773   C786    1.402   .     A
C774   C819    1.464   .     S
C774   C787    1.402   .     A
C775   C818    1.464   .     S
C775   C788    1.402   .     A
C776   C790    1.402   .     A
C776   C817    1.464   .     S
C777   C799    1.402   .     A
C777   C816    1.464   .     S
C778   C815    1.464   .     S
C778   C796    1.402   .     S
C779   C814    1.464   .     S
C779   C802    1.402   .     A
C780   C798    1.392   .     A
C780   H912    1.083   .     S
C780   C812    1.405   .     S
C781   C813    1.464   .     S
C781   C798    1.402   .     S
C782   H913    1.083   .     S
C782   C799    1.392   .     A
C782   C808    1.405   .     A
C783   H914    1.083   .     S
C783   C801    1.392   .     A
C783   C557    1.405   1_655 A
C784   C802    1.392   .     A
C784   C810    1.405   .     A
C784   H915    1.083   .     S
C785   C803    1.392   .     A
C785   H916    1.083   .     S
C785   C308    1.405   1_565 A
C786   H917    1.083   .     S
C787   C789    1.392   .     A
C787   H918    1.083   .     S
C788   H919    1.083   .     S
C788   C800    1.392   .     A
C789   C805    1.404   .     A
C789   H920    1.083   .     S
C790   H921    1.083   .     S
C790   C811    1.392   .     A
C791   H922    1.083   .     S
C791   C822    1.392   .     A
C791   C269    1.402   1_565 S
C792   C833    1.392   .     A
C792   H923    1.083   .     S
C792   C270    1.402   1_565 S
C793   C844    1.392   .     A
C793   H924    1.083   .     S
C793   C523    1.402   1_655 S
C794   H925    1.083   .     S
C794   C855    1.392   .     A
C794   C524    1.402   1_655 S
C795   H926    1.083   .     S
C795   C866    1.392   .     A
C795   C525    1.402   1_655 S
C796   H927    1.083   .     S
C797   H928    1.083   .     S
C797   C275    1.402   1_565 S
C798   H929    1.083   .     S
C799   H930    1.083   .     S
C800   H931    1.083   .     S
C800   C806    1.405   .     A
C801   H932    1.083   .     S
C801   C526    1.402   1_655 A
C802   H933    1.083   .     S
C803   C277    1.402   1_565 A
C803   H934    1.083   .     S
C804   C805    1.474   1_554 S
C805   C804    1.474   1_556 S
C806   C807    1.474   1_554 S
C807   C811    1.405   .     A
C807   C806    1.474   1_556 S
C808   C809    1.474   .     S
C810   C812    1.474   .     S
C811   H935    1.083   .     S
C813   O992    1.280   .     S
C814   O989    1.280   .     A
C815   O990    1.280   .     S
C816   O944    1.280   .     A
C817   O945    1.280   .     A
C817   O949    1.280   .     A
C818   O946    1.280   .     S
C818   O950    1.280   .     S
C819   O951    1.280   .     A
C819   O947    1.280   .     A
C820   O953    1.280   .     A
C820   O948    1.280   .     A
C821   O954    1.277   .     A
C821   O982    1.277   .     A
C821   C876    1.448   .     S
C822   H936    1.083   .     S
C822   C300    1.404   1_565 S
C823   O955    1.277   .     A
C823   O983    1.277   .     A
C824   O956    1.277   .     A
C824   O980    1.277   .     A
C825   O957    1.277   .     A
C825   O981    1.277   .     A
C826   O958    1.277   .     A
C826   O987    1.276   .     A
C827   O988    1.277   .     A
C827   O959    1.277   .     A
C828   O960    1.277   .     A
C828   O984    1.277   .     A
C828   C874    1.455   .     S
C829   C875    1.455   .     S
C829   O986    1.277   .     A
C829   O961    1.277   .     A
C830   O962    1.277   .     A
C830   O973    1.277   .     A
C831   O975    1.277   .     A
C831   O964    1.277   .     A
C832   O971    1.277   .     A
C832   O965    1.277   .     A
C833   H937    1.083   .     S
C833   C301    1.404   1_565 S
C834   O966    1.277   .     A
C834   O972    1.277   .     A
C835   O967    1.277   .     A
C835   O978    1.277   .     A
C836   O968    1.277   .     A
C836   O979    1.277   .     A
C837   O969    1.277   .     A
C837   O976    1.277   .     A
C838   O977    1.277   .     A
C838   O970    1.276   .     A
C839   Cl877   1.771   .     S
C839   C856    1.397   .     A
C840   C854    1.397   .     A
C840   Cl888   1.771   .     S
C841   Cl899   1.768   .     S
C841   C853    1.397   .     A
C842   Cl903   1.769   .     S
C842   C852    1.397   .     A
C843   C851    1.397   .     A
C843   Cl904   1.771   .     S
C844   H938    1.083   .     S
C844   C554    1.405   1_655 S
C845   C850    1.397   .     A
C845   Cl905   1.771   .     S
C846   Cl906   1.769   .     S
C846   C849    1.397   .     A
C847   C848    1.397   .     A
C847   Cl907   1.769   .     S
C848   Cl908   1.769   .     S
C849   Cl878   1.768   .     S
C850   Cl879   1.771   .     S
C851   Cl880   1.771   .     S
C852   Cl881   1.769   .     S
C853   Cl882   1.768   .     S
C853   C876    1.405   .     A
C854   C875    1.408   .     A
C854   Cl883   1.771   .     S
C855   H939    1.083   .     S
C855   C555    1.405   1_655 S
C856   C874    1.408   .     A
C856   Cl884   1.771   .     S
C857   C875    1.408   .     A
C857   C873    1.397   .     A
C857   Cl885   1.771   .     S
C858   C874    1.408   .     A
C858   C872    1.397   .     A
C858   Cl886   1.771   .     S
C859   C871    1.397   .     A
C859   Cl887   1.769   .     S
C860   C870    1.397   .     A
C860   Cl889   1.768   .     S
C860   C876    1.405   .     A
C861   C869    1.397   .     A
C861   Cl890   1.771   .     S
C862   C868    1.397   .     A
C862   Cl891   1.771   .     S
C863   Cl892   1.769   .     S
C863   C867    1.397   .     A
C864   C865    1.397   .     A
C864   Cl893   1.769   .     S
C865   Cl894   1.768   .     S
C866   H940    1.083   .     S
C866   C556    1.405   1_655 S
C867   Cl895   1.769   .     S
C868   Cl896   1.771   .     S
C869   Cl897   1.771   .     S
C870   Cl898   1.769   .     S
C871   Cl900   1.769   .     S
C872   Cl901   1.771   .     S
C873   Cl902   1.771   .     S
O941   Zn996   1.943   .     S
O941   Zn1004  1.943   .     S
O941   Zn993   1.943   .     S
O942   Zn995   1.941   .     S
O942   C310    1.280   1_565 S
O943   C563    1.280   1_655 A
O943   Zn998   1.942   .     S
O944   Zn997   1.942   .     S
O945   Zn1007  1.942   .     S
O946   Zn1006  1.942   .     S
O947   Zn1001  1.941   .     S
O948   Zn993   1.941   .     S
O949   Zn1003  1.941   .     S
O950   Zn1002  1.941   .     S
O951   Zn1005  1.942   .     S
O952   Zn1001  1.943   .     S
O952   Zn1005  1.943   .     S
O952   Zn999   1.943   .     S
O953   Zn1004  1.942   .     S
O954   Zn996   1.927   .     S
O955   Zn995   1.927   .     S
O956   Zn998   1.936   .     S
O957   Zn997   1.936   .     S
O958   Zn1000  1.927   .     S
O959   Zn999   1.927   .     S
O960   Zn994   1.936   .     S
O961   Zn1008  1.936   .     S
O962   Zn995   1.936   .     S
O963   Zn1006  1.943   .     S
O963   Zn994   1.943   .     S
O963   Zn1002  1.943   .     S
O964   Zn996   1.936   .     S
O965   Zn1008  1.927   .     S
O966   Zn994   1.927   .     S
O967   Zn999   1.936   .     S
O968   Zn1000  1.936   .     S
O969   Zn997   1.927   .     S
O970   Zn998   1.927   .     S
O971   Zn751   1.927   1_655 S
O972   Zn1002  1.927   .     S
O973   Zn501   1.936   1_565 S
O974   Zn1007  1.943   .     S
O974   Zn997   1.943   .     S
O974   Zn1003  1.943   .     S
O975   Zn1004  1.936   .     S
O976   Zn1007  1.927   .     S
O977   Zn754   1.927   1_655 S
O978   Zn1001  1.936   .     S
O979   Zn489   1.936   1_565 S
O980   Zn750   1.936   1_655 S
O981   Zn1003  1.936   .     S
O982   Zn993   1.927   .     S
O983   Zn497   1.927   1_565 S
O984   Zn1006  1.936   .     S
O985   Zn1000  1.942   .     S
O985   C309    1.280   1_565 A
O986   Zn755   1.936   1_655 S
O987   Zn500   1.927   1_565 S
O988   Zn1005  1.927   .     S
O989   Zn999   1.942   .     S
O990   Zn994   1.941   .     S
O991   Zn1008  1.941   .     S
O991   C564    1.280   1_655 S
O992   Zn996   1.941   .     S
Zn995  O448    1.943   1_565 S
Zn998  O711    1.943   1_655 S
Zn1000 O437    1.943   1_565 S
Zn1008 O722    1.943   1_655 S
