data_str_m2_o1_o16_pcu_sym.49
_audit_creation_date              2020-01-03
_audit_creation_method            'Materials Studio'
_symmetry_space_group_name_H-M    'P1'
_symmetry_Int_Tables_number       1
_symmetry_cell_setting            triclinic
loop_
_symmetry_equiv_pos_as_xyz
  x,y,z
_cell_length_a                    28.5636
_cell_length_b                    32.5056
_cell_length_c                    26.8296
_cell_angle_alpha                 89.3480
_cell_angle_beta                  72.3154
_cell_angle_gamma                 90.5385
loop_
_atom_site_label
_atom_site_type_symbol
_atom_site_fract_x
_atom_site_fract_y
_atom_site_fract_z
_atom_site_U_iso_or_equiv
_atom_site_adp_type
_atom_site_occupancy
O1     O     0.12708   0.22678   0.25000   0.00000  Uiso   1.00
O2     O     0.20627   0.22679   0.25000   0.00000  Uiso   1.00
C3     C     0.16705   0.24605   0.24985   0.00000  Uiso   1.00
O4     O     0.10775   0.16665   0.32549   0.00000  Uiso   1.00
O5     O     0.18694   0.16666   0.32549   0.00000  Uiso   1.00
C6     C     0.14025   0.16716   0.35022   0.00000  Uiso   1.00
Cu7    Cu    0.11978   0.16666   0.25000   0.00000  Uiso   1.00
Cu8    Cu    0.21355   0.16667   0.25000   0.00000  Uiso   1.00
O9     O     0.12706   0.10654   0.24999   0.00000  Uiso   1.00
O10    O     0.20625   0.10655   0.24999   0.00000  Uiso   1.00
O11    O     0.14640   0.16667   0.17451   0.00000  Uiso   1.00
O12    O     0.22559   0.16668   0.17451   0.00000  Uiso   1.00
C13    C     0.16633   0.08752   0.25043   0.00000  Uiso   1.00
C14    C     0.19300   0.16679   0.14980   0.00000  Uiso   1.00
C15    C     0.25537   0.21005   0.01586   0.00000  Uiso   1.00
H16    H     0.27682   0.20368   0.08520   0.00000  Uiso   1.00
H17    H     0.25546   0.23851   0.42307   0.00000  Uiso   1.00
H18    H     0.28763   0.22851   0.49615   0.00000  Uiso   1.00
C19    C     0.20782   0.17243   0.09284   0.00000  Uiso   1.00
C20    C     0.08051   0.14233   0.43198   0.00000  Uiso   1.00
C21    C     0.06467   0.13546   0.48579   0.00000  Uiso   1.00
C22    C     0.09407   0.14904   0.01642   0.00000  Uiso   1.00
C23    C     0.14087   0.16856   0.49168   0.00000  Uiso   1.00
C24    C     0.15217   0.18035   0.43806   0.00000  Uiso   1.00
C25    C     0.17729   0.17689   0.01727   0.00000  Uiso   1.00
C26    C     0.21916   0.20180   0.49167   0.00000  Uiso   1.00
C27    C     0.22473   0.21823   0.44213   0.00000  Uiso   1.00
C28    C     0.19168   0.20782   0.41578   0.00000  Uiso   1.00
C29    C     0.17498   0.16006   0.06646   0.00000  Uiso   1.00
C30    C     0.24946   0.19574   0.06645   0.00000  Uiso   1.00
C31    C     0.12353   0.16473   0.40779   0.00000  Uiso   1.00
H32    H     0.14829   0.13701   0.08568   0.00000  Uiso   1.00
H33    H     0.05909   0.12976   0.40849   0.00000  Uiso   1.00
H34    H     0.19723   0.22201   0.37777   0.00000  Uiso   1.00
C35    C     0.20995   0.31388   0.22180   0.00000  Uiso   1.00
C36    C     0.20880   0.02311   0.22312   0.00000  Uiso   1.00
H37    H     0.24093   0.04098   0.20156   0.00000  Uiso   1.00
C38    C     0.16615   0.04321   0.25037   0.00000  Uiso   1.00
C39    C     0.12417   0.02115   0.27826   0.00000  Uiso   1.00
H40    H     0.09169   0.03732   0.30064   0.00000  Uiso   1.00
C41    C     0.12489   0.31172   0.28034   0.00000  Uiso   1.00
C42    C     0.16761   0.29093   0.25084   0.00000  Uiso   1.00
C43    C     0.30001   0.19298   0.28097   0.00000  Uiso   1.00
H44    H     0.27460   0.21419   0.30563   0.00000  Uiso   1.00
C45    C     0.01625   0.19294   0.28099   0.00000  Uiso   1.00
H46    H     0.02801   0.21392   0.30591   0.00000  Uiso   1.00
N47    N     0.04931   0.16666   0.24998   0.00000  Uiso   1.00
C48    C     0.03324   0.14009   0.21942   0.00000  Uiso   1.00
H49    H     0.05866   0.11864   0.19524   0.00000  Uiso   1.00
C50    C     0.31702   0.14022   0.21921   0.00000  Uiso   1.00
H51    H     0.30517   0.11907   0.19448   0.00000  Uiso   1.00
N52    N     0.28402   0.16669   0.24999   0.00000  Uiso   1.00
N53    N     0.08309   0.29013   0.31462   0.00000  Uiso   1.00
O54    O     0.03888   0.30286   0.31941   0.00000  Uiso   1.00
O55    O     0.08926   0.26259   0.34758   0.00000  Uiso   1.00
N56    N     0.07336   0.14729   0.07217   0.00000  Uiso   1.00
O57    O     0.06252   0.11194   0.09645   0.00000  Uiso   1.00
O58    O     0.06600   0.18107   0.09887   0.00000  Uiso   1.00
S59    S     0.00853   0.10791   0.01303   0.00000  Uiso   1.00
O60    O     0.31378   0.12454   0.06548   0.00000  Uiso   1.00
O61    O     0.31055   0.11065   0.47709   0.00000  Uiso   1.00
O62    O     0.02163   0.05832   0.02037   0.00000  Uiso   1.00
H63    H     0.32270   0.04468   0.03685   0.00000  Uiso   1.00
S64    S     0.26420   0.29164   0.18080   0.00000  Uiso   1.00
O65    O     0.29294   0.27314   0.21380   0.00000  Uiso   1.00
O66    O     0.25044   0.25883   0.14883   0.00000  Uiso   1.00
O67    O     0.29947   0.32737   0.14021   0.00000  Uiso   1.00
H68    H     0.32798   0.31210   0.11816   0.00000  Uiso   1.00
O69    O     0.46042   0.22678   0.25000   0.00000  Uiso   1.00
O70    O     0.53961   0.22679   0.25000   0.00000  Uiso   1.00
C71    C     0.50038   0.24605   0.24985   0.00000  Uiso   1.00
O72    O     0.44108   0.16665   0.32549   0.00000  Uiso   1.00
O73    O     0.52027   0.16666   0.32549   0.00000  Uiso   1.00
C74    C     0.47359   0.16716   0.35022   0.00000  Uiso   1.00
Cu75   Cu    0.45311   0.16666   0.25000   0.00000  Uiso   1.00
Cu76   Cu    0.54689   0.16667   0.25000   0.00000  Uiso   1.00
O77    O     0.46039   0.10654   0.24999   0.00000  Uiso   1.00
O78    O     0.53958   0.10655   0.24999   0.00000  Uiso   1.00
O79    O     0.47973   0.16667   0.17451   0.00000  Uiso   1.00
O80    O     0.55892   0.16668   0.17451   0.00000  Uiso   1.00
C81    C     0.49966   0.08752   0.25043   0.00000  Uiso   1.00
C82    C     0.52634   0.16679   0.14980   0.00000  Uiso   1.00
C83    C     0.58870   0.21005   0.01586   0.00000  Uiso   1.00
H84    H     0.61016   0.20368   0.08520   0.00000  Uiso   1.00
H85    H     0.58880   0.23851   0.42307   0.00000  Uiso   1.00
H86    H     0.62096   0.22851   0.49615   0.00000  Uiso   1.00
C87    C     0.54115   0.17243   0.09284   0.00000  Uiso   1.00
C88    C     0.41384   0.14233   0.43198   0.00000  Uiso   1.00
C89    C     0.39801   0.13546   0.48579   0.00000  Uiso   1.00
C90    C     0.42740   0.14904   0.01642   0.00000  Uiso   1.00
C91    C     0.47420   0.16856   0.49168   0.00000  Uiso   1.00
C92    C     0.48551   0.18035   0.43806   0.00000  Uiso   1.00
C93    C     0.51062   0.17689   0.01727   0.00000  Uiso   1.00
C94    C     0.55250   0.20180   0.49167   0.00000  Uiso   1.00
C95    C     0.55806   0.21823   0.44213   0.00000  Uiso   1.00
C96    C     0.52501   0.20782   0.41578   0.00000  Uiso   1.00
C97    C     0.50831   0.16006   0.06646   0.00000  Uiso   1.00
C98    C     0.58279   0.19574   0.06645   0.00000  Uiso   1.00
C99    C     0.45686   0.16473   0.40779   0.00000  Uiso   1.00
H100   H     0.48162   0.13701   0.08568   0.00000  Uiso   1.00
H101   H     0.39242   0.12976   0.40849   0.00000  Uiso   1.00
H102   H     0.53056   0.22201   0.37777   0.00000  Uiso   1.00
C103   C     0.54328   0.31388   0.22180   0.00000  Uiso   1.00
C104   C     0.54213   0.02311   0.22312   0.00000  Uiso   1.00
H105   H     0.57426   0.04098   0.20156   0.00000  Uiso   1.00
C106   C     0.49948   0.04321   0.25037   0.00000  Uiso   1.00
C107   C     0.45751   0.02115   0.27826   0.00000  Uiso   1.00
H108   H     0.42502   0.03732   0.30064   0.00000  Uiso   1.00
C109   C     0.45822   0.31172   0.28034   0.00000  Uiso   1.00
C110   C     0.50094   0.29093   0.25084   0.00000  Uiso   1.00
C111   C     0.63335   0.19298   0.28097   0.00000  Uiso   1.00
H112   H     0.60794   0.21419   0.30563   0.00000  Uiso   1.00
C113   C     0.34958   0.19294   0.28099   0.00000  Uiso   1.00
H114   H     0.36134   0.21392   0.30591   0.00000  Uiso   1.00
N115   N     0.38265   0.16666   0.24998   0.00000  Uiso   1.00
C116   C     0.36657   0.14009   0.21942   0.00000  Uiso   1.00
H117   H     0.39200   0.11864   0.19524   0.00000  Uiso   1.00
C118   C     0.65035   0.14022   0.21921   0.00000  Uiso   1.00
H119   H     0.63850   0.11907   0.19448   0.00000  Uiso   1.00
N120   N     0.61735   0.16669   0.24999   0.00000  Uiso   1.00
N121   N     0.41642   0.29013   0.31462   0.00000  Uiso   1.00
O122   O     0.37221   0.30286   0.31941   0.00000  Uiso   1.00
O123   O     0.42260   0.26259   0.34758   0.00000  Uiso   1.00
N124   N     0.40669   0.14729   0.07217   0.00000  Uiso   1.00
O125   O     0.39585   0.11194   0.09645   0.00000  Uiso   1.00
O126   O     0.39934   0.18107   0.09887   0.00000  Uiso   1.00
S127   S     0.34187   0.10791   0.01303   0.00000  Uiso   1.00
O128   O     0.64712   0.12454   0.06548   0.00000  Uiso   1.00
O129   O     0.64388   0.11065   0.47709   0.00000  Uiso   1.00
O130   O     0.35496   0.05832   0.02037   0.00000  Uiso   1.00
H131   H     0.65603   0.04468   0.03685   0.00000  Uiso   1.00
S132   S     0.59754   0.29164   0.18080   0.00000  Uiso   1.00
O133   O     0.62627   0.27314   0.21380   0.00000  Uiso   1.00
O134   O     0.58377   0.25883   0.14883   0.00000  Uiso   1.00
O135   O     0.63281   0.32737   0.14021   0.00000  Uiso   1.00
H136   H     0.66131   0.31210   0.11816   0.00000  Uiso   1.00
O137   O     0.79375   0.22678   0.25000   0.00000  Uiso   1.00
O138   O     0.87294   0.22679   0.25000   0.00000  Uiso   1.00
C139   C     0.83372   0.24605   0.24985   0.00000  Uiso   1.00
O140   O     0.77441   0.16665   0.32549   0.00000  Uiso   1.00
O141   O     0.85360   0.16666   0.32549   0.00000  Uiso   1.00
C142   C     0.80692   0.16716   0.35022   0.00000  Uiso   1.00
Cu143  Cu    0.78645   0.16666   0.25000   0.00000  Uiso   1.00
Cu144  Cu    0.88022   0.16667   0.25000   0.00000  Uiso   1.00
O145   O     0.79373   0.10654   0.24999   0.00000  Uiso   1.00
O146   O     0.87292   0.10655   0.24999   0.00000  Uiso   1.00
O147   O     0.81306   0.16667   0.17451   0.00000  Uiso   1.00
O148   O     0.89225   0.16668   0.17451   0.00000  Uiso   1.00
C149   C     0.83299   0.08752   0.25043   0.00000  Uiso   1.00
C150   C     0.85967   0.16679   0.14980   0.00000  Uiso   1.00
C151   C     0.92204   0.21005   0.01586   0.00000  Uiso   1.00
H152   H     0.94349   0.20368   0.08520   0.00000  Uiso   1.00
H153   H     0.92213   0.23851   0.42307   0.00000  Uiso   1.00
H154   H     0.95429   0.22851   0.49615   0.00000  Uiso   1.00
C155   C     0.87449   0.17243   0.09284   0.00000  Uiso   1.00
C156   C     0.74717   0.14233   0.43198   0.00000  Uiso   1.00
C157   C     0.73134   0.13546   0.48579   0.00000  Uiso   1.00
C158   C     0.76074   0.14904   0.01642   0.00000  Uiso   1.00
C159   C     0.80754   0.16856   0.49168   0.00000  Uiso   1.00
C160   C     0.81884   0.18035   0.43806   0.00000  Uiso   1.00
C161   C     0.84395   0.17689   0.01727   0.00000  Uiso   1.00
C162   C     0.88583   0.20180   0.49167   0.00000  Uiso   1.00
C163   C     0.89139   0.21823   0.44213   0.00000  Uiso   1.00
C164   C     0.85835   0.20782   0.41578   0.00000  Uiso   1.00
C165   C     0.84164   0.16006   0.06646   0.00000  Uiso   1.00
C166   C     0.91613   0.19574   0.06645   0.00000  Uiso   1.00
C167   C     0.79019   0.16473   0.40779   0.00000  Uiso   1.00
H168   H     0.81496   0.13701   0.08568   0.00000  Uiso   1.00
H169   H     0.72576   0.12976   0.40849   0.00000  Uiso   1.00
H170   H     0.86389   0.22201   0.37777   0.00000  Uiso   1.00
C171   C     0.87662   0.31388   0.22180   0.00000  Uiso   1.00
C172   C     0.87547   0.02311   0.22312   0.00000  Uiso   1.00
H173   H     0.90759   0.04098   0.20156   0.00000  Uiso   1.00
C174   C     0.83282   0.04321   0.25037   0.00000  Uiso   1.00
C175   C     0.79084   0.02115   0.27826   0.00000  Uiso   1.00
H176   H     0.75836   0.03732   0.30064   0.00000  Uiso   1.00
C177   C     0.79156   0.31172   0.28034   0.00000  Uiso   1.00
C178   C     0.83428   0.29093   0.25084   0.00000  Uiso   1.00
C179   C     0.96668   0.19298   0.28097   0.00000  Uiso   1.00
H180   H     0.94127   0.21419   0.30563   0.00000  Uiso   1.00
C181   C     0.68291   0.19294   0.28099   0.00000  Uiso   1.00
H182   H     0.69468   0.21392   0.30591   0.00000  Uiso   1.00
N183   N     0.71598   0.16666   0.24998   0.00000  Uiso   1.00
C184   C     0.69990   0.14009   0.21942   0.00000  Uiso   1.00
H185   H     0.72533   0.11864   0.19524   0.00000  Uiso   1.00
C186   C     0.98369   0.14022   0.21921   0.00000  Uiso   1.00
H187   H     0.97184   0.11907   0.19448   0.00000  Uiso   1.00
N188   N     0.95069   0.16669   0.24999   0.00000  Uiso   1.00
N189   N     0.74975   0.29013   0.31462   0.00000  Uiso   1.00
O190   O     0.70555   0.30286   0.31941   0.00000  Uiso   1.00
O191   O     0.75593   0.26259   0.34758   0.00000  Uiso   1.00
N192   N     0.74003   0.14729   0.07217   0.00000  Uiso   1.00
O193   O     0.72918   0.11194   0.09645   0.00000  Uiso   1.00
O194   O     0.73267   0.18107   0.09887   0.00000  Uiso   1.00
S195   S     0.67520   0.10791   0.01303   0.00000  Uiso   1.00
O196   O     0.98045   0.12454   0.06548   0.00000  Uiso   1.00
O197   O     0.97721   0.11065   0.47709   0.00000  Uiso   1.00
O198   O     0.68829   0.05832   0.02037   0.00000  Uiso   1.00
H199   H     0.98937   0.04468   0.03685   0.00000  Uiso   1.00
S200   S     0.93087   0.29164   0.18080   0.00000  Uiso   1.00
O201   O     0.95960   0.27314   0.21380   0.00000  Uiso   1.00
O202   O     0.91711   0.25883   0.14883   0.00000  Uiso   1.00
O203   O     0.96614   0.32737   0.14021   0.00000  Uiso   1.00
H204   H     0.99465   0.31210   0.11816   0.00000  Uiso   1.00
O205   O     0.12708   0.56011   0.25000   0.00000  Uiso   1.00
O206   O     0.20627   0.56012   0.25000   0.00000  Uiso   1.00
C207   C     0.16705   0.57938   0.24985   0.00000  Uiso   1.00
O208   O     0.10775   0.49998   0.32549   0.00000  Uiso   1.00
O209   O     0.18694   0.49999   0.32549   0.00000  Uiso   1.00
C210   C     0.14025   0.50050   0.35022   0.00000  Uiso   1.00
Cu211  Cu    0.11978   0.49999   0.25000   0.00000  Uiso   1.00
Cu212  Cu    0.21355   0.50001   0.25000   0.00000  Uiso   1.00
O213   O     0.12706   0.43988   0.24999   0.00000  Uiso   1.00
O214   O     0.20625   0.43989   0.24999   0.00000  Uiso   1.00
O215   O     0.14640   0.50001   0.17451   0.00000  Uiso   1.00
O216   O     0.22559   0.50002   0.17451   0.00000  Uiso   1.00
C217   C     0.16633   0.42086   0.25043   0.00000  Uiso   1.00
C218   C     0.19300   0.50012   0.14980   0.00000  Uiso   1.00
C219   C     0.25537   0.54338   0.01586   0.00000  Uiso   1.00
H220   H     0.27682   0.53701   0.08520   0.00000  Uiso   1.00
H221   H     0.25546   0.57184   0.42307   0.00000  Uiso   1.00
H222   H     0.28763   0.56184   0.49615   0.00000  Uiso   1.00
C223   C     0.20782   0.50576   0.09284   0.00000  Uiso   1.00
C224   C     0.08051   0.47566   0.43198   0.00000  Uiso   1.00
C225   C     0.06467   0.46879   0.48579   0.00000  Uiso   1.00
C226   C     0.09407   0.48237   0.01642   0.00000  Uiso   1.00
C227   C     0.14087   0.50190   0.49168   0.00000  Uiso   1.00
C228   C     0.15217   0.51368   0.43806   0.00000  Uiso   1.00
C229   C     0.17729   0.51023   0.01727   0.00000  Uiso   1.00
C230   C     0.21916   0.53513   0.49167   0.00000  Uiso   1.00
C231   C     0.22473   0.55156   0.44213   0.00000  Uiso   1.00
C232   C     0.19168   0.54115   0.41578   0.00000  Uiso   1.00
C233   C     0.17498   0.49340   0.06646   0.00000  Uiso   1.00
C234   C     0.24946   0.52908   0.06645   0.00000  Uiso   1.00
C235   C     0.12353   0.49807   0.40779   0.00000  Uiso   1.00
H236   H     0.14829   0.47035   0.08568   0.00000  Uiso   1.00
H237   H     0.05909   0.46309   0.40849   0.00000  Uiso   1.00
H238   H     0.19723   0.55534   0.37777   0.00000  Uiso   1.00
C239   C     0.20995   0.64721   0.22180   0.00000  Uiso   1.00
C240   C     0.20880   0.35645   0.22312   0.00000  Uiso   1.00
H241   H     0.24093   0.37431   0.20156   0.00000  Uiso   1.00
C242   C     0.16615   0.37654   0.25037   0.00000  Uiso   1.00
C243   C     0.12417   0.35449   0.27826   0.00000  Uiso   1.00
H244   H     0.09169   0.37065   0.30064   0.00000  Uiso   1.00
C245   C     0.12489   0.64505   0.28034   0.00000  Uiso   1.00
C246   C     0.16761   0.62427   0.25084   0.00000  Uiso   1.00
C247   C     0.30001   0.52631   0.28097   0.00000  Uiso   1.00
H248   H     0.27460   0.54752   0.30563   0.00000  Uiso   1.00
C249   C     0.01625   0.52627   0.28099   0.00000  Uiso   1.00
H250   H     0.02801   0.54725   0.30591   0.00000  Uiso   1.00
N251   N     0.04931   0.49999   0.24998   0.00000  Uiso   1.00
C252   C     0.03324   0.47342   0.21942   0.00000  Uiso   1.00
H253   H     0.05866   0.45197   0.19524   0.00000  Uiso   1.00
C254   C     0.31702   0.47355   0.21921   0.00000  Uiso   1.00
H255   H     0.30517   0.45240   0.19448   0.00000  Uiso   1.00
N256   N     0.28402   0.50002   0.24999   0.00000  Uiso   1.00
N257   N     0.08309   0.62347   0.31462   0.00000  Uiso   1.00
O258   O     0.03888   0.63619   0.31941   0.00000  Uiso   1.00
O259   O     0.08926   0.59593   0.34758   0.00000  Uiso   1.00
N260   N     0.07336   0.48063   0.07217   0.00000  Uiso   1.00
O261   O     0.06252   0.44527   0.09645   0.00000  Uiso   1.00
O262   O     0.06600   0.51440   0.09887   0.00000  Uiso   1.00
S263   S     0.00853   0.44124   0.01303   0.00000  Uiso   1.00
O264   O     0.31378   0.45788   0.06548   0.00000  Uiso   1.00
O265   O     0.31055   0.44398   0.47709   0.00000  Uiso   1.00
O266   O     0.02163   0.39165   0.02037   0.00000  Uiso   1.00
H267   H     0.32270   0.37801   0.03685   0.00000  Uiso   1.00
S268   S     0.26420   0.62498   0.18080   0.00000  Uiso   1.00
O269   O     0.29294   0.60647   0.21380   0.00000  Uiso   1.00
O270   O     0.25044   0.59217   0.14883   0.00000  Uiso   1.00
O271   O     0.29947   0.66070   0.14021   0.00000  Uiso   1.00
H272   H     0.32798   0.64543   0.11816   0.00000  Uiso   1.00
O273   O     0.46042   0.56011   0.25000   0.00000  Uiso   1.00
O274   O     0.53961   0.56012   0.25000   0.00000  Uiso   1.00
C275   C     0.50038   0.57938   0.24985   0.00000  Uiso   1.00
O276   O     0.44108   0.49998   0.32549   0.00000  Uiso   1.00
O277   O     0.52027   0.49999   0.32549   0.00000  Uiso   1.00
C278   C     0.47359   0.50050   0.35022   0.00000  Uiso   1.00
Cu279  Cu    0.45311   0.49999   0.25000   0.00000  Uiso   1.00
Cu280  Cu    0.54689   0.50001   0.25000   0.00000  Uiso   1.00
O281   O     0.46039   0.43988   0.24999   0.00000  Uiso   1.00
O282   O     0.53958   0.43989   0.24999   0.00000  Uiso   1.00
O283   O     0.47973   0.50001   0.17451   0.00000  Uiso   1.00
O284   O     0.55892   0.50002   0.17451   0.00000  Uiso   1.00
C285   C     0.49966   0.42086   0.25043   0.00000  Uiso   1.00
C286   C     0.52634   0.50012   0.14980   0.00000  Uiso   1.00
C287   C     0.58870   0.54338   0.01586   0.00000  Uiso   1.00
H288   H     0.61016   0.53701   0.08520   0.00000  Uiso   1.00
H289   H     0.58880   0.57184   0.42307   0.00000  Uiso   1.00
H290   H     0.62096   0.56184   0.49615   0.00000  Uiso   1.00
C291   C     0.54115   0.50576   0.09284   0.00000  Uiso   1.00
C292   C     0.41384   0.47566   0.43198   0.00000  Uiso   1.00
C293   C     0.39801   0.46879   0.48579   0.00000  Uiso   1.00
C294   C     0.42740   0.48237   0.01642   0.00000  Uiso   1.00
C295   C     0.47420   0.50190   0.49168   0.00000  Uiso   1.00
C296   C     0.48551   0.51368   0.43806   0.00000  Uiso   1.00
C297   C     0.51062   0.51023   0.01727   0.00000  Uiso   1.00
C298   C     0.55250   0.53513   0.49167   0.00000  Uiso   1.00
C299   C     0.55806   0.55156   0.44213   0.00000  Uiso   1.00
C300   C     0.52501   0.54115   0.41578   0.00000  Uiso   1.00
C301   C     0.50831   0.49340   0.06646   0.00000  Uiso   1.00
C302   C     0.58279   0.52908   0.06645   0.00000  Uiso   1.00
C303   C     0.45686   0.49807   0.40779   0.00000  Uiso   1.00
H304   H     0.48162   0.47035   0.08568   0.00000  Uiso   1.00
H305   H     0.39242   0.46309   0.40849   0.00000  Uiso   1.00
H306   H     0.53056   0.55534   0.37777   0.00000  Uiso   1.00
C307   C     0.54328   0.64721   0.22180   0.00000  Uiso   1.00
C308   C     0.54213   0.35645   0.22312   0.00000  Uiso   1.00
H309   H     0.57426   0.37431   0.20156   0.00000  Uiso   1.00
C310   C     0.49948   0.37654   0.25037   0.00000  Uiso   1.00
C311   C     0.45751   0.35449   0.27826   0.00000  Uiso   1.00
H312   H     0.42502   0.37065   0.30064   0.00000  Uiso   1.00
C313   C     0.45822   0.64505   0.28034   0.00000  Uiso   1.00
C314   C     0.50094   0.62427   0.25084   0.00000  Uiso   1.00
C315   C     0.63335   0.52631   0.28097   0.00000  Uiso   1.00
H316   H     0.60794   0.54752   0.30563   0.00000  Uiso   1.00
C317   C     0.34958   0.52627   0.28099   0.00000  Uiso   1.00
H318   H     0.36134   0.54725   0.30591   0.00000  Uiso   1.00
N319   N     0.38265   0.49999   0.24998   0.00000  Uiso   1.00
C320   C     0.36657   0.47342   0.21942   0.00000  Uiso   1.00
H321   H     0.39200   0.45197   0.19524   0.00000  Uiso   1.00
C322   C     0.65035   0.47355   0.21921   0.00000  Uiso   1.00
H323   H     0.63850   0.45240   0.19448   0.00000  Uiso   1.00
N324   N     0.61735   0.50002   0.24999   0.00000  Uiso   1.00
N325   N     0.41642   0.62347   0.31462   0.00000  Uiso   1.00
O326   O     0.37221   0.63619   0.31941   0.00000  Uiso   1.00
O327   O     0.42260   0.59593   0.34758   0.00000  Uiso   1.00
N328   N     0.40669   0.48063   0.07217   0.00000  Uiso   1.00
O329   O     0.39585   0.44527   0.09645   0.00000  Uiso   1.00
O330   O     0.39934   0.51440   0.09887   0.00000  Uiso   1.00
S331   S     0.34187   0.44124   0.01303   0.00000  Uiso   1.00
O332   O     0.64712   0.45788   0.06548   0.00000  Uiso   1.00
O333   O     0.64388   0.44398   0.47709   0.00000  Uiso   1.00
O334   O     0.35496   0.39165   0.02037   0.00000  Uiso   1.00
H335   H     0.65603   0.37801   0.03685   0.00000  Uiso   1.00
S336   S     0.59754   0.62498   0.18080   0.00000  Uiso   1.00
O337   O     0.62627   0.60647   0.21380   0.00000  Uiso   1.00
O338   O     0.58377   0.59217   0.14883   0.00000  Uiso   1.00
O339   O     0.63281   0.66070   0.14021   0.00000  Uiso   1.00
H340   H     0.66131   0.64543   0.11816   0.00000  Uiso   1.00
O341   O     0.79375   0.56011   0.25000   0.00000  Uiso   1.00
O342   O     0.87294   0.56012   0.25000   0.00000  Uiso   1.00
C343   C     0.83372   0.57938   0.24985   0.00000  Uiso   1.00
O344   O     0.77441   0.49998   0.32549   0.00000  Uiso   1.00
O345   O     0.85360   0.49999   0.32549   0.00000  Uiso   1.00
C346   C     0.80692   0.50050   0.35022   0.00000  Uiso   1.00
Cu347  Cu    0.78645   0.49999   0.25000   0.00000  Uiso   1.00
Cu348  Cu    0.88022   0.50001   0.25000   0.00000  Uiso   1.00
O349   O     0.79373   0.43988   0.24999   0.00000  Uiso   1.00
O350   O     0.87292   0.43989   0.24999   0.00000  Uiso   1.00
O351   O     0.81306   0.50001   0.17451   0.00000  Uiso   1.00
O352   O     0.89225   0.50002   0.17451   0.00000  Uiso   1.00
C353   C     0.83299   0.42086   0.25043   0.00000  Uiso   1.00
C354   C     0.85967   0.50012   0.14980   0.00000  Uiso   1.00
C355   C     0.92204   0.54338   0.01586   0.00000  Uiso   1.00
H356   H     0.94349   0.53701   0.08520   0.00000  Uiso   1.00
H357   H     0.92213   0.57184   0.42307   0.00000  Uiso   1.00
H358   H     0.95429   0.56184   0.49615   0.00000  Uiso   1.00
C359   C     0.87449   0.50576   0.09284   0.00000  Uiso   1.00
C360   C     0.74717   0.47566   0.43198   0.00000  Uiso   1.00
C361   C     0.73134   0.46879   0.48579   0.00000  Uiso   1.00
C362   C     0.76074   0.48237   0.01642   0.00000  Uiso   1.00
C363   C     0.80754   0.50190   0.49168   0.00000  Uiso   1.00
C364   C     0.81884   0.51368   0.43806   0.00000  Uiso   1.00
C365   C     0.84395   0.51023   0.01727   0.00000  Uiso   1.00
C366   C     0.88583   0.53513   0.49167   0.00000  Uiso   1.00
C367   C     0.89139   0.55156   0.44213   0.00000  Uiso   1.00
C368   C     0.85835   0.54115   0.41578   0.00000  Uiso   1.00
C369   C     0.84164   0.49340   0.06646   0.00000  Uiso   1.00
C370   C     0.91613   0.52908   0.06645   0.00000  Uiso   1.00
C371   C     0.79019   0.49807   0.40779   0.00000  Uiso   1.00
H372   H     0.81496   0.47035   0.08568   0.00000  Uiso   1.00
H373   H     0.72576   0.46309   0.40849   0.00000  Uiso   1.00
H374   H     0.86389   0.55534   0.37777   0.00000  Uiso   1.00
C375   C     0.87662   0.64721   0.22180   0.00000  Uiso   1.00
C376   C     0.87547   0.35645   0.22312   0.00000  Uiso   1.00
H377   H     0.90759   0.37431   0.20156   0.00000  Uiso   1.00
C378   C     0.83282   0.37654   0.25037   0.00000  Uiso   1.00
C379   C     0.79084   0.35449   0.27826   0.00000  Uiso   1.00
H380   H     0.75836   0.37065   0.30064   0.00000  Uiso   1.00
C381   C     0.79156   0.64505   0.28034   0.00000  Uiso   1.00
C382   C     0.83428   0.62427   0.25084   0.00000  Uiso   1.00
C383   C     0.96668   0.52631   0.28097   0.00000  Uiso   1.00
H384   H     0.94127   0.54752   0.30563   0.00000  Uiso   1.00
C385   C     0.68291   0.52627   0.28099   0.00000  Uiso   1.00
H386   H     0.69468   0.54725   0.30591   0.00000  Uiso   1.00
N387   N     0.71598   0.49999   0.24998   0.00000  Uiso   1.00
C388   C     0.69990   0.47342   0.21942   0.00000  Uiso   1.00
H389   H     0.72533   0.45197   0.19524   0.00000  Uiso   1.00
C390   C     0.98369   0.47355   0.21921   0.00000  Uiso   1.00
H391   H     0.97184   0.45240   0.19448   0.00000  Uiso   1.00
N392   N     0.95069   0.50002   0.24999   0.00000  Uiso   1.00
N393   N     0.74975   0.62347   0.31462   0.00000  Uiso   1.00
O394   O     0.70555   0.63619   0.31941   0.00000  Uiso   1.00
O395   O     0.75593   0.59593   0.34758   0.00000  Uiso   1.00
N396   N     0.74003   0.48063   0.07217   0.00000  Uiso   1.00
O397   O     0.72918   0.44527   0.09645   0.00000  Uiso   1.00
O398   O     0.73267   0.51440   0.09887   0.00000  Uiso   1.00
S399   S     0.67520   0.44124   0.01303   0.00000  Uiso   1.00
O400   O     0.98045   0.45788   0.06548   0.00000  Uiso   1.00
O401   O     0.97721   0.44398   0.47709   0.00000  Uiso   1.00
O402   O     0.68829   0.39165   0.02037   0.00000  Uiso   1.00
H403   H     0.98937   0.37801   0.03685   0.00000  Uiso   1.00
S404   S     0.93087   0.62498   0.18080   0.00000  Uiso   1.00
O405   O     0.95960   0.60647   0.21380   0.00000  Uiso   1.00
O406   O     0.91711   0.59217   0.14883   0.00000  Uiso   1.00
O407   O     0.96614   0.66070   0.14021   0.00000  Uiso   1.00
H408   H     0.99465   0.64543   0.11816   0.00000  Uiso   1.00
O409   O     0.12708   0.89345   0.25000   0.00000  Uiso   1.00
O410   O     0.20627   0.89346   0.25000   0.00000  Uiso   1.00
C411   C     0.16705   0.91271   0.24985   0.00000  Uiso   1.00
O412   O     0.10775   0.83332   0.32549   0.00000  Uiso   1.00
O413   O     0.18694   0.83333   0.32549   0.00000  Uiso   1.00
C414   C     0.14025   0.83383   0.35022   0.00000  Uiso   1.00
Cu415  Cu    0.11978   0.83333   0.25000   0.00000  Uiso   1.00
Cu416  Cu    0.21355   0.83334   0.25000   0.00000  Uiso   1.00
O417   O     0.12706   0.77321   0.24999   0.00000  Uiso   1.00
O418   O     0.20625   0.77322   0.24999   0.00000  Uiso   1.00
O419   O     0.14640   0.83334   0.17451   0.00000  Uiso   1.00
O420   O     0.22559   0.83335   0.17451   0.00000  Uiso   1.00
C421   C     0.16633   0.75419   0.25043   0.00000  Uiso   1.00
C422   C     0.19300   0.83345   0.14980   0.00000  Uiso   1.00
C423   C     0.25537   0.87672   0.01586   0.00000  Uiso   1.00
H424   H     0.27682   0.87035   0.08520   0.00000  Uiso   1.00
H425   H     0.25546   0.90518   0.42307   0.00000  Uiso   1.00
H426   H     0.28763   0.89518   0.49615   0.00000  Uiso   1.00
C427   C     0.20782   0.83909   0.09284   0.00000  Uiso   1.00
C428   C     0.08051   0.80899   0.43198   0.00000  Uiso   1.00
C429   C     0.06467   0.80213   0.48579   0.00000  Uiso   1.00
C430   C     0.09407   0.81570   0.01642   0.00000  Uiso   1.00
C431   C     0.14087   0.83523   0.49168   0.00000  Uiso   1.00
C432   C     0.15217   0.84701   0.43806   0.00000  Uiso   1.00
C433   C     0.17729   0.84356   0.01727   0.00000  Uiso   1.00
C434   C     0.21916   0.86847   0.49167   0.00000  Uiso   1.00
C435   C     0.22473   0.88489   0.44213   0.00000  Uiso   1.00
C436   C     0.19168   0.87448   0.41578   0.00000  Uiso   1.00
C437   C     0.17498   0.82673   0.06646   0.00000  Uiso   1.00
C438   C     0.24946   0.86241   0.06645   0.00000  Uiso   1.00
C439   C     0.12353   0.83140   0.40779   0.00000  Uiso   1.00
H440   H     0.14829   0.80368   0.08568   0.00000  Uiso   1.00
H441   H     0.05909   0.79642   0.40849   0.00000  Uiso   1.00
H442   H     0.19723   0.88867   0.37777   0.00000  Uiso   1.00
C443   C     0.20995   0.98055   0.22180   0.00000  Uiso   1.00
C444   C     0.20880   0.68978   0.22312   0.00000  Uiso   1.00
H445   H     0.24093   0.70765   0.20156   0.00000  Uiso   1.00
C446   C     0.16615   0.70987   0.25037   0.00000  Uiso   1.00
C447   C     0.12417   0.68782   0.27826   0.00000  Uiso   1.00
H448   H     0.09169   0.70398   0.30064   0.00000  Uiso   1.00
C449   C     0.12489   0.97839   0.28034   0.00000  Uiso   1.00
C450   C     0.16761   0.95760   0.25084   0.00000  Uiso   1.00
C451   C     0.30001   0.85964   0.28097   0.00000  Uiso   1.00
H452   H     0.27460   0.88085   0.30563   0.00000  Uiso   1.00
C453   C     0.01625   0.85960   0.28099   0.00000  Uiso   1.00
H454   H     0.02801   0.88059   0.30591   0.00000  Uiso   1.00
N455   N     0.04931   0.83332   0.24998   0.00000  Uiso   1.00
C456   C     0.03324   0.80675   0.21942   0.00000  Uiso   1.00
H457   H     0.05866   0.78531   0.19524   0.00000  Uiso   1.00
C458   C     0.31702   0.80689   0.21921   0.00000  Uiso   1.00
H459   H     0.30517   0.78573   0.19448   0.00000  Uiso   1.00
N460   N     0.28402   0.83335   0.24999   0.00000  Uiso   1.00
N461   N     0.08309   0.95680   0.31462   0.00000  Uiso   1.00
O462   O     0.03888   0.96953   0.31941   0.00000  Uiso   1.00
O463   O     0.08926   0.92926   0.34758   0.00000  Uiso   1.00
N464   N     0.07336   0.81396   0.07217   0.00000  Uiso   1.00
O465   O     0.06252   0.77861   0.09645   0.00000  Uiso   1.00
O466   O     0.06600   0.84773   0.09887   0.00000  Uiso   1.00
S467   S     0.00853   0.77458   0.01303   0.00000  Uiso   1.00
O468   O     0.31378   0.79121   0.06548   0.00000  Uiso   1.00
O469   O     0.31055   0.77732   0.47709   0.00000  Uiso   1.00
O470   O     0.02163   0.72498   0.02037   0.00000  Uiso   1.00
H471   H     0.32270   0.71135   0.03685   0.00000  Uiso   1.00
S472   S     0.26420   0.95831   0.18080   0.00000  Uiso   1.00
O473   O     0.29294   0.93980   0.21380   0.00000  Uiso   1.00
O474   O     0.25044   0.92550   0.14883   0.00000  Uiso   1.00
O475   O     0.29947   0.99404   0.14021   0.00000  Uiso   1.00
H476   H     0.32798   0.97876   0.11816   0.00000  Uiso   1.00
O477   O     0.46042   0.89345   0.25000   0.00000  Uiso   1.00
O478   O     0.53961   0.89346   0.25000   0.00000  Uiso   1.00
C479   C     0.50038   0.91271   0.24985   0.00000  Uiso   1.00
O480   O     0.44108   0.83332   0.32549   0.00000  Uiso   1.00
O481   O     0.52027   0.83333   0.32549   0.00000  Uiso   1.00
C482   C     0.47359   0.83383   0.35022   0.00000  Uiso   1.00
Cu483  Cu    0.45311   0.83333   0.25000   0.00000  Uiso   1.00
Cu484  Cu    0.54689   0.83334   0.25000   0.00000  Uiso   1.00
O485   O     0.46039   0.77321   0.24999   0.00000  Uiso   1.00
O486   O     0.53958   0.77322   0.24999   0.00000  Uiso   1.00
O487   O     0.47973   0.83334   0.17451   0.00000  Uiso   1.00
O488   O     0.55892   0.83335   0.17451   0.00000  Uiso   1.00
C489   C     0.49966   0.75419   0.25043   0.00000  Uiso   1.00
C490   C     0.52634   0.83345   0.14980   0.00000  Uiso   1.00
C491   C     0.58870   0.87672   0.01586   0.00000  Uiso   1.00
H492   H     0.61016   0.87035   0.08520   0.00000  Uiso   1.00
H493   H     0.58880   0.90518   0.42307   0.00000  Uiso   1.00
H494   H     0.62096   0.89518   0.49615   0.00000  Uiso   1.00
C495   C     0.54115   0.83909   0.09284   0.00000  Uiso   1.00
C496   C     0.41384   0.80899   0.43198   0.00000  Uiso   1.00
C497   C     0.39801   0.80213   0.48579   0.00000  Uiso   1.00
C498   C     0.42740   0.81570   0.01642   0.00000  Uiso   1.00
C499   C     0.47420   0.83523   0.49168   0.00000  Uiso   1.00
C500   C     0.48551   0.84701   0.43806   0.00000  Uiso   1.00
C501   C     0.51062   0.84356   0.01727   0.00000  Uiso   1.00
C502   C     0.55250   0.86847   0.49167   0.00000  Uiso   1.00
C503   C     0.55806   0.88489   0.44213   0.00000  Uiso   1.00
C504   C     0.52501   0.87448   0.41578   0.00000  Uiso   1.00
C505   C     0.50831   0.82673   0.06646   0.00000  Uiso   1.00
C506   C     0.58279   0.86241   0.06645   0.00000  Uiso   1.00
C507   C     0.45686   0.83140   0.40779   0.00000  Uiso   1.00
H508   H     0.48162   0.80368   0.08568   0.00000  Uiso   1.00
H509   H     0.39242   0.79642   0.40849   0.00000  Uiso   1.00
H510   H     0.53056   0.88867   0.37777   0.00000  Uiso   1.00
C511   C     0.54328   0.98055   0.22180   0.00000  Uiso   1.00
C512   C     0.54213   0.68978   0.22312   0.00000  Uiso   1.00
H513   H     0.57426   0.70765   0.20156   0.00000  Uiso   1.00
C514   C     0.49948   0.70987   0.25037   0.00000  Uiso   1.00
C515   C     0.45751   0.68782   0.27826   0.00000  Uiso   1.00
H516   H     0.42502   0.70398   0.30064   0.00000  Uiso   1.00
C517   C     0.45822   0.97839   0.28034   0.00000  Uiso   1.00
C518   C     0.50094   0.95760   0.25084   0.00000  Uiso   1.00
C519   C     0.63335   0.85964   0.28097   0.00000  Uiso   1.00
H520   H     0.60794   0.88085   0.30563   0.00000  Uiso   1.00
C521   C     0.34958   0.85960   0.28099   0.00000  Uiso   1.00
H522   H     0.36134   0.88059   0.30591   0.00000  Uiso   1.00
N523   N     0.38265   0.83332   0.24998   0.00000  Uiso   1.00
C524   C     0.36657   0.80675   0.21942   0.00000  Uiso   1.00
H525   H     0.39200   0.78531   0.19524   0.00000  Uiso   1.00
C526   C     0.65035   0.80689   0.21921   0.00000  Uiso   1.00
H527   H     0.63850   0.78573   0.19448   0.00000  Uiso   1.00
N528   N     0.61735   0.83335   0.24999   0.00000  Uiso   1.00
N529   N     0.41642   0.95680   0.31462   0.00000  Uiso   1.00
O530   O     0.37221   0.96953   0.31941   0.00000  Uiso   1.00
O531   O     0.42260   0.92926   0.34758   0.00000  Uiso   1.00
N532   N     0.40669   0.81396   0.07217   0.00000  Uiso   1.00
O533   O     0.39585   0.77861   0.09645   0.00000  Uiso   1.00
O534   O     0.39934   0.84773   0.09887   0.00000  Uiso   1.00
S535   S     0.34187   0.77458   0.01303   0.00000  Uiso   1.00
O536   O     0.64712   0.79121   0.06548   0.00000  Uiso   1.00
O537   O     0.64388   0.77732   0.47709   0.00000  Uiso   1.00
O538   O     0.35496   0.72498   0.02037   0.00000  Uiso   1.00
H539   H     0.65603   0.71135   0.03685   0.00000  Uiso   1.00
S540   S     0.59754   0.95831   0.18080   0.00000  Uiso   1.00
O541   O     0.62627   0.93980   0.21380   0.00000  Uiso   1.00
O542   O     0.58377   0.92550   0.14883   0.00000  Uiso   1.00
O543   O     0.63281   0.99404   0.14021   0.00000  Uiso   1.00
H544   H     0.66131   0.97876   0.11816   0.00000  Uiso   1.00
O545   O     0.79375   0.89345   0.25000   0.00000  Uiso   1.00
O546   O     0.87294   0.89346   0.25000   0.00000  Uiso   1.00
C547   C     0.83372   0.91271   0.24985   0.00000  Uiso   1.00
O548   O     0.77441   0.83332   0.32549   0.00000  Uiso   1.00
O549   O     0.85360   0.83333   0.32549   0.00000  Uiso   1.00
C550   C     0.80692   0.83383   0.35022   0.00000  Uiso   1.00
Cu551  Cu    0.78645   0.83333   0.25000   0.00000  Uiso   1.00
Cu552  Cu    0.88022   0.83334   0.25000   0.00000  Uiso   1.00
O553   O     0.79373   0.77321   0.24999   0.00000  Uiso   1.00
O554   O     0.87292   0.77322   0.24999   0.00000  Uiso   1.00
O555   O     0.81306   0.83334   0.17451   0.00000  Uiso   1.00
O556   O     0.89225   0.83335   0.17451   0.00000  Uiso   1.00
C557   C     0.83299   0.75419   0.25043   0.00000  Uiso   1.00
C558   C     0.85967   0.83345   0.14980   0.00000  Uiso   1.00
C559   C     0.92204   0.87672   0.01586   0.00000  Uiso   1.00
H560   H     0.94349   0.87035   0.08520   0.00000  Uiso   1.00
H561   H     0.92213   0.90518   0.42307   0.00000  Uiso   1.00
H562   H     0.95429   0.89518   0.49615   0.00000  Uiso   1.00
C563   C     0.87449   0.83909   0.09284   0.00000  Uiso   1.00
C564   C     0.74717   0.80899   0.43198   0.00000  Uiso   1.00
C565   C     0.73134   0.80213   0.48579   0.00000  Uiso   1.00
C566   C     0.76074   0.81570   0.01642   0.00000  Uiso   1.00
C567   C     0.80754   0.83523   0.49168   0.00000  Uiso   1.00
C568   C     0.81884   0.84701   0.43806   0.00000  Uiso   1.00
C569   C     0.84395   0.84356   0.01727   0.00000  Uiso   1.00
C570   C     0.88583   0.86847   0.49167   0.00000  Uiso   1.00
C571   C     0.89139   0.88489   0.44213   0.00000  Uiso   1.00
C572   C     0.85835   0.87448   0.41578   0.00000  Uiso   1.00
C573   C     0.84164   0.82673   0.06646   0.00000  Uiso   1.00
C574   C     0.91613   0.86241   0.06645   0.00000  Uiso   1.00
C575   C     0.79019   0.83140   0.40779   0.00000  Uiso   1.00
H576   H     0.81496   0.80368   0.08568   0.00000  Uiso   1.00
H577   H     0.72576   0.79642   0.40849   0.00000  Uiso   1.00
H578   H     0.86389   0.88867   0.37777   0.00000  Uiso   1.00
C579   C     0.87662   0.98055   0.22180   0.00000  Uiso   1.00
C580   C     0.87547   0.68978   0.22312   0.00000  Uiso   1.00
H581   H     0.90759   0.70765   0.20156   0.00000  Uiso   1.00
C582   C     0.83282   0.70987   0.25037   0.00000  Uiso   1.00
C583   C     0.79084   0.68782   0.27826   0.00000  Uiso   1.00
H584   H     0.75836   0.70398   0.30064   0.00000  Uiso   1.00
C585   C     0.79156   0.97839   0.28034   0.00000  Uiso   1.00
C586   C     0.83428   0.95760   0.25084   0.00000  Uiso   1.00
C587   C     0.96668   0.85964   0.28097   0.00000  Uiso   1.00
H588   H     0.94127   0.88085   0.30563   0.00000  Uiso   1.00
C589   C     0.68291   0.85960   0.28099   0.00000  Uiso   1.00
H590   H     0.69468   0.88059   0.30591   0.00000  Uiso   1.00
N591   N     0.71598   0.83332   0.24998   0.00000  Uiso   1.00
C592   C     0.69990   0.80675   0.21942   0.00000  Uiso   1.00
H593   H     0.72533   0.78531   0.19524   0.00000  Uiso   1.00
C594   C     0.98369   0.80689   0.21921   0.00000  Uiso   1.00
H595   H     0.97184   0.78573   0.19448   0.00000  Uiso   1.00
N596   N     0.95069   0.83335   0.24999   0.00000  Uiso   1.00
N597   N     0.74975   0.95680   0.31462   0.00000  Uiso   1.00
O598   O     0.70555   0.96953   0.31941   0.00000  Uiso   1.00
O599   O     0.75593   0.92926   0.34758   0.00000  Uiso   1.00
N600   N     0.74003   0.81396   0.07217   0.00000  Uiso   1.00
O601   O     0.72918   0.77861   0.09645   0.00000  Uiso   1.00
O602   O     0.73267   0.84773   0.09887   0.00000  Uiso   1.00
S603   S     0.67520   0.77458   0.01303   0.00000  Uiso   1.00
O604   O     0.98045   0.79121   0.06548   0.00000  Uiso   1.00
O605   O     0.97721   0.77732   0.47709   0.00000  Uiso   1.00
O606   O     0.68829   0.72498   0.02037   0.00000  Uiso   1.00
H607   H     0.98937   0.71135   0.03685   0.00000  Uiso   1.00
S608   S     0.93087   0.95831   0.18080   0.00000  Uiso   1.00
O609   O     0.95960   0.93980   0.21380   0.00000  Uiso   1.00
O610   O     0.91711   0.92550   0.14883   0.00000  Uiso   1.00
O611   O     0.96614   0.99404   0.14021   0.00000  Uiso   1.00
H612   H     0.99465   0.97876   0.11816   0.00000  Uiso   1.00
O613   O     0.12708   0.22678   0.75000   0.00000  Uiso   1.00
O614   O     0.20627   0.22679   0.75000   0.00000  Uiso   1.00
C615   C     0.16705   0.24605   0.74985   0.00000  Uiso   1.00
O616   O     0.10775   0.16665   0.82549   0.00000  Uiso   1.00
O617   O     0.18694   0.16666   0.82549   0.00000  Uiso   1.00
C618   C     0.14025   0.16716   0.85022   0.00000  Uiso   1.00
Cu619  Cu    0.11978   0.16666   0.75000   0.00000  Uiso   1.00
Cu620  Cu    0.21355   0.16667   0.75000   0.00000  Uiso   1.00
O621   O     0.12706   0.10654   0.74999   0.00000  Uiso   1.00
O622   O     0.20625   0.10655   0.74999   0.00000  Uiso   1.00
O623   O     0.14640   0.16667   0.67451   0.00000  Uiso   1.00
O624   O     0.22559   0.16668   0.67451   0.00000  Uiso   1.00
C625   C     0.16633   0.08752   0.75043   0.00000  Uiso   1.00
C626   C     0.19300   0.16679   0.64980   0.00000  Uiso   1.00
C627   C     0.25537   0.21005   0.51586   0.00000  Uiso   1.00
H628   H     0.27682   0.20368   0.58520   0.00000  Uiso   1.00
H629   H     0.25546   0.23851   0.92307   0.00000  Uiso   1.00
H630   H     0.28763   0.22851   0.99615   0.00000  Uiso   1.00
C631   C     0.20782   0.17243   0.59284   0.00000  Uiso   1.00
C632   C     0.08051   0.14233   0.93198   0.00000  Uiso   1.00
C633   C     0.06467   0.13546   0.98579   0.00000  Uiso   1.00
C634   C     0.09407   0.14904   0.51642   0.00000  Uiso   1.00
C635   C     0.14087   0.16856   0.99168   0.00000  Uiso   1.00
C636   C     0.15217   0.18035   0.93806   0.00000  Uiso   1.00
C637   C     0.17729   0.17689   0.51727   0.00000  Uiso   1.00
C638   C     0.21916   0.20180   0.99167   0.00000  Uiso   1.00
C639   C     0.22473   0.21823   0.94213   0.00000  Uiso   1.00
C640   C     0.19168   0.20782   0.91578   0.00000  Uiso   1.00
C641   C     0.17498   0.16006   0.56646   0.00000  Uiso   1.00
C642   C     0.24946   0.19574   0.56645   0.00000  Uiso   1.00
C643   C     0.12353   0.16473   0.90779   0.00000  Uiso   1.00
H644   H     0.14829   0.13701   0.58568   0.00000  Uiso   1.00
H645   H     0.05909   0.12976   0.90849   0.00000  Uiso   1.00
H646   H     0.19723   0.22201   0.87777   0.00000  Uiso   1.00
C647   C     0.20995   0.31388   0.72180   0.00000  Uiso   1.00
C648   C     0.20880   0.02311   0.72312   0.00000  Uiso   1.00
H649   H     0.24093   0.04098   0.70156   0.00000  Uiso   1.00
C650   C     0.16615   0.04321   0.75037   0.00000  Uiso   1.00
C651   C     0.12417   0.02115   0.77826   0.00000  Uiso   1.00
H652   H     0.09169   0.03732   0.80064   0.00000  Uiso   1.00
C653   C     0.12489   0.31172   0.78034   0.00000  Uiso   1.00
C654   C     0.16761   0.29093   0.75084   0.00000  Uiso   1.00
C655   C     0.30001   0.19298   0.78097   0.00000  Uiso   1.00
H656   H     0.27460   0.21419   0.80563   0.00000  Uiso   1.00
C657   C     0.01625   0.19294   0.78099   0.00000  Uiso   1.00
H658   H     0.02801   0.21392   0.80591   0.00000  Uiso   1.00
N659   N     0.04931   0.16666   0.74998   0.00000  Uiso   1.00
C660   C     0.03324   0.14009   0.71942   0.00000  Uiso   1.00
H661   H     0.05866   0.11864   0.69524   0.00000  Uiso   1.00
C662   C     0.31702   0.14022   0.71921   0.00000  Uiso   1.00
H663   H     0.30517   0.11907   0.69448   0.00000  Uiso   1.00
N664   N     0.28402   0.16669   0.74999   0.00000  Uiso   1.00
N665   N     0.08309   0.29013   0.81462   0.00000  Uiso   1.00
O666   O     0.03888   0.30286   0.81941   0.00000  Uiso   1.00
O667   O     0.08926   0.26259   0.84758   0.00000  Uiso   1.00
N668   N     0.07336   0.14729   0.57217   0.00000  Uiso   1.00
O669   O     0.06252   0.11194   0.59645   0.00000  Uiso   1.00
O670   O     0.06600   0.18107   0.59887   0.00000  Uiso   1.00
S671   S     0.00853   0.10791   0.51303   0.00000  Uiso   1.00
O672   O     0.31378   0.12454   0.56548   0.00000  Uiso   1.00
O673   O     0.31055   0.11065   0.97709   0.00000  Uiso   1.00
O674   O     0.02163   0.05832   0.52037   0.00000  Uiso   1.00
H675   H     0.32270   0.04468   0.53685   0.00000  Uiso   1.00
S676   S     0.26420   0.29164   0.68080   0.00000  Uiso   1.00
O677   O     0.29294   0.27314   0.71380   0.00000  Uiso   1.00
O678   O     0.25044   0.25883   0.64883   0.00000  Uiso   1.00
O679   O     0.29947   0.32737   0.64021   0.00000  Uiso   1.00
H680   H     0.32798   0.31210   0.61816   0.00000  Uiso   1.00
O681   O     0.46042   0.22678   0.75000   0.00000  Uiso   1.00
O682   O     0.53961   0.22679   0.75000   0.00000  Uiso   1.00
C683   C     0.50038   0.24605   0.74985   0.00000  Uiso   1.00
O684   O     0.44108   0.16665   0.82549   0.00000  Uiso   1.00
O685   O     0.52027   0.16666   0.82549   0.00000  Uiso   1.00
C686   C     0.47359   0.16716   0.85022   0.00000  Uiso   1.00
Cu687  Cu    0.45311   0.16666   0.75000   0.00000  Uiso   1.00
Cu688  Cu    0.54689   0.16667   0.75000   0.00000  Uiso   1.00
O689   O     0.46039   0.10654   0.74999   0.00000  Uiso   1.00
O690   O     0.53958   0.10655   0.74999   0.00000  Uiso   1.00
O691   O     0.47973   0.16667   0.67451   0.00000  Uiso   1.00
O692   O     0.55892   0.16668   0.67451   0.00000  Uiso   1.00
C693   C     0.49966   0.08752   0.75043   0.00000  Uiso   1.00
C694   C     0.52634   0.16679   0.64980   0.00000  Uiso   1.00
C695   C     0.58870   0.21005   0.51586   0.00000  Uiso   1.00
H696   H     0.61016   0.20368   0.58520   0.00000  Uiso   1.00
H697   H     0.58880   0.23851   0.92307   0.00000  Uiso   1.00
H698   H     0.62096   0.22851   0.99615   0.00000  Uiso   1.00
C699   C     0.54115   0.17243   0.59284   0.00000  Uiso   1.00
C700   C     0.41384   0.14233   0.93198   0.00000  Uiso   1.00
C701   C     0.39801   0.13546   0.98579   0.00000  Uiso   1.00
C702   C     0.42740   0.14904   0.51642   0.00000  Uiso   1.00
C703   C     0.47420   0.16856   0.99168   0.00000  Uiso   1.00
C704   C     0.48551   0.18035   0.93806   0.00000  Uiso   1.00
C705   C     0.51062   0.17689   0.51727   0.00000  Uiso   1.00
C706   C     0.55250   0.20180   0.99167   0.00000  Uiso   1.00
C707   C     0.55806   0.21823   0.94213   0.00000  Uiso   1.00
C708   C     0.52501   0.20782   0.91578   0.00000  Uiso   1.00
C709   C     0.50831   0.16006   0.56646   0.00000  Uiso   1.00
C710   C     0.58279   0.19574   0.56645   0.00000  Uiso   1.00
C711   C     0.45686   0.16473   0.90779   0.00000  Uiso   1.00
H712   H     0.48162   0.13701   0.58568   0.00000  Uiso   1.00
H713   H     0.39242   0.12976   0.90849   0.00000  Uiso   1.00
H714   H     0.53056   0.22201   0.87777   0.00000  Uiso   1.00
C715   C     0.54328   0.31388   0.72180   0.00000  Uiso   1.00
C716   C     0.54213   0.02311   0.72312   0.00000  Uiso   1.00
H717   H     0.57426   0.04098   0.70156   0.00000  Uiso   1.00
C718   C     0.49948   0.04321   0.75037   0.00000  Uiso   1.00
C719   C     0.45751   0.02115   0.77826   0.00000  Uiso   1.00
H720   H     0.42502   0.03732   0.80064   0.00000  Uiso   1.00
C721   C     0.45822   0.31172   0.78034   0.00000  Uiso   1.00
C722   C     0.50094   0.29093   0.75084   0.00000  Uiso   1.00
C723   C     0.63335   0.19298   0.78097   0.00000  Uiso   1.00
H724   H     0.60794   0.21419   0.80563   0.00000  Uiso   1.00
C725   C     0.34958   0.19294   0.78099   0.00000  Uiso   1.00
H726   H     0.36134   0.21392   0.80591   0.00000  Uiso   1.00
N727   N     0.38265   0.16666   0.74998   0.00000  Uiso   1.00
C728   C     0.36657   0.14009   0.71942   0.00000  Uiso   1.00
H729   H     0.39200   0.11864   0.69524   0.00000  Uiso   1.00
C730   C     0.65035   0.14022   0.71921   0.00000  Uiso   1.00
H731   H     0.63850   0.11907   0.69448   0.00000  Uiso   1.00
N732   N     0.61735   0.16669   0.74999   0.00000  Uiso   1.00
N733   N     0.41642   0.29013   0.81462   0.00000  Uiso   1.00
O734   O     0.37221   0.30286   0.81941   0.00000  Uiso   1.00
O735   O     0.42260   0.26259   0.84758   0.00000  Uiso   1.00
N736   N     0.40669   0.14729   0.57217   0.00000  Uiso   1.00
O737   O     0.39585   0.11194   0.59645   0.00000  Uiso   1.00
O738   O     0.39934   0.18107   0.59887   0.00000  Uiso   1.00
S739   S     0.34187   0.10791   0.51303   0.00000  Uiso   1.00
O740   O     0.64712   0.12454   0.56548   0.00000  Uiso   1.00
O741   O     0.64388   0.11065   0.97709   0.00000  Uiso   1.00
O742   O     0.35496   0.05832   0.52037   0.00000  Uiso   1.00
H743   H     0.65603   0.04468   0.53685   0.00000  Uiso   1.00
S744   S     0.59754   0.29164   0.68080   0.00000  Uiso   1.00
O745   O     0.62627   0.27314   0.71380   0.00000  Uiso   1.00
O746   O     0.58377   0.25883   0.64883   0.00000  Uiso   1.00
O747   O     0.63281   0.32737   0.64021   0.00000  Uiso   1.00
H748   H     0.66131   0.31210   0.61816   0.00000  Uiso   1.00
O749   O     0.79375   0.22678   0.75000   0.00000  Uiso   1.00
O750   O     0.87294   0.22679   0.75000   0.00000  Uiso   1.00
C751   C     0.83372   0.24605   0.74985   0.00000  Uiso   1.00
O752   O     0.77441   0.16665   0.82549   0.00000  Uiso   1.00
O753   O     0.85360   0.16666   0.82549   0.00000  Uiso   1.00
C754   C     0.80692   0.16716   0.85022   0.00000  Uiso   1.00
Cu755  Cu    0.78645   0.16666   0.75000   0.00000  Uiso   1.00
Cu756  Cu    0.88022   0.16667   0.75000   0.00000  Uiso   1.00
O757   O     0.79373   0.10654   0.74999   0.00000  Uiso   1.00
O758   O     0.87292   0.10655   0.74999   0.00000  Uiso   1.00
O759   O     0.81306   0.16667   0.67451   0.00000  Uiso   1.00
O760   O     0.89225   0.16668   0.67451   0.00000  Uiso   1.00
C761   C     0.83299   0.08752   0.75043   0.00000  Uiso   1.00
C762   C     0.85967   0.16679   0.64980   0.00000  Uiso   1.00
C763   C     0.92204   0.21005   0.51586   0.00000  Uiso   1.00
H764   H     0.94349   0.20368   0.58520   0.00000  Uiso   1.00
H765   H     0.92213   0.23851   0.92307   0.00000  Uiso   1.00
H766   H     0.95429   0.22851   0.99615   0.00000  Uiso   1.00
C767   C     0.87449   0.17243   0.59284   0.00000  Uiso   1.00
C768   C     0.74717   0.14233   0.93198   0.00000  Uiso   1.00
C769   C     0.73134   0.13546   0.98579   0.00000  Uiso   1.00
C770   C     0.76074   0.14904   0.51642   0.00000  Uiso   1.00
C771   C     0.80754   0.16856   0.99168   0.00000  Uiso   1.00
C772   C     0.81884   0.18035   0.93806   0.00000  Uiso   1.00
C773   C     0.84395   0.17689   0.51727   0.00000  Uiso   1.00
C774   C     0.88583   0.20180   0.99167   0.00000  Uiso   1.00
C775   C     0.89139   0.21823   0.94213   0.00000  Uiso   1.00
C776   C     0.85835   0.20782   0.91578   0.00000  Uiso   1.00
C777   C     0.84164   0.16006   0.56646   0.00000  Uiso   1.00
C778   C     0.91613   0.19574   0.56645   0.00000  Uiso   1.00
C779   C     0.79019   0.16473   0.90779   0.00000  Uiso   1.00
H780   H     0.81496   0.13701   0.58568   0.00000  Uiso   1.00
H781   H     0.72576   0.12976   0.90849   0.00000  Uiso   1.00
H782   H     0.86389   0.22201   0.87777   0.00000  Uiso   1.00
C783   C     0.87662   0.31388   0.72180   0.00000  Uiso   1.00
C784   C     0.87547   0.02311   0.72312   0.00000  Uiso   1.00
H785   H     0.90759   0.04098   0.70156   0.00000  Uiso   1.00
C786   C     0.83282   0.04321   0.75037   0.00000  Uiso   1.00
C787   C     0.79084   0.02115   0.77826   0.00000  Uiso   1.00
H788   H     0.75836   0.03732   0.80064   0.00000  Uiso   1.00
C789   C     0.79156   0.31172   0.78034   0.00000  Uiso   1.00
C790   C     0.83428   0.29093   0.75084   0.00000  Uiso   1.00
C791   C     0.96668   0.19298   0.78097   0.00000  Uiso   1.00
H792   H     0.94127   0.21419   0.80563   0.00000  Uiso   1.00
C793   C     0.68291   0.19294   0.78099   0.00000  Uiso   1.00
H794   H     0.69468   0.21392   0.80591   0.00000  Uiso   1.00
N795   N     0.71598   0.16666   0.74998   0.00000  Uiso   1.00
C796   C     0.69990   0.14009   0.71942   0.00000  Uiso   1.00
H797   H     0.72533   0.11864   0.69524   0.00000  Uiso   1.00
C798   C     0.98369   0.14022   0.71921   0.00000  Uiso   1.00
H799   H     0.97184   0.11907   0.69448   0.00000  Uiso   1.00
N800   N     0.95069   0.16669   0.74999   0.00000  Uiso   1.00
N801   N     0.74975   0.29013   0.81462   0.00000  Uiso   1.00
O802   O     0.70555   0.30286   0.81941   0.00000  Uiso   1.00
O803   O     0.75593   0.26259   0.84758   0.00000  Uiso   1.00
N804   N     0.74003   0.14729   0.57217   0.00000  Uiso   1.00
O805   O     0.72918   0.11194   0.59645   0.00000  Uiso   1.00
O806   O     0.73267   0.18107   0.59887   0.00000  Uiso   1.00
S807   S     0.67520   0.10791   0.51303   0.00000  Uiso   1.00
O808   O     0.98045   0.12454   0.56548   0.00000  Uiso   1.00
O809   O     0.97721   0.11065   0.97709   0.00000  Uiso   1.00
O810   O     0.68829   0.05832   0.52037   0.00000  Uiso   1.00
H811   H     0.98937   0.04468   0.53685   0.00000  Uiso   1.00
S812   S     0.93087   0.29164   0.68080   0.00000  Uiso   1.00
O813   O     0.95960   0.27314   0.71380   0.00000  Uiso   1.00
O814   O     0.91711   0.25883   0.64883   0.00000  Uiso   1.00
O815   O     0.96614   0.32737   0.64021   0.00000  Uiso   1.00
H816   H     0.99465   0.31210   0.61816   0.00000  Uiso   1.00
O817   O     0.12708   0.56011   0.75000   0.00000  Uiso   1.00
O818   O     0.20627   0.56012   0.75000   0.00000  Uiso   1.00
C819   C     0.16705   0.57938   0.74985   0.00000  Uiso   1.00
O820   O     0.10775   0.49998   0.82549   0.00000  Uiso   1.00
O821   O     0.18694   0.49999   0.82549   0.00000  Uiso   1.00
C822   C     0.14025   0.50050   0.85022   0.00000  Uiso   1.00
Cu823  Cu    0.11978   0.49999   0.75000   0.00000  Uiso   1.00
Cu824  Cu    0.21355   0.50001   0.75000   0.00000  Uiso   1.00
O825   O     0.12706   0.43988   0.74999   0.00000  Uiso   1.00
O826   O     0.20625   0.43989   0.74999   0.00000  Uiso   1.00
O827   O     0.14640   0.50001   0.67451   0.00000  Uiso   1.00
O828   O     0.22559   0.50002   0.67451   0.00000  Uiso   1.00
C829   C     0.16633   0.42086   0.75043   0.00000  Uiso   1.00
C830   C     0.19300   0.50012   0.64980   0.00000  Uiso   1.00
C831   C     0.25537   0.54338   0.51586   0.00000  Uiso   1.00
H832   H     0.27682   0.53701   0.58520   0.00000  Uiso   1.00
H833   H     0.25546   0.57184   0.92307   0.00000  Uiso   1.00
H834   H     0.28763   0.56184   0.99615   0.00000  Uiso   1.00
C835   C     0.20782   0.50576   0.59284   0.00000  Uiso   1.00
C836   C     0.08051   0.47566   0.93198   0.00000  Uiso   1.00
C837   C     0.06467   0.46879   0.98579   0.00000  Uiso   1.00
C838   C     0.09407   0.48237   0.51642   0.00000  Uiso   1.00
C839   C     0.14087   0.50190   0.99168   0.00000  Uiso   1.00
C840   C     0.15217   0.51368   0.93806   0.00000  Uiso   1.00
C841   C     0.17729   0.51023   0.51727   0.00000  Uiso   1.00
C842   C     0.21916   0.53513   0.99167   0.00000  Uiso   1.00
C843   C     0.22473   0.55156   0.94213   0.00000  Uiso   1.00
C844   C     0.19168   0.54115   0.91578   0.00000  Uiso   1.00
C845   C     0.17498   0.49340   0.56646   0.00000  Uiso   1.00
C846   C     0.24946   0.52908   0.56645   0.00000  Uiso   1.00
C847   C     0.12353   0.49807   0.90779   0.00000  Uiso   1.00
H848   H     0.14829   0.47035   0.58568   0.00000  Uiso   1.00
H849   H     0.05909   0.46309   0.90849   0.00000  Uiso   1.00
H850   H     0.19723   0.55534   0.87777   0.00000  Uiso   1.00
C851   C     0.20995   0.64721   0.72180   0.00000  Uiso   1.00
C852   C     0.20880   0.35645   0.72312   0.00000  Uiso   1.00
H853   H     0.24093   0.37431   0.70156   0.00000  Uiso   1.00
C854   C     0.16615   0.37654   0.75037   0.00000  Uiso   1.00
C855   C     0.12417   0.35449   0.77826   0.00000  Uiso   1.00
H856   H     0.09169   0.37065   0.80064   0.00000  Uiso   1.00
C857   C     0.12489   0.64505   0.78034   0.00000  Uiso   1.00
C858   C     0.16761   0.62427   0.75084   0.00000  Uiso   1.00
C859   C     0.30001   0.52631   0.78097   0.00000  Uiso   1.00
H860   H     0.27460   0.54752   0.80563   0.00000  Uiso   1.00
C861   C     0.01625   0.52627   0.78099   0.00000  Uiso   1.00
H862   H     0.02801   0.54725   0.80591   0.00000  Uiso   1.00
N863   N     0.04931   0.49999   0.74998   0.00000  Uiso   1.00
C864   C     0.03324   0.47342   0.71942   0.00000  Uiso   1.00
H865   H     0.05866   0.45197   0.69524   0.00000  Uiso   1.00
C866   C     0.31702   0.47355   0.71921   0.00000  Uiso   1.00
H867   H     0.30517   0.45240   0.69448   0.00000  Uiso   1.00
N868   N     0.28402   0.50002   0.74999   0.00000  Uiso   1.00
N869   N     0.08309   0.62347   0.81462   0.00000  Uiso   1.00
O870   O     0.03888   0.63619   0.81941   0.00000  Uiso   1.00
O871   O     0.08926   0.59593   0.84758   0.00000  Uiso   1.00
N872   N     0.07336   0.48063   0.57217   0.00000  Uiso   1.00
O873   O     0.06252   0.44527   0.59645   0.00000  Uiso   1.00
O874   O     0.06600   0.51440   0.59887   0.00000  Uiso   1.00
S875   S     0.00853   0.44124   0.51303   0.00000  Uiso   1.00
O876   O     0.31378   0.45788   0.56548   0.00000  Uiso   1.00
O877   O     0.31055   0.44398   0.97709   0.00000  Uiso   1.00
O878   O     0.02163   0.39165   0.52037   0.00000  Uiso   1.00
H879   H     0.32270   0.37801   0.53685   0.00000  Uiso   1.00
S880   S     0.26420   0.62498   0.68080   0.00000  Uiso   1.00
O881   O     0.29294   0.60647   0.71380   0.00000  Uiso   1.00
O882   O     0.25044   0.59217   0.64883   0.00000  Uiso   1.00
O883   O     0.29947   0.66070   0.64021   0.00000  Uiso   1.00
H884   H     0.32798   0.64543   0.61816   0.00000  Uiso   1.00
O885   O     0.46042   0.56011   0.75000   0.00000  Uiso   1.00
O886   O     0.53961   0.56012   0.75000   0.00000  Uiso   1.00
C887   C     0.50038   0.57938   0.74985   0.00000  Uiso   1.00
O888   O     0.44108   0.49998   0.82549   0.00000  Uiso   1.00
O889   O     0.52027   0.49999   0.82549   0.00000  Uiso   1.00
C890   C     0.47359   0.50050   0.85022   0.00000  Uiso   1.00
Cu891  Cu    0.45311   0.49999   0.75000   0.00000  Uiso   1.00
Cu892  Cu    0.54689   0.50001   0.75000   0.00000  Uiso   1.00
O893   O     0.46039   0.43988   0.74999   0.00000  Uiso   1.00
O894   O     0.53958   0.43989   0.74999   0.00000  Uiso   1.00
O895   O     0.47973   0.50001   0.67451   0.00000  Uiso   1.00
O896   O     0.55892   0.50002   0.67451   0.00000  Uiso   1.00
C897   C     0.49966   0.42086   0.75043   0.00000  Uiso   1.00
C898   C     0.52634   0.50012   0.64980   0.00000  Uiso   1.00
C899   C     0.58870   0.54338   0.51586   0.00000  Uiso   1.00
H900   H     0.61016   0.53701   0.58520   0.00000  Uiso   1.00
H901   H     0.58880   0.57184   0.92307   0.00000  Uiso   1.00
H902   H     0.62096   0.56184   0.99615   0.00000  Uiso   1.00
C903   C     0.54115   0.50576   0.59284   0.00000  Uiso   1.00
C904   C     0.41384   0.47566   0.93198   0.00000  Uiso   1.00
C905   C     0.39801   0.46879   0.98579   0.00000  Uiso   1.00
C906   C     0.42740   0.48237   0.51642   0.00000  Uiso   1.00
C907   C     0.47420   0.50190   0.99168   0.00000  Uiso   1.00
C908   C     0.48551   0.51368   0.93806   0.00000  Uiso   1.00
C909   C     0.51062   0.51023   0.51727   0.00000  Uiso   1.00
C910   C     0.55250   0.53513   0.99167   0.00000  Uiso   1.00
C911   C     0.55806   0.55156   0.94213   0.00000  Uiso   1.00
C912   C     0.52501   0.54115   0.91578   0.00000  Uiso   1.00
C913   C     0.50831   0.49340   0.56646   0.00000  Uiso   1.00
C914   C     0.58279   0.52908   0.56645   0.00000  Uiso   1.00
C915   C     0.45686   0.49807   0.90779   0.00000  Uiso   1.00
H916   H     0.48162   0.47035   0.58568   0.00000  Uiso   1.00
H917   H     0.39242   0.46309   0.90849   0.00000  Uiso   1.00
H918   H     0.53056   0.55534   0.87777   0.00000  Uiso   1.00
C919   C     0.54328   0.64721   0.72180   0.00000  Uiso   1.00
C920   C     0.54213   0.35645   0.72312   0.00000  Uiso   1.00
H921   H     0.57426   0.37431   0.70156   0.00000  Uiso   1.00
C922   C     0.49948   0.37654   0.75037   0.00000  Uiso   1.00
C923   C     0.45751   0.35449   0.77826   0.00000  Uiso   1.00
H924   H     0.42502   0.37065   0.80064   0.00000  Uiso   1.00
C925   C     0.45822   0.64505   0.78034   0.00000  Uiso   1.00
C926   C     0.50094   0.62427   0.75084   0.00000  Uiso   1.00
C927   C     0.63335   0.52631   0.78097   0.00000  Uiso   1.00
H928   H     0.60794   0.54752   0.80563   0.00000  Uiso   1.00
C929   C     0.34958   0.52627   0.78099   0.00000  Uiso   1.00
H930   H     0.36134   0.54725   0.80591   0.00000  Uiso   1.00
N931   N     0.38265   0.49999   0.74998   0.00000  Uiso   1.00
C932   C     0.36657   0.47342   0.71942   0.00000  Uiso   1.00
H933   H     0.39200   0.45197   0.69524   0.00000  Uiso   1.00
C934   C     0.65035   0.47355   0.71921   0.00000  Uiso   1.00
H935   H     0.63850   0.45240   0.69448   0.00000  Uiso   1.00
N936   N     0.61735   0.50002   0.74999   0.00000  Uiso   1.00
N937   N     0.41642   0.62347   0.81462   0.00000  Uiso   1.00
O938   O     0.37221   0.63619   0.81941   0.00000  Uiso   1.00
O939   O     0.42260   0.59593   0.84758   0.00000  Uiso   1.00
N940   N     0.40669   0.48063   0.57217   0.00000  Uiso   1.00
O941   O     0.39585   0.44527   0.59645   0.00000  Uiso   1.00
O942   O     0.39934   0.51440   0.59887   0.00000  Uiso   1.00
S943   S     0.34187   0.44124   0.51303   0.00000  Uiso   1.00
O944   O     0.64712   0.45788   0.56548   0.00000  Uiso   1.00
O945   O     0.64388   0.44398   0.97709   0.00000  Uiso   1.00
O946   O     0.35496   0.39165   0.52037   0.00000  Uiso   1.00
H947   H     0.65603   0.37801   0.53685   0.00000  Uiso   1.00
S948   S     0.59754   0.62498   0.68080   0.00000  Uiso   1.00
O949   O     0.62627   0.60647   0.71380   0.00000  Uiso   1.00
O950   O     0.58377   0.59217   0.64883   0.00000  Uiso   1.00
O951   O     0.63281   0.66070   0.64021   0.00000  Uiso   1.00
H952   H     0.66131   0.64543   0.61816   0.00000  Uiso   1.00
O953   O     0.79375   0.56011   0.75000   0.00000  Uiso   1.00
O954   O     0.87294   0.56012   0.75000   0.00000  Uiso   1.00
C955   C     0.83372   0.57938   0.74985   0.00000  Uiso   1.00
O956   O     0.77441   0.49998   0.82549   0.00000  Uiso   1.00
O957   O     0.85360   0.49999   0.82549   0.00000  Uiso   1.00
C958   C     0.80692   0.50050   0.85022   0.00000  Uiso   1.00
Cu959  Cu    0.78645   0.49999   0.75000   0.00000  Uiso   1.00
Cu960  Cu    0.88022   0.50001   0.75000   0.00000  Uiso   1.00
O961   O     0.79373   0.43988   0.74999   0.00000  Uiso   1.00
O962   O     0.87292   0.43989   0.74999   0.00000  Uiso   1.00
O963   O     0.81306   0.50001   0.67451   0.00000  Uiso   1.00
O964   O     0.89225   0.50002   0.67451   0.00000  Uiso   1.00
C965   C     0.83299   0.42086   0.75043   0.00000  Uiso   1.00
C966   C     0.85967   0.50012   0.64980   0.00000  Uiso   1.00
C967   C     0.92204   0.54338   0.51586   0.00000  Uiso   1.00
H968   H     0.94349   0.53701   0.58520   0.00000  Uiso   1.00
H969   H     0.92213   0.57184   0.92307   0.00000  Uiso   1.00
H970   H     0.95429   0.56184   0.99615   0.00000  Uiso   1.00
C971   C     0.87449   0.50576   0.59284   0.00000  Uiso   1.00
C972   C     0.74717   0.47566   0.93198   0.00000  Uiso   1.00
C973   C     0.73134   0.46879   0.98579   0.00000  Uiso   1.00
C974   C     0.76074   0.48237   0.51642   0.00000  Uiso   1.00
C975   C     0.80754   0.50190   0.99168   0.00000  Uiso   1.00
C976   C     0.81884   0.51368   0.93806   0.00000  Uiso   1.00
C977   C     0.84395   0.51023   0.51727   0.00000  Uiso   1.00
C978   C     0.88583   0.53513   0.99167   0.00000  Uiso   1.00
C979   C     0.89139   0.55156   0.94213   0.00000  Uiso   1.00
C980   C     0.85835   0.54115   0.91578   0.00000  Uiso   1.00
C981   C     0.84164   0.49340   0.56646   0.00000  Uiso   1.00
C982   C     0.91613   0.52908   0.56645   0.00000  Uiso   1.00
C983   C     0.79019   0.49807   0.90779   0.00000  Uiso   1.00
H984   H     0.81496   0.47035   0.58568   0.00000  Uiso   1.00
H985   H     0.72576   0.46309   0.90849   0.00000  Uiso   1.00
H986   H     0.86389   0.55534   0.87777   0.00000  Uiso   1.00
C987   C     0.87662   0.64721   0.72180   0.00000  Uiso   1.00
C988   C     0.87547   0.35645   0.72312   0.00000  Uiso   1.00
H989   H     0.90759   0.37431   0.70156   0.00000  Uiso   1.00
C990   C     0.83282   0.37654   0.75037   0.00000  Uiso   1.00
C991   C     0.79084   0.35449   0.77826   0.00000  Uiso   1.00
H992   H     0.75836   0.37065   0.80064   0.00000  Uiso   1.00
C993   C     0.79156   0.64505   0.78034   0.00000  Uiso   1.00
C994   C     0.83428   0.62427   0.75084   0.00000  Uiso   1.00
C995   C     0.96668   0.52631   0.78097   0.00000  Uiso   1.00
H996   H     0.94127   0.54752   0.80563   0.00000  Uiso   1.00
C997   C     0.68291   0.52627   0.78099   0.00000  Uiso   1.00
H998   H     0.69468   0.54725   0.80591   0.00000  Uiso   1.00
N999   N     0.71598   0.49999   0.74998   0.00000  Uiso   1.00
C1000  C     0.69990   0.47342   0.71942   0.00000  Uiso   1.00
H1001  H     0.72533   0.45197   0.69524   0.00000  Uiso   1.00
C1002  C     0.98369   0.47355   0.71921   0.00000  Uiso   1.00
H1003  H     0.97184   0.45240   0.69448   0.00000  Uiso   1.00
N1004  N     0.95069   0.50002   0.74999   0.00000  Uiso   1.00
N1005  N     0.74975   0.62347   0.81462   0.00000  Uiso   1.00
O1006  O     0.70555   0.63619   0.81941   0.00000  Uiso   1.00
O1007  O     0.75593   0.59593   0.84758   0.00000  Uiso   1.00
N1008  N     0.74003   0.48063   0.57217   0.00000  Uiso   1.00
O1009  O     0.72918   0.44527   0.59645   0.00000  Uiso   1.00
O1010  O     0.73267   0.51440   0.59887   0.00000  Uiso   1.00
S1011  S     0.67520   0.44124   0.51303   0.00000  Uiso   1.00
O1012  O     0.98045   0.45788   0.56548   0.00000  Uiso   1.00
O1013  O     0.97721   0.44398   0.97709   0.00000  Uiso   1.00
O1014  O     0.68829   0.39165   0.52037   0.00000  Uiso   1.00
H1015  H     0.98937   0.37801   0.53685   0.00000  Uiso   1.00
S1016  S     0.93087   0.62498   0.68080   0.00000  Uiso   1.00
O1017  O     0.95960   0.60647   0.71380   0.00000  Uiso   1.00
O1018  O     0.91711   0.59217   0.64883   0.00000  Uiso   1.00
O1019  O     0.96614   0.66070   0.64021   0.00000  Uiso   1.00
H1020  H     0.99465   0.64543   0.61816   0.00000  Uiso   1.00
O1021  O     0.12708   0.89345   0.75000   0.00000  Uiso   1.00
O1022  O     0.20627   0.89346   0.75000   0.00000  Uiso   1.00
C1023  C     0.16705   0.91271   0.74985   0.00000  Uiso   1.00
O1024  O     0.10775   0.83332   0.82549   0.00000  Uiso   1.00
O1025  O     0.18694   0.83333   0.82549   0.00000  Uiso   1.00
C1026  C     0.14025   0.83383   0.85022   0.00000  Uiso   1.00
Cu1027 Cu    0.11978   0.83333   0.75000   0.00000  Uiso   1.00
Cu1028 Cu    0.21355   0.83334   0.75000   0.00000  Uiso   1.00
O1029  O     0.12706   0.77321   0.74999   0.00000  Uiso   1.00
O1030  O     0.20625   0.77322   0.74999   0.00000  Uiso   1.00
O1031  O     0.14640   0.83334   0.67451   0.00000  Uiso   1.00
O1032  O     0.22559   0.83335   0.67451   0.00000  Uiso   1.00
C1033  C     0.16633   0.75419   0.75043   0.00000  Uiso   1.00
C1034  C     0.19300   0.83345   0.64980   0.00000  Uiso   1.00
C1035  C     0.25537   0.87672   0.51586   0.00000  Uiso   1.00
H1036  H     0.27682   0.87035   0.58520   0.00000  Uiso   1.00
H1037  H     0.25546   0.90518   0.92307   0.00000  Uiso   1.00
H1038  H     0.28763   0.89518   0.99615   0.00000  Uiso   1.00
C1039  C     0.20782   0.83909   0.59284   0.00000  Uiso   1.00
C1040  C     0.08051   0.80899   0.93198   0.00000  Uiso   1.00
C1041  C     0.06467   0.80213   0.98579   0.00000  Uiso   1.00
C1042  C     0.09407   0.81570   0.51642   0.00000  Uiso   1.00
C1043  C     0.14087   0.83523   0.99168   0.00000  Uiso   1.00
C1044  C     0.15217   0.84701   0.93806   0.00000  Uiso   1.00
C1045  C     0.17729   0.84356   0.51727   0.00000  Uiso   1.00
C1046  C     0.21916   0.86847   0.99167   0.00000  Uiso   1.00
C1047  C     0.22473   0.88489   0.94213   0.00000  Uiso   1.00
C1048  C     0.19168   0.87448   0.91578   0.00000  Uiso   1.00
C1049  C     0.17498   0.82673   0.56646   0.00000  Uiso   1.00
C1050  C     0.24946   0.86241   0.56645   0.00000  Uiso   1.00
C1051  C     0.12353   0.83140   0.90779   0.00000  Uiso   1.00
H1052  H     0.14829   0.80368   0.58568   0.00000  Uiso   1.00
H1053  H     0.05909   0.79642   0.90849   0.00000  Uiso   1.00
H1054  H     0.19723   0.88867   0.87777   0.00000  Uiso   1.00
C1055  C     0.20995   0.98055   0.72180   0.00000  Uiso   1.00
C1056  C     0.20880   0.68978   0.72312   0.00000  Uiso   1.00
H1057  H     0.24093   0.70765   0.70156   0.00000  Uiso   1.00
C1058  C     0.16615   0.70987   0.75037   0.00000  Uiso   1.00
C1059  C     0.12417   0.68782   0.77826   0.00000  Uiso   1.00
H1060  H     0.09169   0.70398   0.80064   0.00000  Uiso   1.00
C1061  C     0.12489   0.97839   0.78034   0.00000  Uiso   1.00
C1062  C     0.16761   0.95760   0.75084   0.00000  Uiso   1.00
C1063  C     0.30001   0.85964   0.78097   0.00000  Uiso   1.00
H1064  H     0.27460   0.88085   0.80563   0.00000  Uiso   1.00
C1065  C     0.01625   0.85960   0.78099   0.00000  Uiso   1.00
H1066  H     0.02801   0.88059   0.80591   0.00000  Uiso   1.00
N1067  N     0.04931   0.83332   0.74998   0.00000  Uiso   1.00
C1068  C     0.03324   0.80675   0.71942   0.00000  Uiso   1.00
H1069  H     0.05866   0.78531   0.69524   0.00000  Uiso   1.00
C1070  C     0.31702   0.80689   0.71921   0.00000  Uiso   1.00
H1071  H     0.30517   0.78573   0.69448   0.00000  Uiso   1.00
N1072  N     0.28402   0.83335   0.74999   0.00000  Uiso   1.00
N1073  N     0.08309   0.95680   0.81462   0.00000  Uiso   1.00
O1074  O     0.03888   0.96953   0.81941   0.00000  Uiso   1.00
O1075  O     0.08926   0.92926   0.84758   0.00000  Uiso   1.00
N1076  N     0.07336   0.81396   0.57217   0.00000  Uiso   1.00
O1077  O     0.06252   0.77861   0.59645   0.00000  Uiso   1.00
O1078  O     0.06600   0.84773   0.59887   0.00000  Uiso   1.00
S1079  S     0.00853   0.77458   0.51303   0.00000  Uiso   1.00
O1080  O     0.31378   0.79121   0.56548   0.00000  Uiso   1.00
O1081  O     0.31055   0.77732   0.97709   0.00000  Uiso   1.00
O1082  O     0.02163   0.72498   0.52037   0.00000  Uiso   1.00
H1083  H     0.32270   0.71135   0.53685   0.00000  Uiso   1.00
S1084  S     0.26420   0.95831   0.68080   0.00000  Uiso   1.00
O1085  O     0.29294   0.93980   0.71380   0.00000  Uiso   1.00
O1086  O     0.25044   0.92550   0.64883   0.00000  Uiso   1.00
O1087  O     0.29947   0.99404   0.64021   0.00000  Uiso   1.00
H1088  H     0.32798   0.97876   0.61816   0.00000  Uiso   1.00
O1089  O     0.46042   0.89345   0.75000   0.00000  Uiso   1.00
O1090  O     0.53961   0.89346   0.75000   0.00000  Uiso   1.00
C1091  C     0.50038   0.91271   0.74985   0.00000  Uiso   1.00
O1092  O     0.44108   0.83332   0.82549   0.00000  Uiso   1.00
O1093  O     0.52027   0.83333   0.82549   0.00000  Uiso   1.00
C1094  C     0.47359   0.83383   0.85022   0.00000  Uiso   1.00
Cu1095 Cu    0.45311   0.83333   0.75000   0.00000  Uiso   1.00
Cu1096 Cu    0.54689   0.83334   0.75000   0.00000  Uiso   1.00
O1097  O     0.46039   0.77321   0.74999   0.00000  Uiso   1.00
O1098  O     0.53958   0.77322   0.74999   0.00000  Uiso   1.00
O1099  O     0.47973   0.83334   0.67451   0.00000  Uiso   1.00
O1100  O     0.55892   0.83335   0.67451   0.00000  Uiso   1.00
C1101  C     0.49966   0.75419   0.75043   0.00000  Uiso   1.00
C1102  C     0.52634   0.83345   0.64980   0.00000  Uiso   1.00
C1103  C     0.58870   0.87672   0.51586   0.00000  Uiso   1.00
H1104  H     0.61016   0.87035   0.58520   0.00000  Uiso   1.00
H1105  H     0.58880   0.90518   0.92307   0.00000  Uiso   1.00
H1106  H     0.62096   0.89518   0.99615   0.00000  Uiso   1.00
C1107  C     0.54115   0.83909   0.59284   0.00000  Uiso   1.00
C1108  C     0.41384   0.80899   0.93198   0.00000  Uiso   1.00
C1109  C     0.39801   0.80213   0.98579   0.00000  Uiso   1.00
C1110  C     0.42740   0.81570   0.51642   0.00000  Uiso   1.00
C1111  C     0.47420   0.83523   0.99168   0.00000  Uiso   1.00
C1112  C     0.48551   0.84701   0.93806   0.00000  Uiso   1.00
C1113  C     0.51062   0.84356   0.51727   0.00000  Uiso   1.00
C1114  C     0.55250   0.86847   0.99167   0.00000  Uiso   1.00
C1115  C     0.55806   0.88489   0.94213   0.00000  Uiso   1.00
C1116  C     0.52501   0.87448   0.91578   0.00000  Uiso   1.00
C1117  C     0.50831   0.82673   0.56646   0.00000  Uiso   1.00
C1118  C     0.58279   0.86241   0.56645   0.00000  Uiso   1.00
C1119  C     0.45686   0.83140   0.90779   0.00000  Uiso   1.00
H1120  H     0.48162   0.80368   0.58568   0.00000  Uiso   1.00
H1121  H     0.39242   0.79642   0.90849   0.00000  Uiso   1.00
H1122  H     0.53056   0.88867   0.87777   0.00000  Uiso   1.00
C1123  C     0.54328   0.98055   0.72180   0.00000  Uiso   1.00
C1124  C     0.54213   0.68978   0.72312   0.00000  Uiso   1.00
H1125  H     0.57426   0.70765   0.70156   0.00000  Uiso   1.00
C1126  C     0.49948   0.70987   0.75037   0.00000  Uiso   1.00
C1127  C     0.45751   0.68782   0.77826   0.00000  Uiso   1.00
H1128  H     0.42502   0.70398   0.80064   0.00000  Uiso   1.00
C1129  C     0.45822   0.97839   0.78034   0.00000  Uiso   1.00
C1130  C     0.50094   0.95760   0.75084   0.00000  Uiso   1.00
C1131  C     0.63335   0.85964   0.78097   0.00000  Uiso   1.00
H1132  H     0.60794   0.88085   0.80563   0.00000  Uiso   1.00
C1133  C     0.34958   0.85960   0.78099   0.00000  Uiso   1.00
H1134  H     0.36134   0.88059   0.80591   0.00000  Uiso   1.00
N1135  N     0.38265   0.83332   0.74998   0.00000  Uiso   1.00
C1136  C     0.36657   0.80675   0.71942   0.00000  Uiso   1.00
H1137  H     0.39200   0.78531   0.69524   0.00000  Uiso   1.00
C1138  C     0.65035   0.80689   0.71921   0.00000  Uiso   1.00
H1139  H     0.63850   0.78573   0.69448   0.00000  Uiso   1.00
N1140  N     0.61735   0.83335   0.74999   0.00000  Uiso   1.00
N1141  N     0.41642   0.95680   0.81462   0.00000  Uiso   1.00
O1142  O     0.37221   0.96953   0.81941   0.00000  Uiso   1.00
O1143  O     0.42260   0.92926   0.84758   0.00000  Uiso   1.00
N1144  N     0.40669   0.81396   0.57217   0.00000  Uiso   1.00
O1145  O     0.39585   0.77861   0.59645   0.00000  Uiso   1.00
O1146  O     0.39934   0.84773   0.59887   0.00000  Uiso   1.00
S1147  S     0.34187   0.77458   0.51303   0.00000  Uiso   1.00
O1148  O     0.64712   0.79121   0.56548   0.00000  Uiso   1.00
O1149  O     0.64388   0.77732   0.97709   0.00000  Uiso   1.00
O1150  O     0.35496   0.72498   0.52037   0.00000  Uiso   1.00
H1151  H     0.65603   0.71135   0.53685   0.00000  Uiso   1.00
S1152  S     0.59754   0.95831   0.68080   0.00000  Uiso   1.00
O1153  O     0.62627   0.93980   0.71380   0.00000  Uiso   1.00
O1154  O     0.58377   0.92550   0.64883   0.00000  Uiso   1.00
O1155  O     0.63281   0.99404   0.64021   0.00000  Uiso   1.00
H1156  H     0.66131   0.97876   0.61816   0.00000  Uiso   1.00
O1157  O     0.79375   0.89345   0.75000   0.00000  Uiso   1.00
O1158  O     0.87294   0.89346   0.75000   0.00000  Uiso   1.00
C1159  C     0.83372   0.91271   0.74985   0.00000  Uiso   1.00
O1160  O     0.77441   0.83332   0.82549   0.00000  Uiso   1.00
O1161  O     0.85360   0.83333   0.82549   0.00000  Uiso   1.00
C1162  C     0.80692   0.83383   0.85022   0.00000  Uiso   1.00
Cu1163 Cu    0.78645   0.83333   0.75000   0.00000  Uiso   1.00
Cu1164 Cu    0.88022   0.83334   0.75000   0.00000  Uiso   1.00
O1165  O     0.79373   0.77321   0.74999   0.00000  Uiso   1.00
O1166  O     0.87292   0.77322   0.74999   0.00000  Uiso   1.00
O1167  O     0.81306   0.83334   0.67451   0.00000  Uiso   1.00
O1168  O     0.89225   0.83335   0.67451   0.00000  Uiso   1.00
C1169  C     0.83299   0.75419   0.75043   0.00000  Uiso   1.00
C1170  C     0.85967   0.83345   0.64980   0.00000  Uiso   1.00
C1171  C     0.92204   0.87672   0.51586   0.00000  Uiso   1.00
H1172  H     0.94349   0.87035   0.58520   0.00000  Uiso   1.00
H1173  H     0.92213   0.90518   0.92307   0.00000  Uiso   1.00
H1174  H     0.95429   0.89518   0.99615   0.00000  Uiso   1.00
C1175  C     0.87449   0.83909   0.59284   0.00000  Uiso   1.00
C1176  C     0.74717   0.80899   0.93198   0.00000  Uiso   1.00
C1177  C     0.73134   0.80213   0.98579   0.00000  Uiso   1.00
C1178  C     0.76074   0.81570   0.51642   0.00000  Uiso   1.00
C1179  C     0.80754   0.83523   0.99168   0.00000  Uiso   1.00
C1180  C     0.81884   0.84701   0.93806   0.00000  Uiso   1.00
C1181  C     0.84395   0.84356   0.51727   0.00000  Uiso   1.00
C1182  C     0.88583   0.86847   0.99167   0.00000  Uiso   1.00
C1183  C     0.89139   0.88489   0.94213   0.00000  Uiso   1.00
C1184  C     0.85835   0.87448   0.91578   0.00000  Uiso   1.00
C1185  C     0.84164   0.82673   0.56646   0.00000  Uiso   1.00
C1186  C     0.91613   0.86241   0.56645   0.00000  Uiso   1.00
C1187  C     0.79019   0.83140   0.90779   0.00000  Uiso   1.00
H1188  H     0.81496   0.80368   0.58568   0.00000  Uiso   1.00
H1189  H     0.72576   0.79642   0.90849   0.00000  Uiso   1.00
H1190  H     0.86389   0.88867   0.87777   0.00000  Uiso   1.00
C1191  C     0.87662   0.98055   0.72180   0.00000  Uiso   1.00
C1192  C     0.87547   0.68978   0.72312   0.00000  Uiso   1.00
H1193  H     0.90759   0.70765   0.70156   0.00000  Uiso   1.00
C1194  C     0.83282   0.70987   0.75037   0.00000  Uiso   1.00
C1195  C     0.79084   0.68782   0.77826   0.00000  Uiso   1.00
H1196  H     0.75836   0.70398   0.80064   0.00000  Uiso   1.00
C1197  C     0.79156   0.97839   0.78034   0.00000  Uiso   1.00
C1198  C     0.83428   0.95760   0.75084   0.00000  Uiso   1.00
C1199  C     0.96668   0.85964   0.78097   0.00000  Uiso   1.00
H1200  H     0.94127   0.88085   0.80563   0.00000  Uiso   1.00
C1201  C     0.68291   0.85960   0.78099   0.00000  Uiso   1.00
H1202  H     0.69468   0.88059   0.80591   0.00000  Uiso   1.00
N1203  N     0.71598   0.83332   0.74998   0.00000  Uiso   1.00
C1204  C     0.69990   0.80675   0.71942   0.00000  Uiso   1.00
H1205  H     0.72533   0.78531   0.69524   0.00000  Uiso   1.00
C1206  C     0.98369   0.80689   0.71921   0.00000  Uiso   1.00
H1207  H     0.97184   0.78573   0.69448   0.00000  Uiso   1.00
N1208  N     0.95069   0.83335   0.74999   0.00000  Uiso   1.00
N1209  N     0.74975   0.95680   0.81462   0.00000  Uiso   1.00
O1210  O     0.70555   0.96953   0.81941   0.00000  Uiso   1.00
O1211  O     0.75593   0.92926   0.84758   0.00000  Uiso   1.00
N1212  N     0.74003   0.81396   0.57217   0.00000  Uiso   1.00
O1213  O     0.72918   0.77861   0.59645   0.00000  Uiso   1.00
O1214  O     0.73267   0.84773   0.59887   0.00000  Uiso   1.00
S1215  S     0.67520   0.77458   0.51303   0.00000  Uiso   1.00
O1216  O     0.98045   0.79121   0.56548   0.00000  Uiso   1.00
O1217  O     0.97721   0.77732   0.97709   0.00000  Uiso   1.00
O1218  O     0.68829   0.72498   0.52037   0.00000  Uiso   1.00
H1219  H     0.98937   0.71135   0.53685   0.00000  Uiso   1.00
S1220  S     0.93087   0.95831   0.68080   0.00000  Uiso   1.00
O1221  O     0.95960   0.93980   0.71380   0.00000  Uiso   1.00
O1222  O     0.91711   0.92550   0.64883   0.00000  Uiso   1.00
O1223  O     0.96614   0.99404   0.64021   0.00000  Uiso   1.00
H1224  H     0.99465   0.97876   0.61816   0.00000  Uiso   1.00
loop_
_geom_bond_atom_site_label_1
_geom_bond_atom_site_label_2
_geom_bond_distance
_geom_bond_site_symmetry_2
_ccdc_geom_bond_type
O1     Cu7     1.963   .     S
O1     C3      1.296   .     A
O2     C3      1.290   .     A
O2     Cu8     1.967   .     S
C3     C42     1.460   .     S
O4     Cu7     1.949   .     S
O4     C6      1.295   .     A
O5     Cu8     1.935   .     S
O5     C6      1.297   .     A
C6     C31     1.473   .     S
Cu7    N47     2.013   .     S
Cu7    O11     1.935   .     S
Cu7    Cu8     2.678   .     S
Cu7    O9      1.967   .     S
Cu8    N52     2.013   .     S
Cu8    O12     1.949   .     S
Cu8    O10     1.963   .     S
O9     C13     1.289   .     A
O10    C13     1.289   .     A
O11    C14     1.294   .     A
O12    C14     1.296   .     A
C13    C38     1.441   .     S
C14    C19     1.465   .     S
C15    C30     1.390   .     A
C15    H630    1.084   1_554 S
C15    C638    1.403   1_554 S
H16    C30     1.081   .     S
H17    C27     1.084   .     S
H18    C627    1.084   .     S
C19    C29     1.395   .     A
C19    C30     1.396   .     A
C20    C21     1.390   .     A
C20    H33     1.083   .     S
C20    C31     1.396   .     A
C21    C634    1.413   .     S
C21    S671    1.776   .     S
C22    N56     1.432   .     S
C22    C633    1.413   1_554 S
C22    C635    1.437   1_554 S
C23    C24     1.423   .     A
C23    C634    1.437   .     S
C23    C637    1.435   .     S
C24    C31     1.411   .     A
C24    C28     1.410   .     A
C25    C29     1.405   .     A
C25    C635    1.435   1_554 S
C25    C638    1.424   1_554 S
C26    C27     1.390   .     A
C26    C627    1.403   .     S
C26    C637    1.424   .     S
C27    C28     1.382   .     A
C28    H34     1.081   .     S
C29    H32     1.072   .     S
C35    S64     1.771   .     S
C35    C42     1.423   .     A
C35    C240    1.385   .     S
C36    C38     1.389   .     A
C36    H37     1.083   .     S
C36    C443    1.385   1_545 S
C38    C39     1.392   .     A
C39    H40     1.084   .     S
C39    C449    1.391   1_545 S
C41    C42     1.419   .     A
C41    N53     1.438   .     S
C41    C243    1.391   .     S
C43    H44     1.081   .     S
C43    N52     1.367   .     A
C43    C113    1.416   .     S
C45    H46     1.081   .     S
C45    N47     1.367   .     A
C45    C179    1.416   1_455 S
N47    C48     1.366   .     A
C48    H49     1.081   .     S
C48    C186    1.417   1_455 S
C50    N52     1.367   .     A
C50    H51     1.082   .     S
C50    C116    1.417   .     S
N53    O54     1.302   .     A
N53    O55     1.302   .     A
N56    O58     1.301   .     A
N56    O57     1.302   .     A
S59    O62     1.681   .     S
S59    C633    1.776   1_554 S
S59    O196    1.502   1_455 S
S59    O809    1.504   1_454 S
O60    S127    1.502   .     S
O61    S739    1.504   .     S
O62    H199    0.991   1_455 S
H63    O130    0.991   .     S
S64    O65     1.503   .     D
S64    O67     1.683   .     S
S64    O66     1.498   .     D
O67    H68     0.990   .     S
O69    Cu75    1.963   .     S
O69    C71     1.296   .     A
O70    C71     1.290   .     A
O70    Cu76    1.967   .     S
C71    C110    1.460   .     S
O72    Cu75    1.949   .     S
O72    C74     1.295   .     A
O73    Cu76    1.935   .     S
O73    C74     1.297   .     A
C74    C99     1.473   .     S
Cu75   N115    2.013   .     S
Cu75   O79     1.935   .     S
Cu75   Cu76    2.678   .     S
Cu75   O77     1.967   .     S
Cu76   N120    2.013   .     S
Cu76   O80     1.949   .     S
Cu76   O78     1.963   .     S
O77    C81     1.289   .     A
O78    C81     1.289   .     A
O79    C82     1.294   .     A
O80    C82     1.296   .     A
C81    C106    1.441   .     S
C82    C87     1.465   .     S
C83    C98     1.390   .     A
C83    H698    1.084   1_554 S
C83    C706    1.403   1_554 S
H84    C98     1.081   .     S
H85    C95     1.084   .     S
H86    C695    1.084   .     S
C87    C97     1.395   .     A
C87    C98     1.396   .     A
C88    C89     1.390   .     A
C88    H101    1.083   .     S
C88    C99     1.396   .     A
C89    C702    1.413   .     S
C89    S739    1.776   .     S
C90    N124    1.432   .     S
C90    C701    1.413   1_554 S
C90    C703    1.437   1_554 S
C91    C92     1.423   .     A
C91    C702    1.437   .     S
C91    C705    1.435   .     S
C92    C99     1.411   .     A
C92    C96     1.410   .     A
C93    C97     1.405   .     A
C93    C703    1.435   1_554 S
C93    C706    1.424   1_554 S
C94    C95     1.390   .     A
C94    C695    1.403   .     S
C94    C705    1.424   .     S
C95    C96     1.382   .     A
C96    H102    1.081   .     S
C97    H100    1.072   .     S
C103   S132    1.771   .     S
C103   C110    1.423   .     A
C103   C308    1.385   .     S
C104   C106    1.389   .     A
C104   H105    1.083   .     S
C104   C511    1.385   1_545 S
C106   C107    1.392   .     A
C107   H108    1.084   .     S
C107   C517    1.391   1_545 S
C109   C110    1.419   .     A
C109   N121    1.438   .     S
C109   C311    1.391   .     S
C111   H112    1.081   .     S
C111   N120    1.367   .     A
C111   C181    1.416   .     S
C113   H114    1.081   .     S
C113   N115    1.367   .     A
N115   C116    1.366   .     A
C116   H117    1.081   .     S
C118   N120    1.367   .     A
C118   H119    1.082   .     S
C118   C184    1.417   .     S
N121   O122    1.302   .     A
N121   O123    1.302   .     A
N124   O126    1.301   .     A
N124   O125    1.302   .     A
S127   O130    1.681   .     S
S127   C701    1.776   1_554 S
S127   O673    1.504   1_554 S
O128   S195    1.502   .     S
O129   S807    1.504   .     S
H131   O198    0.991   .     S
S132   O133    1.503   .     D
S132   O135    1.683   .     S
S132   O134    1.498   .     D
O135   H136    0.990   .     S
O137   Cu143   1.963   .     S
O137   C139    1.296   .     A
O138   C139    1.290   .     A
O138   Cu144   1.967   .     S
C139   C178    1.460   .     S
O140   Cu143   1.949   .     S
O140   C142    1.295   .     A
O141   Cu144   1.935   .     S
O141   C142    1.297   .     A
C142   C167    1.473   .     S
Cu143  N183    2.013   .     S
Cu143  O147    1.935   .     S
Cu143  Cu144   2.678   .     S
Cu143  O145    1.967   .     S
Cu144  N188    2.013   .     S
Cu144  O148    1.949   .     S
Cu144  O146    1.963   .     S
O145   C149    1.289   .     A
O146   C149    1.289   .     A
O147   C150    1.294   .     A
O148   C150    1.296   .     A
C149   C174    1.441   .     S
C150   C155    1.465   .     S
C151   C166    1.390   .     A
C151   H766    1.084   1_554 S
C151   C774    1.403   1_554 S
H152   C166    1.081   .     S
H153   C163    1.084   .     S
H154   C763    1.084   .     S
C155   C165    1.395   .     A
C155   C166    1.396   .     A
C156   C157    1.390   .     A
C156   H169    1.083   .     S
C156   C167    1.396   .     A
C157   C770    1.413   .     S
C157   S807    1.776   .     S
C158   N192    1.432   .     S
C158   C769    1.413   1_554 S
C158   C771    1.437   1_554 S
C159   C160    1.423   .     A
C159   C770    1.437   .     S
C159   C773    1.435   .     S
C160   C167    1.411   .     A
C160   C164    1.410   .     A
C161   C165    1.405   .     A
C161   C771    1.435   1_554 S
C161   C774    1.424   1_554 S
C162   C163    1.390   .     A
C162   C763    1.403   .     S
C162   C773    1.424   .     S
C163   C164    1.382   .     A
C164   H170    1.081   .     S
C165   H168    1.072   .     S
C171   S200    1.771   .     S
C171   C178    1.423   .     A
C171   C376    1.385   .     S
C172   C174    1.389   .     A
C172   H173    1.083   .     S
C172   C579    1.385   1_545 S
C174   C175    1.392   .     A
C175   H176    1.084   .     S
C175   C585    1.391   1_545 S
C177   C178    1.419   .     A
C177   N189    1.438   .     S
C177   C379    1.391   .     S
C179   H180    1.081   .     S
C179   N188    1.367   .     A
C179   C45     1.416   1_655 S
C181   H182    1.081   .     S
C181   N183    1.367   .     A
N183   C184    1.366   .     A
C184   H185    1.081   .     S
C186   N188    1.367   .     A
C186   H187    1.082   .     S
C186   C48     1.417   1_655 S
N189   O190    1.302   .     A
N189   O191    1.302   .     A
N192   O194    1.301   .     A
N192   O193    1.302   .     A
S195   O198    1.681   .     S
S195   C769    1.776   1_554 S
S195   O741    1.504   1_554 S
O196   S59     1.502   1_655 S
O197   S671    1.504   1_655 S
H199   O62     0.991   1_655 S
S200   O201    1.503   .     D
S200   O203    1.683   .     S
S200   O202    1.498   .     D
O203   H204    0.990   .     S
O205   Cu211   1.963   .     S
O205   C207    1.296   .     A
O206   C207    1.290   .     A
O206   Cu212   1.967   .     S
C207   C246    1.460   .     S
O208   Cu211   1.949   .     S
O208   C210    1.295   .     A
O209   Cu212   1.935   .     S
O209   C210    1.297   .     A
C210   C235    1.473   .     S
Cu211  N251    2.013   .     S
Cu211  O215    1.935   .     S
Cu211  Cu212   2.678   .     S
Cu211  O213    1.967   .     S
Cu212  N256    2.013   .     S
Cu212  O216    1.949   .     S
Cu212  O214    1.963   .     S
O213   C217    1.289   .     A
O214   C217    1.289   .     A
O215   C218    1.294   .     A
O216   C218    1.296   .     A
C217   C242    1.441   .     S
C218   C223    1.465   .     S
C219   C234    1.390   .     A
C219   H834    1.084   1_554 S
C219   C842    1.403   1_554 S
H220   C234    1.081   .     S
H221   C231    1.084   .     S
H222   C831    1.084   .     S
C223   C233    1.395   .     A
C223   C234    1.396   .     A
C224   C225    1.390   .     A
C224   H237    1.083   .     S
C224   C235    1.396   .     A
C225   C838    1.413   .     S
C225   S875    1.776   .     S
C226   N260    1.432   .     S
C226   C837    1.413   1_554 S
C226   C839    1.437   1_554 S
C227   C228    1.423   .     A
C227   C838    1.437   .     S
C227   C841    1.435   .     S
C228   C235    1.411   .     A
C228   C232    1.410   .     A
C229   C233    1.405   .     A
C229   C839    1.435   1_554 S
C229   C842    1.424   1_554 S
C230   C231    1.390   .     A
C230   C831    1.403   .     S
C230   C841    1.424   .     S
C231   C232    1.382   .     A
C232   H238    1.081   .     S
C233   H236    1.072   .     S
C239   S268    1.771   .     S
C239   C246    1.423   .     A
C239   C444    1.385   .     S
C240   C242    1.389   .     A
C240   H241    1.083   .     S
C242   C243    1.392   .     A
C243   H244    1.084   .     S
C245   C246    1.419   .     A
C245   N257    1.438   .     S
C245   C447    1.391   .     S
C247   H248    1.081   .     S
C247   N256    1.367   .     A
C247   C317    1.416   .     S
C249   H250    1.081   .     S
C249   N251    1.367   .     A
C249   C383    1.416   1_455 S
N251   C252    1.366   .     A
C252   H253    1.081   .     S
C252   C390    1.417   1_455 S
C254   N256    1.367   .     A
C254   H255    1.082   .     S
C254   C320    1.417   .     S
N257   O258    1.302   .     A
N257   O259    1.302   .     A
N260   O262    1.301   .     A
N260   O261    1.302   .     A
S263   O266    1.681   .     S
S263   C837    1.776   1_554 S
S263   O400    1.502   1_455 S
S263   O1013   1.504   1_454 S
O264   S331    1.502   .     S
O265   S943    1.504   .     S
O266   H403    0.991   1_455 S
H267   O334    0.991   .     S
S268   O269    1.503   .     D
S268   O271    1.683   .     S
S268   O270    1.498   .     D
O271   H272    0.990   .     S
O273   Cu279   1.963   .     S
O273   C275    1.296   .     A
O274   C275    1.290   .     A
O274   Cu280   1.967   .     S
C275   C314    1.460   .     S
O276   Cu279   1.949   .     S
O276   C278    1.295   .     A
O277   Cu280   1.935   .     S
O277   C278    1.297   .     A
C278   C303    1.473   .     S
Cu279  N319    2.013   .     S
Cu279  O283    1.935   .     S
Cu279  Cu280   2.678   .     S
Cu279  O281    1.967   .     S
Cu280  N324    2.013   .     S
Cu280  O284    1.949   .     S
Cu280  O282    1.963   .     S
O281   C285    1.289   .     A
O282   C285    1.289   .     A
O283   C286    1.294   .     A
O284   C286    1.296   .     A
C285   C310    1.441   .     S
C286   C291    1.465   .     S
C287   C302    1.390   .     A
C287   H902    1.084   1_554 S
C287   C910    1.403   1_554 S
H288   C302    1.081   .     S
H289   C299    1.084   .     S
H290   C899    1.084   .     S
C291   C301    1.395   .     A
C291   C302    1.396   .     A
C292   C293    1.390   .     A
C292   H305    1.083   .     S
C292   C303    1.396   .     A
C293   C906    1.413   .     S
C293   S943    1.776   .     S
C294   N328    1.432   .     S
C294   C905    1.413   1_554 S
C294   C907    1.437   1_554 S
C295   C296    1.423   .     A
C295   C906    1.437   .     S
C295   C909    1.435   .     S
C296   C303    1.411   .     A
C296   C300    1.410   .     A
C297   C301    1.405   .     A
C297   C907    1.435   1_554 S
C297   C910    1.424   1_554 S
C298   C299    1.390   .     A
C298   C899    1.403   .     S
C298   C909    1.424   .     S
C299   C300    1.382   .     A
C300   H306    1.081   .     S
C301   H304    1.072   .     S
C307   S336    1.771   .     S
C307   C314    1.423   .     A
C307   C512    1.385   .     S
C308   C310    1.389   .     A
C308   H309    1.083   .     S
C310   C311    1.392   .     A
C311   H312    1.084   .     S
C313   C314    1.419   .     A
C313   N325    1.438   .     S
C313   C515    1.391   .     S
C315   H316    1.081   .     S
C315   N324    1.367   .     A
C315   C385    1.416   .     S
C317   H318    1.081   .     S
C317   N319    1.367   .     A
N319   C320    1.366   .     A
C320   H321    1.081   .     S
C322   N324    1.367   .     A
C322   H323    1.082   .     S
C322   C388    1.417   .     S
N325   O326    1.302   .     A
N325   O327    1.302   .     A
N328   O330    1.301   .     A
N328   O329    1.302   .     A
S331   O334    1.681   .     S
S331   C905    1.776   1_554 S
S331   O877    1.504   1_554 S
O332   S399    1.502   .     S
O333   S1011   1.504   .     S
H335   O402    0.991   .     S
S336   O337    1.503   .     D
S336   O339    1.683   .     S
S336   O338    1.498   .     D
O339   H340    0.990   .     S
O341   Cu347   1.963   .     S
O341   C343    1.296   .     A
O342   C343    1.290   .     A
O342   Cu348   1.967   .     S
C343   C382    1.460   .     S
O344   Cu347   1.949   .     S
O344   C346    1.295   .     A
O345   Cu348   1.935   .     S
O345   C346    1.297   .     A
C346   C371    1.473   .     S
Cu347  N387    2.013   .     S
Cu347  O351    1.935   .     S
Cu347  Cu348   2.678   .     S
Cu347  O349    1.967   .     S
Cu348  N392    2.013   .     S
Cu348  O352    1.949   .     S
Cu348  O350    1.963   .     S
O349   C353    1.289   .     A
O350   C353    1.289   .     A
O351   C354    1.294   .     A
O352   C354    1.296   .     A
C353   C378    1.441   .     S
C354   C359    1.465   .     S
C355   C370    1.390   .     A
C355   H970    1.084   1_554 S
C355   C978    1.403   1_554 S
H356   C370    1.081   .     S
H357   C367    1.084   .     S
H358   C967    1.084   .     S
C359   C369    1.395   .     A
C359   C370    1.396   .     A
C360   C361    1.390   .     A
C360   H373    1.083   .     S
C360   C371    1.396   .     A
C361   C974    1.413   .     S
C361   S1011   1.776   .     S
C362   N396    1.432   .     S
C362   C973    1.413   1_554 S
C362   C975    1.437   1_554 S
C363   C364    1.423   .     A
C363   C974    1.437   .     S
C363   C977    1.435   .     S
C364   C371    1.411   .     A
C364   C368    1.410   .     A
C365   C369    1.405   .     A
C365   C975    1.435   1_554 S
C365   C978    1.424   1_554 S
C366   C367    1.390   .     A
C366   C967    1.403   .     S
C366   C977    1.424   .     S
C367   C368    1.382   .     A
C368   H374    1.081   .     S
C369   H372    1.072   .     S
C375   S404    1.771   .     S
C375   C382    1.423   .     A
C375   C580    1.385   .     S
C376   C378    1.389   .     A
C376   H377    1.083   .     S
C378   C379    1.392   .     A
C379   H380    1.084   .     S
C381   C382    1.419   .     A
C381   N393    1.438   .     S
C381   C583    1.391   .     S
C383   H384    1.081   .     S
C383   N392    1.367   .     A
C383   C249    1.416   1_655 S
C385   H386    1.081   .     S
C385   N387    1.367   .     A
N387   C388    1.366   .     A
C388   H389    1.081   .     S
C390   N392    1.367   .     A
C390   H391    1.082   .     S
C390   C252    1.417   1_655 S
N393   O394    1.302   .     A
N393   O395    1.302   .     A
N396   O398    1.301   .     A
N396   O397    1.302   .     A
S399   O402    1.681   .     S
S399   C973    1.776   1_554 S
S399   O945    1.504   1_554 S
O400   S263    1.502   1_655 S
O401   S875    1.504   1_655 S
H403   O266    0.991   1_655 S
S404   O405    1.503   .     D
S404   O407    1.683   .     S
S404   O406    1.498   .     D
O407   H408    0.990   .     S
O409   Cu415   1.963   .     S
O409   C411    1.296   .     A
O410   C411    1.290   .     A
O410   Cu416   1.967   .     S
C411   C450    1.460   .     S
O412   Cu415   1.949   .     S
O412   C414    1.295   .     A
O413   Cu416   1.935   .     S
O413   C414    1.297   .     A
C414   C439    1.473   .     S
Cu415  N455    2.013   .     S
Cu415  O419    1.935   .     S
Cu415  Cu416   2.678   .     S
Cu415  O417    1.967   .     S
Cu416  N460    2.013   .     S
Cu416  O420    1.949   .     S
Cu416  O418    1.963   .     S
O417   C421    1.289   .     A
O418   C421    1.289   .     A
O419   C422    1.294   .     A
O420   C422    1.296   .     A
C421   C446    1.441   .     S
C422   C427    1.465   .     S
C423   C438    1.390   .     A
C423   H1038   1.084   1_554 S
C423   C1046   1.403   1_554 S
H424   C438    1.081   .     S
H425   C435    1.084   .     S
H426   C1035   1.084   .     S
C427   C437    1.395   .     A
C427   C438    1.396   .     A
C428   C429    1.390   .     A
C428   H441    1.083   .     S
C428   C439    1.396   .     A
C429   C1042   1.413   .     S
C429   S1079   1.776   .     S
C430   N464    1.432   .     S
C430   C1041   1.413   1_554 S
C430   C1043   1.437   1_554 S
C431   C432    1.423   .     A
C431   C1042   1.437   .     S
C431   C1045   1.435   .     S
C432   C439    1.411   .     A
C432   C436    1.410   .     A
C433   C437    1.405   .     A
C433   C1043   1.435   1_554 S
C433   C1046   1.424   1_554 S
C434   C435    1.390   .     A
C434   C1035   1.403   .     S
C434   C1045   1.424   .     S
C435   C436    1.382   .     A
C436   H442    1.081   .     S
C437   H440    1.072   .     S
C443   S472    1.771   .     S
C443   C450    1.423   .     A
C443   C36     1.385   1_565 S
C444   C446    1.389   .     A
C444   H445    1.083   .     S
C446   C447    1.392   .     A
C447   H448    1.084   .     S
C449   C450    1.419   .     A
C449   N461    1.438   .     S
C449   C39     1.391   1_565 S
C451   H452    1.081   .     S
C451   N460    1.367   .     A
C451   C521    1.416   .     S
C453   H454    1.081   .     S
C453   N455    1.367   .     A
C453   C587    1.416   1_455 S
N455   C456    1.366   .     A
C456   H457    1.081   .     S
C456   C594    1.417   1_455 S
C458   N460    1.367   .     A
C458   H459    1.082   .     S
C458   C524    1.417   .     S
N461   O462    1.302   .     A
N461   O463    1.302   .     A
N464   O466    1.301   .     A
N464   O465    1.302   .     A
S467   O470    1.681   .     S
S467   C1041   1.776   1_554 S
S467   O604    1.502   1_455 S
S467   O1217   1.504   1_454 S
O468   S535    1.502   .     S
O469   S1147   1.504   .     S
O470   H607    0.991   1_455 S
H471   O538    0.991   .     S
S472   O473    1.503   .     D
S472   O475    1.683   .     S
S472   O474    1.498   .     D
O475   H476    0.990   .     S
O477   Cu483   1.963   .     S
O477   C479    1.296   .     A
O478   C479    1.290   .     A
O478   Cu484   1.967   .     S
C479   C518    1.460   .     S
O480   Cu483   1.949   .     S
O480   C482    1.295   .     A
O481   Cu484   1.935   .     S
O481   C482    1.297   .     A
C482   C507    1.473   .     S
Cu483  N523    2.013   .     S
Cu483  O487    1.935   .     S
Cu483  Cu484   2.678   .     S
Cu483  O485    1.967   .     S
Cu484  N528    2.013   .     S
Cu484  O488    1.949   .     S
Cu484  O486    1.963   .     S
O485   C489    1.289   .     A
O486   C489    1.289   .     A
O487   C490    1.294   .     A
O488   C490    1.296   .     A
C489   C514    1.441   .     S
C490   C495    1.465   .     S
C491   C506    1.390   .     A
C491   H1106   1.084   1_554 S
C491   C1114   1.403   1_554 S
H492   C506    1.081   .     S
H493   C503    1.084   .     S
H494   C1103   1.084   .     S
C495   C505    1.395   .     A
C495   C506    1.396   .     A
C496   C497    1.390   .     A
C496   H509    1.083   .     S
C496   C507    1.396   .     A
C497   C1110   1.413   .     S
C497   S1147   1.776   .     S
C498   N532    1.432   .     S
C498   C1109   1.413   1_554 S
C498   C1111   1.437   1_554 S
C499   C500    1.423   .     A
C499   C1110   1.437   .     S
C499   C1113   1.435   .     S
C500   C507    1.411   .     A
C500   C504    1.410   .     A
C501   C505    1.405   .     A
C501   C1111   1.435   1_554 S
C501   C1114   1.424   1_554 S
C502   C503    1.390   .     A
C502   C1103   1.403   .     S
C502   C1113   1.424   .     S
C503   C504    1.382   .     A
C504   H510    1.081   .     S
C505   H508    1.072   .     S
C511   S540    1.771   .     S
C511   C518    1.423   .     A
C511   C104    1.385   1_565 S
C512   C514    1.389   .     A
C512   H513    1.083   .     S
C514   C515    1.392   .     A
C515   H516    1.084   .     S
C517   C518    1.419   .     A
C517   N529    1.438   .     S
C517   C107    1.391   1_565 S
C519   H520    1.081   .     S
C519   N528    1.367   .     A
C519   C589    1.416   .     S
C521   H522    1.081   .     S
C521   N523    1.367   .     A
N523   C524    1.366   .     A
C524   H525    1.081   .     S
C526   N528    1.367   .     A
C526   H527    1.082   .     S
C526   C592    1.417   .     S
N529   O530    1.302   .     A
N529   O531    1.302   .     A
N532   O534    1.301   .     A
N532   O533    1.302   .     A
S535   O538    1.681   .     S
S535   C1109   1.776   1_554 S
S535   O1081   1.504   1_554 S
O536   S603    1.502   .     S
O537   S1215   1.504   .     S
H539   O606    0.991   .     S
S540   O541    1.503   .     D
S540   O543    1.683   .     S
S540   O542    1.498   .     D
O543   H544    0.990   .     S
O545   Cu551   1.963   .     S
O545   C547    1.296   .     A
O546   C547    1.290   .     A
O546   Cu552   1.967   .     S
C547   C586    1.460   .     S
O548   Cu551   1.949   .     S
O548   C550    1.295   .     A
O549   Cu552   1.935   .     S
O549   C550    1.297   .     A
C550   C575    1.473   .     S
Cu551  N591    2.013   .     S
Cu551  O555    1.935   .     S
Cu551  Cu552   2.678   .     S
Cu551  O553    1.967   .     S
Cu552  N596    2.013   .     S
Cu552  O556    1.949   .     S
Cu552  O554    1.963   .     S
O553   C557    1.289   .     A
O554   C557    1.289   .     A
O555   C558    1.294   .     A
O556   C558    1.296   .     A
C557   C582    1.441   .     S
C558   C563    1.465   .     S
C559   C574    1.390   .     A
C559   H1174   1.084   1_554 S
C559   C1182   1.403   1_554 S
H560   C574    1.081   .     S
H561   C571    1.084   .     S
H562   C1171   1.084   .     S
C563   C573    1.395   .     A
C563   C574    1.396   .     A
C564   C565    1.390   .     A
C564   H577    1.083   .     S
C564   C575    1.396   .     A
C565   C1178   1.413   .     S
C565   S1215   1.776   .     S
C566   N600    1.432   .     S
C566   C1177   1.413   1_554 S
C566   C1179   1.437   1_554 S
C567   C568    1.423   .     A
C567   C1178   1.437   .     S
C567   C1181   1.435   .     S
C568   C575    1.411   .     A
C568   C572    1.410   .     A
C569   C573    1.405   .     A
C569   C1179   1.435   1_554 S
C569   C1182   1.424   1_554 S
C570   C571    1.390   .     A
C570   C1171   1.403   .     S
C570   C1181   1.424   .     S
C571   C572    1.382   .     A
C572   H578    1.081   .     S
C573   H576    1.072   .     S
C579   S608    1.771   .     S
C579   C586    1.423   .     A
C579   C172    1.385   1_565 S
C580   C582    1.389   .     A
C580   H581    1.083   .     S
C582   C583    1.392   .     A
C583   H584    1.084   .     S
C585   C586    1.419   .     A
C585   N597    1.438   .     S
C585   C175    1.391   1_565 S
C587   H588    1.081   .     S
C587   N596    1.367   .     A
C587   C453    1.416   1_655 S
C589   H590    1.081   .     S
C589   N591    1.367   .     A
N591   C592    1.366   .     A
C592   H593    1.081   .     S
C594   N596    1.367   .     A
C594   H595    1.082   .     S
C594   C456    1.417   1_655 S
N597   O598    1.302   .     A
N597   O599    1.302   .     A
N600   O602    1.301   .     A
N600   O601    1.302   .     A
S603   O606    1.681   .     S
S603   C1177   1.776   1_554 S
S603   O1149   1.504   1_554 S
O604   S467    1.502   1_655 S
O605   S1079   1.504   1_655 S
H607   O470    0.991   1_655 S
S608   O609    1.503   .     D
S608   O611    1.683   .     S
S608   O610    1.498   .     D
O611   H612    0.990   .     S
O613   Cu619   1.963   .     S
O613   C615    1.296   .     A
O614   C615    1.290   .     A
O614   Cu620   1.967   .     S
C615   C654    1.460   .     S
O616   Cu619   1.949   .     S
O616   C618    1.295   .     A
O617   Cu620   1.935   .     S
O617   C618    1.297   .     A
C618   C643    1.473   .     S
Cu619  N659    2.013   .     S
Cu619  O623    1.935   .     S
Cu619  Cu620   2.678   .     S
Cu619  O621    1.967   .     S
Cu620  N664    2.013   .     S
Cu620  O624    1.949   .     S
Cu620  O622    1.963   .     S
O621   C625    1.289   .     A
O622   C625    1.289   .     A
O623   C626    1.294   .     A
O624   C626    1.296   .     A
C625   C650    1.441   .     S
C626   C631    1.465   .     S
C627   C642    1.390   .     A
H628   C642    1.081   .     S
H629   C639    1.084   .     S
H630   C15     1.084   1_556 S
C631   C641    1.395   .     A
C631   C642    1.396   .     A
C632   C633    1.390   .     A
C632   H645    1.083   .     S
C632   C643    1.396   .     A
C633   C22     1.413   1_556 S
C633   S59     1.776   1_556 S
C634   N668    1.432   .     S
C635   C636    1.423   .     A
C635   C22     1.437   1_556 S
C635   C25     1.435   1_556 S
C636   C643    1.411   .     A
C636   C640    1.410   .     A
C637   C641    1.405   .     A
C638   C639    1.390   .     A
C638   C15     1.403   1_556 S
C638   C25     1.424   1_556 S
C639   C640    1.382   .     A
C640   H646    1.081   .     S
C641   H644    1.072   .     S
C647   S676    1.771   .     S
C647   C654    1.423   .     A
C647   C852    1.385   .     S
C648   C650    1.389   .     A
C648   H649    1.083   .     S
C648   C1055   1.385   1_545 S
C650   C651    1.392   .     A
C651   H652    1.084   .     S
C651   C1061   1.391   1_545 S
C653   C654    1.419   .     A
C653   N665    1.438   .     S
C653   C855    1.391   .     S
C655   H656    1.081   .     S
C655   N664    1.367   .     A
C655   C725    1.416   .     S
C657   H658    1.081   .     S
C657   N659    1.367   .     A
C657   C791    1.416   1_455 S
N659   C660    1.366   .     A
C660   H661    1.081   .     S
C660   C798    1.417   1_455 S
C662   N664    1.367   .     A
C662   H663    1.082   .     S
C662   C728    1.417   .     S
N665   O666    1.302   .     A
N665   O667    1.302   .     A
N668   O670    1.301   .     A
N668   O669    1.302   .     A
S671   O674    1.681   .     S
S671   O808    1.502   1_455 S
S671   O197    1.504   1_455 S
O672   S739    1.502   .     S
O673   S127    1.504   1_556 S
O674   H811    0.991   1_455 S
H675   O742    0.991   .     S
S676   O677    1.503   .     D
S676   O679    1.683   .     S
S676   O678    1.498   .     D
O679   H680    0.990   .     S
O681   Cu687   1.963   .     S
O681   C683    1.296   .     A
O682   C683    1.290   .     A
O682   Cu688   1.967   .     S
C683   C722    1.460   .     S
O684   Cu687   1.949   .     S
O684   C686    1.295   .     A
O685   Cu688   1.935   .     S
O685   C686    1.297   .     A
C686   C711    1.473   .     S
Cu687  N727    2.013   .     S
Cu687  O691    1.935   .     S
Cu687  Cu688   2.678   .     S
Cu687  O689    1.967   .     S
Cu688  N732    2.013   .     S
Cu688  O692    1.949   .     S
Cu688  O690    1.963   .     S
O689   C693    1.289   .     A
O690   C693    1.289   .     A
O691   C694    1.294   .     A
O692   C694    1.296   .     A
C693   C718    1.441   .     S
C694   C699    1.465   .     S
C695   C710    1.390   .     A
H696   C710    1.081   .     S
H697   C707    1.084   .     S
H698   C83     1.084   1_556 S
C699   C709    1.395   .     A
C699   C710    1.396   .     A
C700   C701    1.390   .     A
C700   H713    1.083   .     S
C700   C711    1.396   .     A
C701   C90     1.413   1_556 S
C701   S127    1.776   1_556 S
C702   N736    1.432   .     S
C703   C704    1.423   .     A
C703   C90     1.437   1_556 S
C703   C93     1.435   1_556 S
C704   C711    1.411   .     A
C704   C708    1.410   .     A
C705   C709    1.405   .     A
C706   C707    1.390   .     A
C706   C83     1.403   1_556 S
C706   C93     1.424   1_556 S
C707   C708    1.382   .     A
C708   H714    1.081   .     S
C709   H712    1.072   .     S
C715   S744    1.771   .     S
C715   C722    1.423   .     A
C715   C920    1.385   .     S
C716   C718    1.389   .     A
C716   H717    1.083   .     S
C716   C1123   1.385   1_545 S
C718   C719    1.392   .     A
C719   H720    1.084   .     S
C719   C1129   1.391   1_545 S
C721   C722    1.419   .     A
C721   N733    1.438   .     S
C721   C923    1.391   .     S
C723   H724    1.081   .     S
C723   N732    1.367   .     A
C723   C793    1.416   .     S
C725   H726    1.081   .     S
C725   N727    1.367   .     A
N727   C728    1.366   .     A
C728   H729    1.081   .     S
C730   N732    1.367   .     A
C730   H731    1.082   .     S
C730   C796    1.417   .     S
N733   O734    1.302   .     A
N733   O735    1.302   .     A
N736   O738    1.301   .     A
N736   O737    1.302   .     A
S739   O742    1.681   .     S
O740   S807    1.502   .     S
O741   S195    1.504   1_556 S
H743   O810    0.991   .     S
S744   O745    1.503   .     D
S744   O747    1.683   .     S
S744   O746    1.498   .     D
O747   H748    0.990   .     S
O749   Cu755   1.963   .     S
O749   C751    1.296   .     A
O750   C751    1.290   .     A
O750   Cu756   1.967   .     S
C751   C790    1.460   .     S
O752   Cu755   1.949   .     S
O752   C754    1.295   .     A
O753   Cu756   1.935   .     S
O753   C754    1.297   .     A
C754   C779    1.473   .     S
Cu755  N795    2.013   .     S
Cu755  O759    1.935   .     S
Cu755  Cu756   2.678   .     S
Cu755  O757    1.967   .     S
Cu756  N800    2.013   .     S
Cu756  O760    1.949   .     S
Cu756  O758    1.963   .     S
O757   C761    1.289   .     A
O758   C761    1.289   .     A
O759   C762    1.294   .     A
O760   C762    1.296   .     A
C761   C786    1.441   .     S
C762   C767    1.465   .     S
C763   C778    1.390   .     A
H764   C778    1.081   .     S
H765   C775    1.084   .     S
H766   C151    1.084   1_556 S
C767   C777    1.395   .     A
C767   C778    1.396   .     A
C768   C769    1.390   .     A
C768   H781    1.083   .     S
C768   C779    1.396   .     A
C769   C158    1.413   1_556 S
C769   S195    1.776   1_556 S
C770   N804    1.432   .     S
C771   C772    1.423   .     A
C771   C158    1.437   1_556 S
C771   C161    1.435   1_556 S
C772   C779    1.411   .     A
C772   C776    1.410   .     A
C773   C777    1.405   .     A
C774   C775    1.390   .     A
C774   C151    1.403   1_556 S
C774   C161    1.424   1_556 S
C775   C776    1.382   .     A
C776   H782    1.081   .     S
C777   H780    1.072   .     S
C783   S812    1.771   .     S
C783   C790    1.423   .     A
C783   C988    1.385   .     S
C784   C786    1.389   .     A
C784   H785    1.083   .     S
C784   C1191   1.385   1_545 S
C786   C787    1.392   .     A
C787   H788    1.084   .     S
C787   C1197   1.391   1_545 S
C789   C790    1.419   .     A
C789   N801    1.438   .     S
C789   C991    1.391   .     S
C791   H792    1.081   .     S
C791   N800    1.367   .     A
C791   C657    1.416   1_655 S
C793   H794    1.081   .     S
C793   N795    1.367   .     A
N795   C796    1.366   .     A
C796   H797    1.081   .     S
C798   N800    1.367   .     A
C798   H799    1.082   .     S
C798   C660    1.417   1_655 S
N801   O802    1.302   .     A
N801   O803    1.302   .     A
N804   O806    1.301   .     A
N804   O805    1.302   .     A
S807   O810    1.681   .     S
O808   S671    1.502   1_655 S
O809   S59     1.504   1_656 S
H811   O674    0.991   1_655 S
S812   O813    1.503   .     D
S812   O815    1.683   .     S
S812   O814    1.498   .     D
O815   H816    0.990   .     S
O817   Cu823   1.963   .     S
O817   C819    1.296   .     A
O818   C819    1.290   .     A
O818   Cu824   1.967   .     S
C819   C858    1.460   .     S
O820   Cu823   1.949   .     S
O820   C822    1.295   .     A
O821   Cu824   1.935   .     S
O821   C822    1.297   .     A
C822   C847    1.473   .     S
Cu823  N863    2.013   .     S
Cu823  O827    1.935   .     S
Cu823  Cu824   2.678   .     S
Cu823  O825    1.967   .     S
Cu824  N868    2.013   .     S
Cu824  O828    1.949   .     S
Cu824  O826    1.963   .     S
O825   C829    1.289   .     A
O826   C829    1.289   .     A
O827   C830    1.294   .     A
O828   C830    1.296   .     A
C829   C854    1.441   .     S
C830   C835    1.465   .     S
C831   C846    1.390   .     A
H832   C846    1.081   .     S
H833   C843    1.084   .     S
H834   C219    1.084   1_556 S
C835   C845    1.395   .     A
C835   C846    1.396   .     A
C836   C837    1.390   .     A
C836   H849    1.083   .     S
C836   C847    1.396   .     A
C837   C226    1.413   1_556 S
C837   S263    1.776   1_556 S
C838   N872    1.432   .     S
C839   C840    1.423   .     A
C839   C226    1.437   1_556 S
C839   C229    1.435   1_556 S
C840   C847    1.411   .     A
C840   C844    1.410   .     A
C841   C845    1.405   .     A
C842   C843    1.390   .     A
C842   C219    1.403   1_556 S
C842   C229    1.424   1_556 S
C843   C844    1.382   .     A
C844   H850    1.081   .     S
C845   H848    1.072   .     S
C851   S880    1.771   .     S
C851   C858    1.423   .     A
C851   C1056   1.385   .     S
C852   C854    1.389   .     A
C852   H853    1.083   .     S
C854   C855    1.392   .     A
C855   H856    1.084   .     S
C857   C858    1.419   .     A
C857   N869    1.438   .     S
C857   C1059   1.391   .     S
C859   H860    1.081   .     S
C859   N868    1.367   .     A
C859   C929    1.416   .     S
C861   H862    1.081   .     S
C861   N863    1.367   .     A
C861   C995    1.416   1_455 S
N863   C864    1.366   .     A
C864   H865    1.081   .     S
C864   C1002   1.417   1_455 S
C866   N868    1.367   .     A
C866   H867    1.082   .     S
C866   C932    1.417   .     S
N869   O870    1.302   .     A
N869   O871    1.302   .     A
N872   O874    1.301   .     A
N872   O873    1.302   .     A
S875   O878    1.681   .     S
S875   O1012   1.502   1_455 S
S875   O401    1.504   1_455 S
O876   S943    1.502   .     S
O877   S331    1.504   1_556 S
O878   H1015   0.991   1_455 S
H879   O946    0.991   .     S
S880   O881    1.503   .     D
S880   O883    1.683   .     S
S880   O882    1.498   .     D
O883   H884    0.990   .     S
O885   Cu891   1.963   .     S
O885   C887    1.296   .     A
O886   C887    1.290   .     A
O886   Cu892   1.967   .     S
C887   C926    1.460   .     S
O888   Cu891   1.949   .     S
O888   C890    1.295   .     A
O889   Cu892   1.935   .     S
O889   C890    1.297   .     A
C890   C915    1.473   .     S
Cu891  N931    2.013   .     S
Cu891  O895    1.935   .     S
Cu891  Cu892   2.678   .     S
Cu891  O893    1.967   .     S
Cu892  N936    2.013   .     S
Cu892  O896    1.949   .     S
Cu892  O894    1.963   .     S
O893   C897    1.289   .     A
O894   C897    1.289   .     A
O895   C898    1.294   .     A
O896   C898    1.296   .     A
C897   C922    1.441   .     S
C898   C903    1.465   .     S
C899   C914    1.390   .     A
H900   C914    1.081   .     S
H901   C911    1.084   .     S
H902   C287    1.084   1_556 S
C903   C913    1.395   .     A
C903   C914    1.396   .     A
C904   C905    1.390   .     A
C904   H917    1.083   .     S
C904   C915    1.396   .     A
C905   C294    1.413   1_556 S
C905   S331    1.776   1_556 S
C906   N940    1.432   .     S
C907   C908    1.423   .     A
C907   C294    1.437   1_556 S
C907   C297    1.435   1_556 S
C908   C915    1.411   .     A
C908   C912    1.410   .     A
C909   C913    1.405   .     A
C910   C911    1.390   .     A
C910   C287    1.403   1_556 S
C910   C297    1.424   1_556 S
C911   C912    1.382   .     A
C912   H918    1.081   .     S
C913   H916    1.072   .     S
C919   S948    1.771   .     S
C919   C926    1.423   .     A
C919   C1124   1.385   .     S
C920   C922    1.389   .     A
C920   H921    1.083   .     S
C922   C923    1.392   .     A
C923   H924    1.084   .     S
C925   C926    1.419   .     A
C925   N937    1.438   .     S
C925   C1127   1.391   .     S
C927   H928    1.081   .     S
C927   N936    1.367   .     A
C927   C997    1.416   .     S
C929   H930    1.081   .     S
C929   N931    1.367   .     A
N931   C932    1.366   .     A
C932   H933    1.081   .     S
C934   N936    1.367   .     A
C934   H935    1.082   .     S
C934   C1000   1.417   .     S
N937   O938    1.302   .     A
N937   O939    1.302   .     A
N940   O942    1.301   .     A
N940   O941    1.302   .     A
S943   O946    1.681   .     S
O944   S1011   1.502   .     S
O945   S399    1.504   1_556 S
H947   O1014   0.991   .     S
S948   O949    1.503   .     D
S948   O951    1.683   .     S
S948   O950    1.498   .     D
O951   H952    0.990   .     S
O953   Cu959   1.963   .     S
O953   C955    1.296   .     A
O954   C955    1.290   .     A
O954   Cu960   1.967   .     S
C955   C994    1.460   .     S
O956   Cu959   1.949   .     S
O956   C958    1.295   .     A
O957   Cu960   1.935   .     S
O957   C958    1.297   .     A
C958   C983    1.473   .     S
Cu959  N999    2.013   .     S
Cu959  O963    1.935   .     S
Cu959  Cu960   2.678   .     S
Cu959  O961    1.967   .     S
Cu960  N1004   2.013   .     S
Cu960  O964    1.949   .     S
Cu960  O962    1.963   .     S
O961   C965    1.289   .     A
O962   C965    1.289   .     A
O963   C966    1.294   .     A
O964   C966    1.296   .     A
C965   C990    1.441   .     S
C966   C971    1.465   .     S
C967   C982    1.390   .     A
H968   C982    1.081   .     S
H969   C979    1.084   .     S
H970   C355    1.084   1_556 S
C971   C981    1.395   .     A
C971   C982    1.396   .     A
C972   C973    1.390   .     A
C972   H985    1.083   .     S
C972   C983    1.396   .     A
C973   C362    1.413   1_556 S
C973   S399    1.776   1_556 S
C974   N1008   1.432   .     S
C975   C976    1.423   .     A
C975   C362    1.437   1_556 S
C975   C365    1.435   1_556 S
C976   C983    1.411   .     A
C976   C980    1.410   .     A
C977   C981    1.405   .     A
C978   C979    1.390   .     A
C978   C355    1.403   1_556 S
C978   C365    1.424   1_556 S
C979   C980    1.382   .     A
C980   H986    1.081   .     S
C981   H984    1.072   .     S
C987   S1016   1.771   .     S
C987   C994    1.423   .     A
C987   C1192   1.385   .     S
C988   C990    1.389   .     A
C988   H989    1.083   .     S
C990   C991    1.392   .     A
C991   H992    1.084   .     S
C993   C994    1.419   .     A
C993   N1005   1.438   .     S
C993   C1195   1.391   .     S
C995   H996    1.081   .     S
C995   N1004   1.367   .     A
C995   C861    1.416   1_655 S
C997   H998    1.081   .     S
C997   N999    1.367   .     A
N999   C1000   1.366   .     A
C1000  H1001   1.081   .     S
C1002  N1004   1.367   .     A
C1002  H1003   1.082   .     S
C1002  C864    1.417   1_655 S
N1005  O1006   1.302   .     A
N1005  O1007   1.302   .     A
N1008  O1010   1.301   .     A
N1008  O1009   1.302   .     A
S1011  O1014   1.681   .     S
O1012  S875    1.502   1_655 S
O1013  S263    1.504   1_656 S
H1015  O878    0.991   1_655 S
S1016  O1017   1.503   .     D
S1016  O1019   1.683   .     S
S1016  O1018   1.498   .     D
O1019  H1020   0.990   .     S
O1021  Cu1027  1.963   .     S
O1021  C1023   1.296   .     A
O1022  C1023   1.290   .     A
O1022  Cu1028  1.967   .     S
C1023  C1062   1.460   .     S
O1024  Cu1027  1.949   .     S
O1024  C1026   1.295   .     A
O1025  Cu1028  1.935   .     S
O1025  C1026   1.297   .     A
C1026  C1051   1.473   .     S
Cu1027 N1067   2.013   .     S
Cu1027 O1031   1.935   .     S
Cu1027 Cu1028  2.678   .     S
Cu1027 O1029   1.967   .     S
Cu1028 N1072   2.013   .     S
Cu1028 O1032   1.949   .     S
Cu1028 O1030   1.963   .     S
O1029  C1033   1.289   .     A
O1030  C1033   1.289   .     A
O1031  C1034   1.294   .     A
O1032  C1034   1.296   .     A
C1033  C1058   1.441   .     S
C1034  C1039   1.465   .     S
C1035  C1050   1.390   .     A
H1036  C1050   1.081   .     S
H1037  C1047   1.084   .     S
H1038  C423    1.084   1_556 S
C1039  C1049   1.395   .     A
C1039  C1050   1.396   .     A
C1040  C1041   1.390   .     A
C1040  H1053   1.083   .     S
C1040  C1051   1.396   .     A
C1041  C430    1.413   1_556 S
C1041  S467    1.776   1_556 S
C1042  N1076   1.432   .     S
C1043  C1044   1.423   .     A
C1043  C430    1.437   1_556 S
C1043  C433    1.435   1_556 S
C1044  C1051   1.411   .     A
C1044  C1048   1.410   .     A
C1045  C1049   1.405   .     A
C1046  C1047   1.390   .     A
C1046  C423    1.403   1_556 S
C1046  C433    1.424   1_556 S
C1047  C1048   1.382   .     A
C1048  H1054   1.081   .     S
C1049  H1052   1.072   .     S
C1055  S1084   1.771   .     S
C1055  C1062   1.423   .     A
C1055  C648    1.385   1_565 S
C1056  C1058   1.389   .     A
C1056  H1057   1.083   .     S
C1058  C1059   1.392   .     A
C1059  H1060   1.084   .     S
C1061  C1062   1.419   .     A
C1061  N1073   1.438   .     S
C1061  C651    1.391   1_565 S
C1063  H1064   1.081   .     S
C1063  N1072   1.367   .     A
C1063  C1133   1.416   .     S
C1065  H1066   1.081   .     S
C1065  N1067   1.367   .     A
C1065  C1199   1.416   1_455 S
N1067  C1068   1.366   .     A
C1068  H1069   1.081   .     S
C1068  C1206   1.417   1_455 S
C1070  N1072   1.367   .     A
C1070  H1071   1.082   .     S
C1070  C1136   1.417   .     S
N1073  O1074   1.302   .     A
N1073  O1075   1.302   .     A
N1076  O1078   1.301   .     A
N1076  O1077   1.302   .     A
S1079  O1082   1.681   .     S
S1079  O1216   1.502   1_455 S
S1079  O605    1.504   1_455 S
O1080  S1147   1.502   .     S
O1081  S535    1.504   1_556 S
O1082  H1219   0.991   1_455 S
H1083  O1150   0.991   .     S
S1084  O1085   1.503   .     D
S1084  O1087   1.683   .     S
S1084  O1086   1.498   .     D
O1087  H1088   0.990   .     S
O1089  Cu1095  1.963   .     S
O1089  C1091   1.296   .     A
O1090  C1091   1.290   .     A
O1090  Cu1096  1.967   .     S
C1091  C1130   1.460   .     S
O1092  Cu1095  1.949   .     S
O1092  C1094   1.295   .     A
O1093  Cu1096  1.935   .     S
O1093  C1094   1.297   .     A
C1094  C1119   1.473   .     S
Cu1095 N1135   2.013   .     S
Cu1095 O1099   1.935   .     S
Cu1095 Cu1096  2.678   .     S
Cu1095 O1097   1.967   .     S
Cu1096 N1140   2.013   .     S
Cu1096 O1100   1.949   .     S
Cu1096 O1098   1.963   .     S
O1097  C1101   1.289   .     A
O1098  C1101   1.289   .     A
O1099  C1102   1.294   .     A
O1100  C1102   1.296   .     A
C1101  C1126   1.441   .     S
C1102  C1107   1.465   .     S
C1103  C1118   1.390   .     A
H1104  C1118   1.081   .     S
H1105  C1115   1.084   .     S
H1106  C491    1.084   1_556 S
C1107  C1117   1.395   .     A
C1107  C1118   1.396   .     A
C1108  C1109   1.390   .     A
C1108  H1121   1.083   .     S
C1108  C1119   1.396   .     A
C1109  C498    1.413   1_556 S
C1109  S535    1.776   1_556 S
C1110  N1144   1.432   .     S
C1111  C1112   1.423   .     A
C1111  C498    1.437   1_556 S
C1111  C501    1.435   1_556 S
C1112  C1119   1.411   .     A
C1112  C1116   1.410   .     A
C1113  C1117   1.405   .     A
C1114  C1115   1.390   .     A
C1114  C491    1.403   1_556 S
C1114  C501    1.424   1_556 S
C1115  C1116   1.382   .     A
C1116  H1122   1.081   .     S
C1117  H1120   1.072   .     S
C1123  S1152   1.771   .     S
C1123  C1130   1.423   .     A
C1123  C716    1.385   1_565 S
C1124  C1126   1.389   .     A
C1124  H1125   1.083   .     S
C1126  C1127   1.392   .     A
C1127  H1128   1.084   .     S
C1129  C1130   1.419   .     A
C1129  N1141   1.438   .     S
C1129  C719    1.391   1_565 S
C1131  H1132   1.081   .     S
C1131  N1140   1.367   .     A
C1131  C1201   1.416   .     S
C1133  H1134   1.081   .     S
C1133  N1135   1.367   .     A
N1135  C1136   1.366   .     A
C1136  H1137   1.081   .     S
C1138  N1140   1.367   .     A
C1138  H1139   1.082   .     S
C1138  C1204   1.417   .     S
N1141  O1142   1.302   .     A
N1141  O1143   1.302   .     A
N1144  O1146   1.301   .     A
N1144  O1145   1.302   .     A
S1147  O1150   1.681   .     S
O1148  S1215   1.502   .     S
O1149  S603    1.504   1_556 S
H1151  O1218   0.991   .     S
S1152  O1153   1.503   .     D
S1152  O1155   1.683   .     S
S1152  O1154   1.498   .     D
O1155  H1156   0.990   .     S
O1157  Cu1163  1.963   .     S
O1157  C1159   1.296   .     A
O1158  C1159   1.290   .     A
O1158  Cu1164  1.967   .     S
C1159  C1198   1.460   .     S
O1160  Cu1163  1.949   .     S
O1160  C1162   1.295   .     A
O1161  Cu1164  1.935   .     S
O1161  C1162   1.297   .     A
C1162  C1187   1.473   .     S
Cu1163 N1203   2.013   .     S
Cu1163 O1167   1.935   .     S
Cu1163 Cu1164  2.678   .     S
Cu1163 O1165   1.967   .     S
Cu1164 N1208   2.013   .     S
Cu1164 O1168   1.949   .     S
Cu1164 O1166   1.963   .     S
O1165  C1169   1.289   .     A
O1166  C1169   1.289   .     A
O1167  C1170   1.294   .     A
O1168  C1170   1.296   .     A
C1169  C1194   1.441   .     S
C1170  C1175   1.465   .     S
C1171  C1186   1.390   .     A
H1172  C1186   1.081   .     S
H1173  C1183   1.084   .     S
H1174  C559    1.084   1_556 S
C1175  C1185   1.395   .     A
C1175  C1186   1.396   .     A
C1176  C1177   1.390   .     A
C1176  H1189   1.083   .     S
C1176  C1187   1.396   .     A
C1177  C566    1.413   1_556 S
C1177  S603    1.776   1_556 S
C1178  N1212   1.432   .     S
C1179  C1180   1.423   .     A
C1179  C566    1.437   1_556 S
C1179  C569    1.435   1_556 S
C1180  C1187   1.411   .     A
C1180  C1184   1.410   .     A
C1181  C1185   1.405   .     A
C1182  C1183   1.390   .     A
C1182  C559    1.403   1_556 S
C1182  C569    1.424   1_556 S
C1183  C1184   1.382   .     A
C1184  H1190   1.081   .     S
C1185  H1188   1.072   .     S
C1191  S1220   1.771   .     S
C1191  C1198   1.423   .     A
C1191  C784    1.385   1_565 S
C1192  C1194   1.389   .     A
C1192  H1193   1.083   .     S
C1194  C1195   1.392   .     A
C1195  H1196   1.084   .     S
C1197  C1198   1.419   .     A
C1197  N1209   1.438   .     S
C1197  C787    1.391   1_565 S
C1199  H1200   1.081   .     S
C1199  N1208   1.367   .     A
C1199  C1065   1.416   1_655 S
C1201  H1202   1.081   .     S
C1201  N1203   1.367   .     A
N1203  C1204   1.366   .     A
C1204  H1205   1.081   .     S
C1206  N1208   1.367   .     A
C1206  H1207   1.082   .     S
C1206  C1068   1.417   1_655 S
N1209  O1210   1.302   .     A
N1209  O1211   1.302   .     A
N1212  O1214   1.301   .     A
N1212  O1213   1.302   .     A
S1215  O1218   1.681   .     S
O1216  S1079   1.502   1_655 S
O1217  S467    1.504   1_656 S
H1219  O1082   0.991   1_655 S
S1220  O1221   1.503   .     D
S1220  O1223   1.683   .     S
S1220  O1222   1.498   .     D
O1223  H1224   0.990   .     S
