data_str_m1_o1_o17_pcu_sym.103
_audit_creation_date              2020-01-03
_audit_creation_method            'Materials Studio'
_symmetry_space_group_name_H-M    'P1'
_symmetry_Int_Tables_number       1
_symmetry_cell_setting            triclinic
loop_
_symmetry_equiv_pos_as_xyz
  x,y,z
_cell_length_a                    36.5640
_cell_length_b                    36.5416
_cell_length_c                    34.4445
_cell_angle_alpha                 89.9926
_cell_angle_beta                  90.0120
_cell_angle_gamma                 90.1317
loop_
_atom_site_label
_atom_site_type_symbol
_atom_site_fract_x
_atom_site_fract_y
_atom_site_fract_z
_atom_site_U_iso_or_equiv
_atom_site_adp_type
_atom_site_occupancy
C1     C     0.00061   0.28348   0.41797   0.00000  Uiso   1.00
C2     C     0.23437   0.47031   0.08156   0.00000  Uiso   1.00
C3     C     0.21699   0.49331   0.54134   0.00000  Uiso   1.00
C4     C     0.00609   0.28313   0.45867   0.00000  Uiso   1.00
C5     C     0.49070   0.21759   0.54089   0.00000  Uiso   1.00
C6     C     0.21778   0.49015   0.45914   0.00000  Uiso   1.00
C7     C     0.28301   0.00669   0.54135   0.00000  Uiso   1.00
C8     C     0.24216   0.46722   0.95862   0.00000  Uiso   1.00
C9     C     0.26078   0.03194   0.04082   0.00000  Uiso   1.00
C10    C     0.03247   0.25891   0.95914   0.00000  Uiso   1.00
C11    C     0.46680   0.24430   0.04133   0.00000  Uiso   1.00
C12    C     0.25782   0.03279   0.95861   0.00000  Uiso   1.00
C13    C     0.46950   0.23603   0.91839   0.00000  Uiso   1.00
C14    C     0.23918   0.46807   0.04082   0.00000  Uiso   1.00
C15    C     0.46750   0.24106   0.95912   0.00000  Uiso   1.00
C16    C     0.03318   0.25569   0.04134   0.00000  Uiso   1.00
C17    C     0.09805   0.34807   0.24999   0.00000  Uiso   1.00
C18    C     0.40208   0.15179   0.75024   0.00000  Uiso   1.00
C19    C     0.15193   0.09808   0.25001   0.00000  Uiso   1.00
C20    C     0.34803   0.40181   0.75032   0.00000  Uiso   1.00
C21    C     0.40195   0.15193   0.24998   0.00000  Uiso   1.00
C22    C     0.09793   0.34821   0.75020   0.00000  Uiso   1.00
C23    C     0.34806   0.40192   0.25002   0.00000  Uiso   1.00
C24    C     0.03346   0.25019   0.08203   0.00000  Uiso   1.00
C25    C     0.15189   0.09807   0.74997   0.00000  Uiso   1.00
C26    C     0.09814   0.15184   0.75000   0.00000  Uiso   1.00
C27    C     0.40192   0.34809   0.24998   0.00000  Uiso   1.00
C28    C     0.15209   0.40178   0.74975   0.00000  Uiso   1.00
C29    C     0.34807   0.09808   0.25001   0.00000  Uiso   1.00
C30    C     0.40196   0.34820   0.74969   0.00000  Uiso   1.00
C31    C     0.09808   0.15191   0.24999   0.00000  Uiso   1.00
C32    C     0.34794   0.09820   0.74975   0.00000  Uiso   1.00
C33    C     0.15193   0.40192   0.25001   0.00000  Uiso   1.00
C34    C    -0.00000   0.24999   0.47924   0.00000  Uiso   1.00
C35    C     0.24755   0.46659   0.91792   0.00000  Uiso   1.00
C36    C     0.49999   0.24999   0.52034   0.00000  Uiso   1.00
C37    C     0.25000   0.49999   0.47969   0.00000  Uiso   1.00
C38    C     0.25000  -0.00000   0.52078   0.00000  Uiso   1.00
C39    C     0.24999   0.00000   0.97918   0.00000  Uiso   1.00
C40    C     0.24998   0.00000   0.02028   0.00000  Uiso   1.00
C41    C     0.49999   0.24999   0.97967   0.00000  Uiso   1.00
C42    C     0.49999   0.24999   0.02077   0.00000  Uiso   1.00
C43    C     0.12528   0.43198   0.30902   0.00000  Uiso   1.00
C44    C     0.38338   0.05908   0.70338   0.00000  Uiso   1.00
C45    C     0.05087   0.10782   0.27497   0.00000  Uiso   1.00
C46    C     0.26560   0.02969   0.08156   0.00000  Uiso   1.00
C47    C     0.45042   0.39331   0.72985   0.00000  Uiso   1.00
C48    C     0.37475   0.06800   0.30901   0.00000  Uiso   1.00
C49    C     0.11872   0.43882   0.69984   0.00000  Uiso   1.00
C50    C     0.44924   0.39229   0.27453   0.00000  Uiso   1.00
C51    C     0.04940   0.10686   0.73276   0.00000  Uiso   1.00
C52    C     0.10743   0.04990   0.72733   0.00000  Uiso   1.00
C53    C     0.38940   0.44626   0.28453   0.00000  Uiso   1.00
C54    C     0.06457   0.37792   0.69504   0.00000  Uiso   1.00
C55    C     0.43758   0.11966   0.30190   0.00000  Uiso   1.00
C56    C     0.39300   0.45067   0.73298   0.00000  Uiso   1.00
C57    C     0.03047   0.26393   0.91841   0.00000  Uiso   1.00
C58    C     0.11076   0.05386   0.28489   0.00000  Uiso   1.00
C59    C     0.43773   0.11978   0.69828   0.00000  Uiso   1.00
C60    C     0.06245   0.38032   0.30190   0.00000  Uiso   1.00
C61    C     0.36656   0.19096   0.79649   0.00000  Uiso   1.00
C62    C     0.13025   0.31243   0.19805   0.00000  Uiso   1.00
C63    C     0.29960   0.35675   0.77040   0.00000  Uiso   1.00
C64    C     0.19608   0.13931   0.21513   0.00000  Uiso   1.00
C65    C     0.13157   0.31095   0.79973   0.00000  Uiso   1.00
C66    C     0.36973   0.18759   0.19806   0.00000  Uiso   1.00
C67    C     0.19992   0.14248   0.77289   0.00000  Uiso   1.00
C68    C     0.46652   0.24981   0.08202   0.00000  Uiso   1.00
C69    C     0.30376   0.36054   0.21552   0.00000  Uiso   1.00
C70    C     0.35779   0.30072   0.22542   0.00000  Uiso   1.00
C71    C     0.14313   0.20066   0.76708   0.00000  Uiso   1.00
C72    C     0.31803   0.12477   0.19099   0.00000  Uiso   1.00
C73    C     0.18550   0.37202   0.80485   0.00000  Uiso   1.00
C74    C     0.14210   0.19919   0.22499   0.00000  Uiso   1.00
C75    C     0.35695   0.29929   0.76680   0.00000  Uiso   1.00
C76    C     0.18194   0.37525   0.19098   0.00000  Uiso   1.00
C77    C     0.31237   0.13015   0.80183   0.00000  Uiso   1.00
C78    C     0.49262   0.31783   0.39613   0.00000  Uiso   1.00
C79    C     0.00001   0.25000   0.39793   0.00000  Uiso   1.00
C80    C     0.46425   0.19161   0.60341   0.00000  Uiso   1.00
C81    C     0.19225   0.46328   0.39664   0.00000  Uiso   1.00
C82    C     0.31791   0.49381   0.60389   0.00000  Uiso   1.00
C83    C     0.00740   0.18217   0.39615   0.00000  Uiso   1.00
C84    C     0.03576   0.30836   0.60340   0.00000  Uiso   1.00
C85    C     0.30775   0.03671   0.39666   0.00000  Uiso   1.00
C86    C     0.18209   0.00621   0.60385   0.00000  Uiso   1.00
C87    C     0.24632   0.06813   0.89604   0.00000  Uiso   1.00
C88    C     0.21183   0.44316   0.10334   0.00000  Uiso   1.00
C89    C     0.44128   0.21485   0.89659   0.00000  Uiso   1.00
C90    C     0.49999   0.24999   0.60179   0.00000  Uiso   1.00
C91    C     0.06769   0.24180   0.10388   0.00000  Uiso   1.00
C92    C     0.25365   0.43187   0.89606   0.00000  Uiso   1.00
C93    C     0.28814   0.05685   0.10334   0.00000  Uiso   1.00
C94    C     0.05871   0.28507   0.89662   0.00000  Uiso   1.00
C95    C     0.43229   0.25820   0.10385   0.00000  Uiso   1.00
C96    C     0.25000   0.49999   0.39824   0.00000  Uiso   1.00
C97    C     0.48571   0.21965   0.58162   0.00000  Uiso   1.00
C98    C     0.25000   0.00001   0.60208   0.00000  Uiso   1.00
C99    C     0.25000   0.00000   0.89789   0.00000  Uiso   1.00
C100   C     0.24999   0.00000   0.10175   0.00000  Uiso   1.00
C101   C     0.49998   0.24999   0.89823   0.00000  Uiso   1.00
C102   C     0.49999   0.25000   0.10207   0.00000  Uiso   1.00
C103   C     0.48369   0.18499   0.47959   0.00000  Uiso   1.00
C104   C     0.01438   0.31545   0.51989   0.00000  Uiso   1.00
C105   C     0.31516   0.01550   0.48015   0.00000  Uiso   1.00
C106   C     0.18533   0.48254   0.52042   0.00000  Uiso   1.00
C107   C     0.01631   0.31499   0.47959   0.00000  Uiso   1.00
C108   C     0.21991   0.48520   0.41841   0.00000  Uiso   1.00
C109   C     0.48562   0.18453   0.51989   0.00000  Uiso   1.00
C110   C     0.18484   0.48448   0.48013   0.00000  Uiso   1.00
C111   C     0.31467   0.01745   0.52044   0.00000  Uiso   1.00
C112   C     0.23038   0.43591   0.97954   0.00000  Uiso   1.00
C113   C     0.26752   0.06470   0.01981   0.00000  Uiso   1.00
C114   C     0.06557   0.26361   0.98013   0.00000  Uiso   1.00
C115   C     0.43484   0.23445   0.02041   0.00000  Uiso   1.00
C116   C     0.26959   0.06410   0.97953   0.00000  Uiso   1.00
C117   C     0.23244   0.43531   0.01982   0.00000  Uiso   1.00
C118   C     0.43441   0.23636   0.98010   0.00000  Uiso   1.00
C119   C     0.28345   0.00121   0.58205   0.00000  Uiso   1.00
C120   C     0.06513   0.26554   0.02043   0.00000  Uiso   1.00
C121   C     0.25000  -0.00000   0.35581   0.00000  Uiso   1.00
C122   C     0.25000   0.00000   0.64431   0.00000  Uiso   1.00
C123   C     0.00000   0.25000   0.35569   0.00000  Uiso   1.00
C124   C    -0.00000   0.25000   0.64420   0.00000  Uiso   1.00
C125   C     0.49999   0.25000   0.85581   0.00000  Uiso   1.00
C126   C     0.49999   0.25000   0.14431   0.00000  Uiso   1.00
C127   C     0.25000  -0.00000   0.85567   0.00000  Uiso   1.00
C128   C     0.25000  -0.00000   0.14419   0.00000  Uiso   1.00
C129   C     0.18003   0.06997   0.25000   0.00000  Uiso   1.00
C130   C     0.49941   0.21651   0.41798   0.00000  Uiso   1.00
C131   C     0.31997   0.43002   0.75003   0.00000  Uiso   1.00
C132   C     0.43006   0.18005   0.24999   0.00000  Uiso   1.00
C133   C     0.06994   0.31996   0.75003   0.00000  Uiso   1.00
C134   C     0.31996   0.43003   0.25001   0.00000  Uiso   1.00
C135   C     0.18002   0.06996   0.74998   0.00000  Uiso   1.00
C136   C     0.06994   0.31995   0.24999   0.00000  Uiso   1.00
C137   C     0.43007   0.18004   0.75003   0.00000  Uiso   1.00
C138   C     0.18006   0.43005   0.74995   0.00000  Uiso   1.00
C139   C     0.31995   0.06995   0.25001   0.00000  Uiso   1.00
C140   C     0.43003   0.31998   0.74997   0.00000  Uiso   1.00
C141   C     0.01428   0.28034   0.58161   0.00000  Uiso   1.00
C142   C     0.06997   0.18003   0.25000   0.00000  Uiso   1.00
C143   C     0.31994   0.06995   0.74996   0.00000  Uiso   1.00
C144   C     0.18005   0.43005   0.25001   0.00000  Uiso   1.00
C145   C     0.06998   0.18001   0.75000   0.00000  Uiso   1.00
C146   C     0.43004   0.31997   0.24999   0.00000  Uiso   1.00
C147   C     0.12388   0.40339   0.27811   0.00000  Uiso   1.00
C148   C     0.37904   0.09364   0.72599   0.00000  Uiso   1.00
C149   C     0.08926   0.11643   0.26334   0.00000  Uiso   1.00
C150   C     0.41198   0.38486   0.74195   0.00000  Uiso   1.00
C151   C     0.37613   0.09661   0.27811   0.00000  Uiso   1.00
C152   C     0.28009   0.01479   0.41842   0.00000  Uiso   1.00
C153   C     0.12208   0.40524   0.72424   0.00000  Uiso   1.00
C154   C     0.41080   0.38363   0.26312   0.00000  Uiso   1.00
C155   C     0.08814   0.11527   0.74222   0.00000  Uiso   1.00
C156   C     0.11543   0.08810   0.74090   0.00000  Uiso   1.00
C157   C     0.38305   0.41029   0.26506   0.00000  Uiso   1.00
C158   C     0.09505   0.37766   0.72386   0.00000  Uiso   1.00
C159   C     0.40448   0.12280   0.27674   0.00000  Uiso   1.00
C160   C     0.38463   0.41195   0.74272   0.00000  Uiso   1.00
C161   C     0.11702   0.08976   0.26525   0.00000  Uiso   1.00
C162   C     0.40609   0.12121   0.72559   0.00000  Uiso   1.00
C163   C     0.21655   0.49880   0.58203   0.00000  Uiso   1.00
C164   C     0.09553   0.37719   0.27675   0.00000  Uiso   1.00
C165   C     0.37096   0.15636   0.77398   0.00000  Uiso   1.00
C166   C     0.12716   0.34552   0.22323   0.00000  Uiso   1.00
C167   C     0.33801   0.36515   0.75812   0.00000  Uiso   1.00
C168   C     0.16021   0.13302   0.23476   0.00000  Uiso   1.00
C169   C     0.12803   0.34468   0.77560   0.00000  Uiso   1.00
C170   C     0.37283   0.15449   0.22323   0.00000  Uiso   1.00
C171   C     0.16183   0.13455   0.75906   0.00000  Uiso   1.00
C172   C     0.33972   0.36692   0.23496   0.00000  Uiso   1.00
C173   C     0.36640   0.33917   0.23685   0.00000  Uiso   1.00
C174   C     0.25244   0.03341   0.91791   0.00000  Uiso   1.00
C175   C     0.13469   0.16187   0.75774   0.00000  Uiso   1.00
C176   C     0.34662   0.12615   0.22189   0.00000  Uiso   1.00
C177   C     0.15501   0.37231   0.77604   0.00000  Uiso   1.00
C178   C     0.13353   0.16077   0.23664   0.00000  Uiso   1.00
C179   C     0.36535   0.33804   0.75725   0.00000  Uiso   1.00
C180   C     0.15337   0.37386   0.22189   0.00000  Uiso   1.00
C181   C     0.34395   0.12876   0.77443   0.00000  Uiso   1.00
C182   C     0.49391   0.21685   0.45868   0.00000  Uiso   1.00
C183   C     0.00928   0.28239   0.54088   0.00000  Uiso   1.00
C184   C     0.28222   0.00983   0.45915   0.00000  Uiso   1.00
H185   H     0.45490   0.16171   0.43969   0.00000  Uiso   1.00
H186   H     0.25291   0.09940   0.05887   0.00000  Uiso   1.00
H187   H     0.09922   0.24719   0.94086   0.00000  Uiso   1.00
H188   H     0.41123   0.20592   0.06031   0.00000  Uiso   1.00
H189   H     0.29968   0.08584   0.93974   0.00000  Uiso   1.00
H190   H     0.24704   0.40060   0.05889   0.00000  Uiso   1.00
H191   H     0.40076   0.25276   0.94079   0.00000  Uiso   1.00
H192   H     0.08875   0.29408   0.06032   0.00000  Uiso   1.00
H193   H     0.13661   0.45882   0.30283   0.00000  Uiso   1.00
H194   H     0.35961   0.04542   0.69122   0.00000  Uiso   1.00
H195   H     0.03405   0.12851   0.28878   0.00000  Uiso   1.00
H196   H     0.49836   0.34932   0.55916   0.00000  Uiso   1.00
H197   H     0.46683   0.37243   0.71586   0.00000  Uiso   1.00
H198   H     0.36341   0.04116   0.30282   0.00000  Uiso   1.00
H199   H     0.14297   0.45195   0.68811   0.00000  Uiso   1.00
H200   H     0.46611   0.37167   0.28839   0.00000  Uiso   1.00
H201   H     0.03648   0.12002   0.70808   0.00000  Uiso   1.00
H202   H     0.12907   0.03332   0.71494   0.00000  Uiso   1.00
H203   H     0.37604   0.47081   0.27406   0.00000  Uiso   1.00
H204   H     0.03784   0.36732   0.70292   0.00000  Uiso   1.00
H205   H     0.45132   0.14405   0.31248   0.00000  Uiso   1.00
H206   H     0.38044   0.46319   0.70771   0.00000  Uiso   1.00
H207   H     0.34930   0.00002   0.44092   0.00000  Uiso   1.00
H208   H     0.12405   0.02927   0.27442   0.00000  Uiso   1.00
H209   H     0.46415   0.13061   0.70695   0.00000  Uiso   1.00
H210   H     0.04871   0.35593   0.31249   0.00000  Uiso   1.00
H211   H     0.39031   0.20474   0.80854   0.00000  Uiso   1.00
H212   H     0.10586   0.29871   0.18747   0.00000  Uiso   1.00
H213   H     0.28322   0.37770   0.78431   0.00000  Uiso   1.00
H214   H     0.22067   0.12606   0.22564   0.00000  Uiso   1.00
H215   H     0.10739   0.29757   0.81125   0.00000  Uiso   1.00
H216   H     0.39411   0.20132   0.18748   0.00000  Uiso   1.00
H217   H     0.21610   0.12089   0.78596   0.00000  Uiso   1.00
H218   H     0.16258   0.45331   0.56032   0.00000  Uiso   1.00
H219   H     0.27922   0.37389   0.22601   0.00000  Uiso   1.00
H220   H     0.37840   0.28388   0.21151   0.00000  Uiso   1.00
H221   H     0.12965   0.21382   0.79142   0.00000  Uiso   1.00
H222   H     0.29118   0.11348   0.19720   0.00000  Uiso   1.00
H223   H     0.21223   0.38263   0.79698   0.00000  Uiso   1.00
H224   H     0.12140   0.21600   0.21118   0.00000  Uiso   1.00
H225   H     0.36959   0.28661   0.79192   0.00000  Uiso   1.00
H226   H     0.20879   0.38653   0.19719   0.00000  Uiso   1.00
H227   H     0.28598   0.11920   0.79327   0.00000  Uiso   1.00
H228   H     0.00198   0.32124   0.36646   0.00000  Uiso   1.00
H229   H     0.04511   0.33828   0.43970   0.00000  Uiso   1.00
H230   H     0.47270   0.18307   0.63222   0.00000  Uiso   1.00
H231   H     0.18344   0.47169   0.36791   0.00000  Uiso   1.00
H232   H     0.32115   0.00324   0.63357   0.00000  Uiso   1.00
H233   H     0.49804   0.17876   0.36647   0.00000  Uiso   1.00
H234   H     0.02732   0.31691   0.63220   0.00000  Uiso   1.00
H235   H     0.31656   0.02830   0.36794   0.00000  Uiso   1.00
H236   H     0.17885   0.49681   0.63354   0.00000  Uiso   1.00
H237   H     0.25599   0.07106   0.86641   0.00000  Uiso   1.00
H238   H     0.22024   0.43387   0.13190   0.00000  Uiso   1.00
H239   H     0.43291   0.22336   0.86776   0.00000  Uiso   1.00
H240   H     0.00164   0.15066   0.55918   0.00000  Uiso   1.00
H241   H     0.07121   0.25115   0.13355   0.00000  Uiso   1.00
H242   H     0.24397   0.42894   0.86643   0.00000  Uiso   1.00
H243   H     0.27973   0.06613   0.13189   0.00000  Uiso   1.00
H244   H     0.06711   0.27650   0.86782   0.00000  Uiso   1.00
H245   H     0.42878   0.24886   0.13353   0.00000  Uiso   1.00
H246   H     0.15069   0.49995   0.44088   0.00000  Uiso   1.00
H247   H     0.33742   0.04669   0.56033   0.00000  Uiso   1.00
H248   H     0.20028   0.41417   0.93974   0.00000  Uiso   1.00
O249   O     0.25000  -0.00000   0.25000   0.00000  Uiso   1.00
O250   O     0.25000   0.46964   0.66245   0.00000  Uiso   1.00
O251   O     0.31599   0.14181   0.83483   0.00000  Uiso   1.00
O252   O     0.47396   0.34192   0.41058   0.00000  Uiso   1.00
O253   O     0.43609   0.17891   0.58986   0.00000  Uiso   1.00
O254   O     0.18015   0.43481   0.41013   0.00000  Uiso   1.00
O255   O     0.34231   0.47557   0.58944   0.00000  Uiso   1.00
O256   O     0.02605   0.15807   0.41062   0.00000  Uiso   1.00
O257   O     0.06393   0.32103   0.58985   0.00000  Uiso   1.00
O258   O     0.31985   0.06517   0.41015   0.00000  Uiso   1.00
O259   O     0.15768   0.02443   0.58937   0.00000  Uiso   1.00
O260   O     0.22887   0.09316   0.91040   0.00000  Uiso   1.00
O261   O     0.46963   0.25000   0.33755   0.00000  Uiso   1.00
O262   O     0.18291   0.43203   0.09005   0.00000  Uiso   1.00
O263   O     0.42824   0.18685   0.91017   0.00000  Uiso   1.00
O264   O     0.09154   0.22284   0.08944   0.00000  Uiso   1.00
O265   O     0.27109   0.40684   0.91044   0.00000  Uiso   1.00
O266   O     0.31706   0.06799   0.09006   0.00000  Uiso   1.00
O267   O     0.07174   0.31310   0.91015   0.00000  Uiso   1.00
O268   O     0.40843   0.27715   0.08939   0.00000  Uiso   1.00
O269   O     0.03036   0.25000   0.66245   0.00000  Uiso   1.00
O270   O    -0.00000   0.21964   0.83755   0.00000  Uiso   1.00
O271   O    -0.00000   0.28037   0.16245   0.00000  Uiso   1.00
O272   O     0.28036  -0.00000   0.83755   0.00000  Uiso   1.00
O273   O     0.21963   0.00000   0.16245   0.00000  Uiso   1.00
O274   O    -0.00000   0.28037   0.83755   0.00000  Uiso   1.00
O275   O    -0.00000   0.21964   0.16245   0.00000  Uiso   1.00
O276   O     0.21963  -0.00000   0.83755   0.00000  Uiso   1.00
O277   O     0.25000   0.00000   0.75000   0.00000  Uiso   1.00
O278   O     0.28036   0.00000   0.16245   0.00000  Uiso   1.00
O279   O     0.20724   0.07308   0.27302   0.00000  Uiso   1.00
O280   O     0.29275   0.42693   0.72698   0.00000  Uiso   1.00
O281   O     0.42692   0.20725   0.27302   0.00000  Uiso   1.00
O282   O     0.07307   0.29276   0.72698   0.00000  Uiso   1.00
O283   O     0.29275   0.42693   0.27302   0.00000  Uiso   1.00
O284   O     0.20724   0.07308   0.72698   0.00000  Uiso   1.00
O285   O     0.07307   0.29276   0.27302   0.00000  Uiso   1.00
O286   O     0.42692   0.20725   0.72698   0.00000  Uiso   1.00
O287   O     0.20724   0.42693   0.72698   0.00000  Uiso   1.00
O288   O     0.00000   0.25000   0.25000   0.00000  Uiso   1.00
O289   O     0.29275   0.07308   0.27302   0.00000  Uiso   1.00
O290   O     0.42692   0.29276   0.72698   0.00000  Uiso   1.00
O291   O     0.07307   0.20725   0.27302   0.00000  Uiso   1.00
O292   O     0.29275   0.07308   0.72698   0.00000  Uiso   1.00
O293   O     0.20724   0.42693   0.27302   0.00000  Uiso   1.00
O294   O     0.07307   0.20725   0.72698   0.00000  Uiso   1.00
O295   O     0.42692   0.29276   0.27302   0.00000  Uiso   1.00
O296   O     0.45724   0.32308   0.77302   0.00000  Uiso   1.00
O297   O     0.04275   0.17693   0.22698   0.00000  Uiso   1.00
O298   O     0.17692   0.45725   0.77302   0.00000  Uiso   1.00
O299   O     0.00000   0.25000   0.75000   0.00000  Uiso   1.00
O300   O     0.32307   0.04275   0.22698   0.00000  Uiso   1.00
O301   O     0.04275   0.17693   0.77302   0.00000  Uiso   1.00
O302   O     0.45724   0.32308   0.22698   0.00000  Uiso   1.00
O303   O     0.32307   0.04275   0.77302   0.00000  Uiso   1.00
O304   O     0.17692   0.45725   0.22698   0.00000  Uiso   1.00
O305   O     0.45724   0.17693   0.22698   0.00000  Uiso   1.00
O306   O     0.04275   0.32308   0.77302   0.00000  Uiso   1.00
O307   O     0.17692   0.04276   0.22698   0.00000  Uiso   1.00
O308   O     0.32307   0.45725   0.77302   0.00000  Uiso   1.00
O309   O     0.04275   0.32308   0.22698   0.00000  Uiso   1.00
O310   O     0.25000   0.46964   0.33755   0.00000  Uiso   1.00
O311   O     0.45724   0.17693   0.77302   0.00000  Uiso   1.00
O312   O     0.32307   0.45725   0.22698   0.00000  Uiso   1.00
O313   O     0.17692   0.04276   0.77302   0.00000  Uiso   1.00
O314   O     0.47031   0.15388   0.46185   0.00000  Uiso   1.00
O315   O     0.01627   0.34927   0.53755   0.00000  Uiso   1.00
O316   O     0.34893   0.01797   0.46249   0.00000  Uiso   1.00
O317   O     0.15448   0.46859   0.53816   0.00000  Uiso   1.00
O318   O     0.02969   0.34611   0.46185   0.00000  Uiso   1.00
O319   O     0.48373   0.15072   0.53756   0.00000  Uiso   1.00
O320   O     0.15107   0.48200   0.46245   0.00000  Uiso   1.00
O321   O     0.25000   0.03036   0.66245   0.00000  Uiso   1.00
O322   O     0.34552   0.03140   0.53818   0.00000  Uiso   1.00
O323   O     0.21536   0.40554   0.96182   0.00000  Uiso   1.00
O324   O     0.27098   0.09841   0.03744   0.00000  Uiso   1.00
O325   O     0.09938   0.26510   0.96246   0.00000  Uiso   1.00
O326   O     0.40359   0.22143   0.03815   0.00000  Uiso   1.00
O327   O     0.28460   0.09447   0.96182   0.00000  Uiso   1.00
O328   O     0.22897   0.40160   0.03745   0.00000  Uiso   1.00
O329   O     0.40059   0.23486   0.96243   0.00000  Uiso   1.00
O330   O     0.09639   0.27856   0.03817   0.00000  Uiso   1.00
O331   O     0.11537   0.42530   0.34213   0.00000  Uiso   1.00
O332   O     0.03036   0.25000   0.33755   0.00000  Uiso   1.00
O333   O     0.41325   0.04460   0.69973   0.00000  Uiso   1.00
O334   O     0.03717   0.07809   0.26772   0.00000  Uiso   1.00
O335   O     0.46462   0.42300   0.73592   0.00000  Uiso   1.00
O336   O     0.38467   0.07467   0.34212   0.00000  Uiso   1.00
O337   O     0.08905   0.45315   0.69418   0.00000  Uiso   1.00
O338   O     0.46290   0.42198   0.26703   0.00000  Uiso   1.00
O339   O     0.03117   0.08722   0.75396   0.00000  Uiso   1.00
O340   O     0.07715   0.03610   0.73008   0.00000  Uiso   1.00
O341   O     0.40836   0.44853   0.31362   0.00000  Uiso   1.00
O342   O     0.06950   0.38823   0.66173   0.00000  Uiso   1.00
O343   O     0.46963   0.25000   0.66245   0.00000  Uiso   1.00
O344   O     0.45085   0.08987   0.30950   0.00000  Uiso   1.00
O345   O     0.41186   0.46934   0.75453   0.00000  Uiso   1.00
O346   O     0.09196   0.05168   0.31409   0.00000  Uiso   1.00
O347   O     0.43415   0.10819   0.66525   0.00000  Uiso   1.00
O348   O     0.04918   0.41010   0.30950   0.00000  Uiso   1.00
O349   O     0.33666   0.20536   0.80017   0.00000  Uiso   1.00
O350   O     0.16000   0.29914   0.19042   0.00000  Uiso   1.00
O351   O     0.28540   0.32701   0.76459   0.00000  Uiso   1.00
O352   O     0.19823   0.15809   0.18590   0.00000  Uiso   1.00
O353   O     0.16131   0.29676   0.80531   0.00000  Uiso   1.00
O354   O     0.25000   0.03036   0.33755   0.00000  Uiso   1.00
O355   O     0.33997   0.20089   0.19044   0.00000  Uiso   1.00
O356   O     0.21405   0.17257   0.76956   0.00000  Uiso   1.00
O357   O     0.30147   0.34157   0.18644   0.00000  Uiso   1.00
O358   O     0.32815   0.28699   0.23295   0.00000  Uiso   1.00
O359   O     0.16313   0.21871   0.74610   0.00000  Uiso   1.00
O360   O     0.32470   0.13464   0.15787   0.00000  Uiso   1.00
O361   O     0.18059   0.36165   0.83815   0.00000  Uiso   1.00
O362   O     0.17181   0.21291   0.23223   0.00000  Uiso   1.00
O363   O     0.33796   0.28077   0.74522   0.00000  Uiso   1.00
O364   O     0.17525   0.36539   0.15786   0.00000  Uiso   1.00
Zn365  Zn    0.20659  -0.00000   0.21735   0.00000  Uiso   1.00
Zn366  Zn    0.04340   0.25000   0.28265   0.00000  Uiso   1.00
Zn367  Zn    0.25000   0.45660   0.71735   0.00000  Uiso   1.00
Zn368  Zn    0.25000   0.04340   0.28265   0.00000  Uiso   1.00
Zn369  Zn    0.04340   0.25000   0.71735   0.00000  Uiso   1.00
Zn370  Zn    0.45659   0.25000   0.28265   0.00000  Uiso   1.00
Zn371  Zn    0.25000   0.04340   0.71735   0.00000  Uiso   1.00
Zn372  Zn    0.25000   0.45660   0.28265   0.00000  Uiso   1.00
Zn373  Zn    0.29340  -0.00000   0.78265   0.00000  Uiso   1.00
Zn374  Zn    0.00000   0.20660   0.21735   0.00000  Uiso   1.00
Zn375  Zn    0.00000   0.29341   0.78265   0.00000  Uiso   1.00
Zn376  Zn    0.29340  -0.00000   0.21735   0.00000  Uiso   1.00
Zn377  Zn    0.20659  -0.00000   0.78265   0.00000  Uiso   1.00
Zn378  Zn    0.00000   0.29341   0.21735   0.00000  Uiso   1.00
Zn379  Zn    0.00000   0.20660   0.78265   0.00000  Uiso   1.00
Zn380  Zn    0.45659   0.25000   0.71735   0.00000  Uiso   1.00
C381   C     0.50061   0.28348   0.41797   0.00000  Uiso   1.00
C382   C     0.73437   0.47031   0.08156   0.00000  Uiso   1.00
C383   C     0.71699   0.49331   0.54134   0.00000  Uiso   1.00
C384   C     0.50609   0.28313   0.45867   0.00000  Uiso   1.00
C385   C     0.99070   0.21759   0.54089   0.00000  Uiso   1.00
C386   C     0.71778   0.49015   0.45914   0.00000  Uiso   1.00
C387   C     0.78301   0.00669   0.54135   0.00000  Uiso   1.00
C388   C     0.74216   0.46722   0.95862   0.00000  Uiso   1.00
C389   C     0.76078   0.03194   0.04082   0.00000  Uiso   1.00
C390   C     0.53247   0.25891   0.95914   0.00000  Uiso   1.00
C391   C     0.96680   0.24430   0.04133   0.00000  Uiso   1.00
C392   C     0.75782   0.03279   0.95861   0.00000  Uiso   1.00
C393   C     0.96950   0.23603   0.91839   0.00000  Uiso   1.00
C394   C     0.73918   0.46807   0.04082   0.00000  Uiso   1.00
C395   C     0.96750   0.24106   0.95912   0.00000  Uiso   1.00
C396   C     0.53318   0.25569   0.04134   0.00000  Uiso   1.00
C397   C     0.59805   0.34807   0.24999   0.00000  Uiso   1.00
C398   C     0.90208   0.15179   0.75024   0.00000  Uiso   1.00
C399   C     0.65193   0.09808   0.25001   0.00000  Uiso   1.00
C400   C     0.84803   0.40181   0.75032   0.00000  Uiso   1.00
C401   C     0.90195   0.15193   0.24998   0.00000  Uiso   1.00
C402   C     0.59793   0.34821   0.75020   0.00000  Uiso   1.00
C403   C     0.84806   0.40192   0.25002   0.00000  Uiso   1.00
C404   C     0.53346   0.25019   0.08203   0.00000  Uiso   1.00
C405   C     0.65189   0.09807   0.74997   0.00000  Uiso   1.00
C406   C     0.59814   0.15184   0.75000   0.00000  Uiso   1.00
C407   C     0.90192   0.34809   0.24998   0.00000  Uiso   1.00
C408   C     0.65209   0.40178   0.74975   0.00000  Uiso   1.00
C409   C     0.84807   0.09808   0.25001   0.00000  Uiso   1.00
C410   C     0.90196   0.34820   0.74969   0.00000  Uiso   1.00
C411   C     0.59808   0.15191   0.24999   0.00000  Uiso   1.00
C412   C     0.84794   0.09820   0.74975   0.00000  Uiso   1.00
C413   C     0.65193   0.40192   0.25001   0.00000  Uiso   1.00
C414   C     0.50000   0.24999   0.47924   0.00000  Uiso   1.00
C415   C     0.74755   0.46659   0.91792   0.00000  Uiso   1.00
C416   C     0.99999   0.24999   0.52034   0.00000  Uiso   1.00
C417   C     0.75000   0.49999   0.47969   0.00000  Uiso   1.00
C418   C     0.75000  -0.00000   0.52078   0.00000  Uiso   1.00
C419   C     0.74999   0.00000   0.97918   0.00000  Uiso   1.00
C420   C     0.74998   0.00000   0.02028   0.00000  Uiso   1.00
C421   C     0.99999   0.24999   0.97967   0.00000  Uiso   1.00
C422   C     0.99999   0.24999   0.02077   0.00000  Uiso   1.00
C423   C     0.62528   0.43198   0.30902   0.00000  Uiso   1.00
C424   C     0.88338   0.05908   0.70338   0.00000  Uiso   1.00
C425   C     0.55087   0.10782   0.27497   0.00000  Uiso   1.00
C426   C     0.76560   0.02969   0.08156   0.00000  Uiso   1.00
C427   C     0.95042   0.39331   0.72985   0.00000  Uiso   1.00
C428   C     0.87475   0.06800   0.30901   0.00000  Uiso   1.00
C429   C     0.61872   0.43882   0.69984   0.00000  Uiso   1.00
C430   C     0.94924   0.39229   0.27453   0.00000  Uiso   1.00
C431   C     0.54940   0.10686   0.73276   0.00000  Uiso   1.00
C432   C     0.60743   0.04990   0.72733   0.00000  Uiso   1.00
C433   C     0.88940   0.44626   0.28453   0.00000  Uiso   1.00
C434   C     0.56457   0.37792   0.69504   0.00000  Uiso   1.00
C435   C     0.93758   0.11966   0.30190   0.00000  Uiso   1.00
C436   C     0.89300   0.45067   0.73298   0.00000  Uiso   1.00
C437   C     0.53047   0.26393   0.91841   0.00000  Uiso   1.00
C438   C     0.61076   0.05386   0.28489   0.00000  Uiso   1.00
C439   C     0.93773   0.11978   0.69828   0.00000  Uiso   1.00
C440   C     0.56245   0.38032   0.30190   0.00000  Uiso   1.00
C441   C     0.86656   0.19096   0.79649   0.00000  Uiso   1.00
C442   C     0.63025   0.31243   0.19805   0.00000  Uiso   1.00
C443   C     0.79960   0.35675   0.77040   0.00000  Uiso   1.00
C444   C     0.69608   0.13931   0.21513   0.00000  Uiso   1.00
C445   C     0.63157   0.31095   0.79973   0.00000  Uiso   1.00
C446   C     0.86973   0.18759   0.19806   0.00000  Uiso   1.00
C447   C     0.69992   0.14248   0.77289   0.00000  Uiso   1.00
C448   C     0.96652   0.24981   0.08202   0.00000  Uiso   1.00
C449   C     0.80376   0.36054   0.21552   0.00000  Uiso   1.00
C450   C     0.85779   0.30072   0.22542   0.00000  Uiso   1.00
C451   C     0.64313   0.20066   0.76708   0.00000  Uiso   1.00
C452   C     0.81803   0.12477   0.19099   0.00000  Uiso   1.00
C453   C     0.68550   0.37202   0.80485   0.00000  Uiso   1.00
C454   C     0.64210   0.19919   0.22499   0.00000  Uiso   1.00
C455   C     0.85695   0.29929   0.76680   0.00000  Uiso   1.00
C456   C     0.68194   0.37525   0.19098   0.00000  Uiso   1.00
C457   C     0.81237   0.13015   0.80183   0.00000  Uiso   1.00
C458   C     0.99262   0.31783   0.39613   0.00000  Uiso   1.00
C459   C     0.50001   0.25000   0.39793   0.00000  Uiso   1.00
C460   C     0.96425   0.19161   0.60341   0.00000  Uiso   1.00
C461   C     0.69225   0.46328   0.39664   0.00000  Uiso   1.00
C462   C     0.81791   0.49381   0.60389   0.00000  Uiso   1.00
C463   C     0.50740   0.18217   0.39615   0.00000  Uiso   1.00
C464   C     0.53576   0.30836   0.60340   0.00000  Uiso   1.00
C465   C     0.80775   0.03671   0.39666   0.00000  Uiso   1.00
C466   C     0.68209   0.00621   0.60385   0.00000  Uiso   1.00
C467   C     0.74632   0.06813   0.89604   0.00000  Uiso   1.00
C468   C     0.71183   0.44316   0.10334   0.00000  Uiso   1.00
C469   C     0.94128   0.21485   0.89659   0.00000  Uiso   1.00
C470   C     0.99999   0.24999   0.60179   0.00000  Uiso   1.00
C471   C     0.56769   0.24180   0.10388   0.00000  Uiso   1.00
C472   C     0.75365   0.43187   0.89606   0.00000  Uiso   1.00
C473   C     0.78814   0.05685   0.10334   0.00000  Uiso   1.00
C474   C     0.55871   0.28507   0.89662   0.00000  Uiso   1.00
C475   C     0.93229   0.25820   0.10385   0.00000  Uiso   1.00
C476   C     0.75000   0.49999   0.39824   0.00000  Uiso   1.00
C477   C     0.98571   0.21965   0.58162   0.00000  Uiso   1.00
C478   C     0.75000   0.00001   0.60208   0.00000  Uiso   1.00
C479   C     0.75000   0.00000   0.89789   0.00000  Uiso   1.00
C480   C     0.74999   0.00000   0.10175   0.00000  Uiso   1.00
C481   C     0.99998   0.24999   0.89823   0.00000  Uiso   1.00
C482   C     0.99999   0.25000   0.10207   0.00000  Uiso   1.00
C483   C     0.98369   0.18499   0.47959   0.00000  Uiso   1.00
C484   C     0.51438   0.31545   0.51989   0.00000  Uiso   1.00
C485   C     0.81516   0.01550   0.48015   0.00000  Uiso   1.00
C486   C     0.68533   0.48254   0.52042   0.00000  Uiso   1.00
C487   C     0.51631   0.31499   0.47959   0.00000  Uiso   1.00
C488   C     0.71991   0.48520   0.41841   0.00000  Uiso   1.00
C489   C     0.98562   0.18453   0.51989   0.00000  Uiso   1.00
C490   C     0.68484   0.48448   0.48013   0.00000  Uiso   1.00
C491   C     0.81467   0.01745   0.52044   0.00000  Uiso   1.00
C492   C     0.73038   0.43591   0.97954   0.00000  Uiso   1.00
C493   C     0.76752   0.06470   0.01981   0.00000  Uiso   1.00
C494   C     0.56557   0.26361   0.98013   0.00000  Uiso   1.00
C495   C     0.93484   0.23445   0.02041   0.00000  Uiso   1.00
C496   C     0.76959   0.06410   0.97953   0.00000  Uiso   1.00
C497   C     0.73244   0.43531   0.01982   0.00000  Uiso   1.00
C498   C     0.93441   0.23636   0.98010   0.00000  Uiso   1.00
C499   C     0.78345   0.00121   0.58205   0.00000  Uiso   1.00
C500   C     0.56513   0.26554   0.02043   0.00000  Uiso   1.00
C501   C     0.75000  -0.00000   0.35581   0.00000  Uiso   1.00
C502   C     0.75000   0.00000   0.64431   0.00000  Uiso   1.00
C503   C     0.50000   0.25000   0.35569   0.00000  Uiso   1.00
C504   C     0.50000   0.25000   0.64420   0.00000  Uiso   1.00
C505   C     0.99999   0.25000   0.85581   0.00000  Uiso   1.00
C506   C     0.99999   0.25000   0.14431   0.00000  Uiso   1.00
C507   C     0.75000  -0.00000   0.85567   0.00000  Uiso   1.00
C508   C     0.75000  -0.00000   0.14419   0.00000  Uiso   1.00
C509   C     0.68003   0.06997   0.25000   0.00000  Uiso   1.00
C510   C     0.99941   0.21651   0.41798   0.00000  Uiso   1.00
C511   C     0.81997   0.43002   0.75003   0.00000  Uiso   1.00
C512   C     0.93006   0.18005   0.24999   0.00000  Uiso   1.00
C513   C     0.56994   0.31996   0.75003   0.00000  Uiso   1.00
C514   C     0.81996   0.43003   0.25001   0.00000  Uiso   1.00
C515   C     0.68002   0.06996   0.74998   0.00000  Uiso   1.00
C516   C     0.56994   0.31995   0.24999   0.00000  Uiso   1.00
C517   C     0.93007   0.18004   0.75003   0.00000  Uiso   1.00
C518   C     0.68006   0.43005   0.74995   0.00000  Uiso   1.00
C519   C     0.81995   0.06995   0.25001   0.00000  Uiso   1.00
C520   C     0.93003   0.31998   0.74997   0.00000  Uiso   1.00
C521   C     0.51428   0.28034   0.58161   0.00000  Uiso   1.00
C522   C     0.56997   0.18003   0.25000   0.00000  Uiso   1.00
C523   C     0.81994   0.06995   0.74996   0.00000  Uiso   1.00
C524   C     0.68005   0.43005   0.25001   0.00000  Uiso   1.00
C525   C     0.56998   0.18001   0.75000   0.00000  Uiso   1.00
C526   C     0.93004   0.31997   0.24999   0.00000  Uiso   1.00
C527   C     0.62388   0.40339   0.27811   0.00000  Uiso   1.00
C528   C     0.87904   0.09364   0.72599   0.00000  Uiso   1.00
C529   C     0.58926   0.11643   0.26334   0.00000  Uiso   1.00
C530   C     0.91198   0.38486   0.74195   0.00000  Uiso   1.00
C531   C     0.87613   0.09661   0.27811   0.00000  Uiso   1.00
C532   C     0.78009   0.01479   0.41842   0.00000  Uiso   1.00
C533   C     0.62208   0.40524   0.72424   0.00000  Uiso   1.00
C534   C     0.91080   0.38363   0.26312   0.00000  Uiso   1.00
C535   C     0.58814   0.11527   0.74222   0.00000  Uiso   1.00
C536   C     0.61543   0.08810   0.74090   0.00000  Uiso   1.00
C537   C     0.88305   0.41029   0.26506   0.00000  Uiso   1.00
C538   C     0.59505   0.37766   0.72386   0.00000  Uiso   1.00
C539   C     0.90448   0.12280   0.27674   0.00000  Uiso   1.00
C540   C     0.88463   0.41195   0.74272   0.00000  Uiso   1.00
C541   C     0.61702   0.08976   0.26525   0.00000  Uiso   1.00
C542   C     0.90609   0.12121   0.72559   0.00000  Uiso   1.00
C543   C     0.71655   0.49880   0.58203   0.00000  Uiso   1.00
C544   C     0.59553   0.37719   0.27675   0.00000  Uiso   1.00
C545   C     0.87096   0.15636   0.77398   0.00000  Uiso   1.00
C546   C     0.62716   0.34552   0.22323   0.00000  Uiso   1.00
C547   C     0.83801   0.36515   0.75812   0.00000  Uiso   1.00
C548   C     0.66021   0.13302   0.23476   0.00000  Uiso   1.00
C549   C     0.62803   0.34468   0.77560   0.00000  Uiso   1.00
C550   C     0.87283   0.15449   0.22323   0.00000  Uiso   1.00
C551   C     0.66183   0.13455   0.75906   0.00000  Uiso   1.00
C552   C     0.83972   0.36692   0.23496   0.00000  Uiso   1.00
C553   C     0.86640   0.33917   0.23685   0.00000  Uiso   1.00
C554   C     0.75244   0.03341   0.91791   0.00000  Uiso   1.00
C555   C     0.63469   0.16187   0.75774   0.00000  Uiso   1.00
C556   C     0.84662   0.12615   0.22189   0.00000  Uiso   1.00
C557   C     0.65501   0.37231   0.77604   0.00000  Uiso   1.00
C558   C     0.63353   0.16077   0.23664   0.00000  Uiso   1.00
C559   C     0.86535   0.33804   0.75725   0.00000  Uiso   1.00
C560   C     0.65337   0.37386   0.22189   0.00000  Uiso   1.00
C561   C     0.84395   0.12876   0.77443   0.00000  Uiso   1.00
C562   C     0.99391   0.21685   0.45868   0.00000  Uiso   1.00
C563   C     0.50928   0.28239   0.54088   0.00000  Uiso   1.00
C564   C     0.78222   0.00983   0.45915   0.00000  Uiso   1.00
H565   H     0.95490   0.16171   0.43969   0.00000  Uiso   1.00
H566   H     0.75291   0.09940   0.05887   0.00000  Uiso   1.00
H567   H     0.59922   0.24719   0.94086   0.00000  Uiso   1.00
H568   H     0.91123   0.20592   0.06031   0.00000  Uiso   1.00
H569   H     0.79968   0.08584   0.93974   0.00000  Uiso   1.00
H570   H     0.74704   0.40060   0.05889   0.00000  Uiso   1.00
H571   H     0.90076   0.25276   0.94079   0.00000  Uiso   1.00
H572   H     0.58875   0.29408   0.06032   0.00000  Uiso   1.00
H573   H     0.63661   0.45882   0.30283   0.00000  Uiso   1.00
H574   H     0.85961   0.04542   0.69122   0.00000  Uiso   1.00
H575   H     0.53405   0.12851   0.28878   0.00000  Uiso   1.00
H576   H     0.99836   0.34932   0.55916   0.00000  Uiso   1.00
H577   H     0.96683   0.37243   0.71586   0.00000  Uiso   1.00
H578   H     0.86341   0.04116   0.30282   0.00000  Uiso   1.00
H579   H     0.64297   0.45195   0.68811   0.00000  Uiso   1.00
H580   H     0.96611   0.37167   0.28839   0.00000  Uiso   1.00
H581   H     0.53648   0.12002   0.70808   0.00000  Uiso   1.00
H582   H     0.62907   0.03332   0.71494   0.00000  Uiso   1.00
H583   H     0.87604   0.47081   0.27406   0.00000  Uiso   1.00
H584   H     0.53784   0.36732   0.70292   0.00000  Uiso   1.00
H585   H     0.95132   0.14405   0.31248   0.00000  Uiso   1.00
H586   H     0.88044   0.46319   0.70771   0.00000  Uiso   1.00
H587   H     0.84930   0.00002   0.44092   0.00000  Uiso   1.00
H588   H     0.62405   0.02927   0.27442   0.00000  Uiso   1.00
H589   H     0.96415   0.13061   0.70695   0.00000  Uiso   1.00
H590   H     0.54871   0.35593   0.31249   0.00000  Uiso   1.00
H591   H     0.89031   0.20474   0.80854   0.00000  Uiso   1.00
H592   H     0.60586   0.29871   0.18747   0.00000  Uiso   1.00
H593   H     0.78322   0.37770   0.78431   0.00000  Uiso   1.00
H594   H     0.72067   0.12606   0.22564   0.00000  Uiso   1.00
H595   H     0.60739   0.29757   0.81125   0.00000  Uiso   1.00
H596   H     0.89411   0.20132   0.18748   0.00000  Uiso   1.00
H597   H     0.71610   0.12089   0.78596   0.00000  Uiso   1.00
H598   H     0.66258   0.45331   0.56032   0.00000  Uiso   1.00
H599   H     0.77922   0.37389   0.22601   0.00000  Uiso   1.00
H600   H     0.87840   0.28388   0.21151   0.00000  Uiso   1.00
H601   H     0.62965   0.21382   0.79142   0.00000  Uiso   1.00
H602   H     0.79118   0.11348   0.19720   0.00000  Uiso   1.00
H603   H     0.71223   0.38263   0.79698   0.00000  Uiso   1.00
H604   H     0.62140   0.21600   0.21118   0.00000  Uiso   1.00
H605   H     0.86959   0.28661   0.79192   0.00000  Uiso   1.00
H606   H     0.70879   0.38653   0.19719   0.00000  Uiso   1.00
H607   H     0.78598   0.11920   0.79327   0.00000  Uiso   1.00
H608   H     0.50198   0.32124   0.36646   0.00000  Uiso   1.00
H609   H     0.54511   0.33828   0.43970   0.00000  Uiso   1.00
H610   H     0.97270   0.18307   0.63222   0.00000  Uiso   1.00
H611   H     0.68344   0.47169   0.36791   0.00000  Uiso   1.00
H612   H     0.82115   0.00324   0.63357   0.00000  Uiso   1.00
H613   H     0.99804   0.17876   0.36647   0.00000  Uiso   1.00
H614   H     0.52732   0.31691   0.63220   0.00000  Uiso   1.00
H615   H     0.81656   0.02830   0.36794   0.00000  Uiso   1.00
H616   H     0.67885   0.49681   0.63354   0.00000  Uiso   1.00
H617   H     0.75599   0.07106   0.86641   0.00000  Uiso   1.00
H618   H     0.72024   0.43387   0.13190   0.00000  Uiso   1.00
H619   H     0.93291   0.22336   0.86776   0.00000  Uiso   1.00
H620   H     0.50164   0.15066   0.55918   0.00000  Uiso   1.00
H621   H     0.57121   0.25115   0.13355   0.00000  Uiso   1.00
H622   H     0.74397   0.42894   0.86643   0.00000  Uiso   1.00
H623   H     0.77973   0.06613   0.13189   0.00000  Uiso   1.00
H624   H     0.56711   0.27650   0.86782   0.00000  Uiso   1.00
H625   H     0.92878   0.24886   0.13353   0.00000  Uiso   1.00
H626   H     0.65069   0.49995   0.44088   0.00000  Uiso   1.00
H627   H     0.83742   0.04669   0.56033   0.00000  Uiso   1.00
H628   H     0.70028   0.41417   0.93974   0.00000  Uiso   1.00
O629   O     0.75000  -0.00000   0.25000   0.00000  Uiso   1.00
O630   O     0.75000   0.46964   0.66245   0.00000  Uiso   1.00
O631   O     0.81599   0.14181   0.83483   0.00000  Uiso   1.00
O632   O     0.97396   0.34192   0.41058   0.00000  Uiso   1.00
O633   O     0.93609   0.17891   0.58986   0.00000  Uiso   1.00
O634   O     0.68015   0.43481   0.41013   0.00000  Uiso   1.00
O635   O     0.84231   0.47557   0.58944   0.00000  Uiso   1.00
O636   O     0.52605   0.15807   0.41062   0.00000  Uiso   1.00
O637   O     0.56393   0.32103   0.58985   0.00000  Uiso   1.00
O638   O     0.81985   0.06517   0.41015   0.00000  Uiso   1.00
O639   O     0.65768   0.02443   0.58937   0.00000  Uiso   1.00
O640   O     0.72887   0.09316   0.91040   0.00000  Uiso   1.00
O641   O     0.96963   0.25000   0.33755   0.00000  Uiso   1.00
O642   O     0.68291   0.43203   0.09005   0.00000  Uiso   1.00
O643   O     0.92824   0.18685   0.91017   0.00000  Uiso   1.00
O644   O     0.59154   0.22284   0.08944   0.00000  Uiso   1.00
O645   O     0.77109   0.40684   0.91044   0.00000  Uiso   1.00
O646   O     0.81706   0.06799   0.09006   0.00000  Uiso   1.00
O647   O     0.57174   0.31310   0.91015   0.00000  Uiso   1.00
O648   O     0.90843   0.27715   0.08939   0.00000  Uiso   1.00
O649   O     0.53036   0.25000   0.66245   0.00000  Uiso   1.00
O650   O     0.50000   0.21964   0.83755   0.00000  Uiso   1.00
O651   O     0.50000   0.28037   0.16245   0.00000  Uiso   1.00
O652   O     0.78036  -0.00000   0.83755   0.00000  Uiso   1.00
O653   O     0.71963   0.00000   0.16245   0.00000  Uiso   1.00
O654   O     0.50000   0.28037   0.83755   0.00000  Uiso   1.00
O655   O     0.50000   0.21964   0.16245   0.00000  Uiso   1.00
O656   O     0.71963  -0.00000   0.83755   0.00000  Uiso   1.00
O657   O     0.75000   0.00000   0.75000   0.00000  Uiso   1.00
O658   O     0.78036   0.00000   0.16245   0.00000  Uiso   1.00
O659   O     0.70724   0.07308   0.27302   0.00000  Uiso   1.00
O660   O     0.79275   0.42693   0.72698   0.00000  Uiso   1.00
O661   O     0.92692   0.20725   0.27302   0.00000  Uiso   1.00
O662   O     0.57307   0.29276   0.72698   0.00000  Uiso   1.00
O663   O     0.79275   0.42693   0.27302   0.00000  Uiso   1.00
O664   O     0.70724   0.07308   0.72698   0.00000  Uiso   1.00
O665   O     0.57307   0.29276   0.27302   0.00000  Uiso   1.00
O666   O     0.92692   0.20725   0.72698   0.00000  Uiso   1.00
O667   O     0.70724   0.42693   0.72698   0.00000  Uiso   1.00
O668   O     0.50000   0.25000   0.25000   0.00000  Uiso   1.00
O669   O     0.79275   0.07308   0.27302   0.00000  Uiso   1.00
O670   O     0.92692   0.29276   0.72698   0.00000  Uiso   1.00
O671   O     0.57307   0.20725   0.27302   0.00000  Uiso   1.00
O672   O     0.79275   0.07308   0.72698   0.00000  Uiso   1.00
O673   O     0.70724   0.42693   0.27302   0.00000  Uiso   1.00
O674   O     0.57307   0.20725   0.72698   0.00000  Uiso   1.00
O675   O     0.92692   0.29276   0.27302   0.00000  Uiso   1.00
O676   O     0.95724   0.32308   0.77302   0.00000  Uiso   1.00
O677   O     0.54275   0.17693   0.22698   0.00000  Uiso   1.00
O678   O     0.67692   0.45725   0.77302   0.00000  Uiso   1.00
O679   O     0.50000   0.25000   0.75000   0.00000  Uiso   1.00
O680   O     0.82307   0.04275   0.22698   0.00000  Uiso   1.00
O681   O     0.54275   0.17693   0.77302   0.00000  Uiso   1.00
O682   O     0.95724   0.32308   0.22698   0.00000  Uiso   1.00
O683   O     0.82307   0.04275   0.77302   0.00000  Uiso   1.00
O684   O     0.67692   0.45725   0.22698   0.00000  Uiso   1.00
O685   O     0.95724   0.17693   0.22698   0.00000  Uiso   1.00
O686   O     0.54275   0.32308   0.77302   0.00000  Uiso   1.00
O687   O     0.67692   0.04276   0.22698   0.00000  Uiso   1.00
O688   O     0.82307   0.45725   0.77302   0.00000  Uiso   1.00
O689   O     0.54275   0.32308   0.22698   0.00000  Uiso   1.00
O690   O     0.75000   0.46964   0.33755   0.00000  Uiso   1.00
O691   O     0.95724   0.17693   0.77302   0.00000  Uiso   1.00
O692   O     0.82307   0.45725   0.22698   0.00000  Uiso   1.00
O693   O     0.67692   0.04276   0.77302   0.00000  Uiso   1.00
O694   O     0.97031   0.15388   0.46185   0.00000  Uiso   1.00
O695   O     0.51627   0.34927   0.53755   0.00000  Uiso   1.00
O696   O     0.84893   0.01797   0.46249   0.00000  Uiso   1.00
O697   O     0.65448   0.46859   0.53816   0.00000  Uiso   1.00
O698   O     0.52969   0.34611   0.46185   0.00000  Uiso   1.00
O699   O     0.98373   0.15072   0.53756   0.00000  Uiso   1.00
O700   O     0.65107   0.48200   0.46245   0.00000  Uiso   1.00
O701   O     0.75000   0.03036   0.66245   0.00000  Uiso   1.00
O702   O     0.84552   0.03140   0.53818   0.00000  Uiso   1.00
O703   O     0.71536   0.40554   0.96182   0.00000  Uiso   1.00
O704   O     0.77098   0.09841   0.03744   0.00000  Uiso   1.00
O705   O     0.59938   0.26510   0.96246   0.00000  Uiso   1.00
O706   O     0.90359   0.22143   0.03815   0.00000  Uiso   1.00
O707   O     0.78460   0.09447   0.96182   0.00000  Uiso   1.00
O708   O     0.72897   0.40160   0.03745   0.00000  Uiso   1.00
O709   O     0.90059   0.23486   0.96243   0.00000  Uiso   1.00
O710   O     0.59639   0.27856   0.03817   0.00000  Uiso   1.00
O711   O     0.61537   0.42530   0.34213   0.00000  Uiso   1.00
O712   O     0.53036   0.25000   0.33755   0.00000  Uiso   1.00
O713   O     0.91325   0.04460   0.69973   0.00000  Uiso   1.00
O714   O     0.53717   0.07809   0.26772   0.00000  Uiso   1.00
O715   O     0.96462   0.42300   0.73592   0.00000  Uiso   1.00
O716   O     0.88467   0.07467   0.34212   0.00000  Uiso   1.00
O717   O     0.58905   0.45315   0.69418   0.00000  Uiso   1.00
O718   O     0.96290   0.42198   0.26703   0.00000  Uiso   1.00
O719   O     0.53117   0.08722   0.75396   0.00000  Uiso   1.00
O720   O     0.57715   0.03610   0.73008   0.00000  Uiso   1.00
O721   O     0.90836   0.44853   0.31362   0.00000  Uiso   1.00
O722   O     0.56950   0.38823   0.66173   0.00000  Uiso   1.00
O723   O     0.96963   0.25000   0.66245   0.00000  Uiso   1.00
O724   O     0.95085   0.08987   0.30950   0.00000  Uiso   1.00
O725   O     0.91186   0.46934   0.75453   0.00000  Uiso   1.00
O726   O     0.59196   0.05168   0.31409   0.00000  Uiso   1.00
O727   O     0.93415   0.10819   0.66525   0.00000  Uiso   1.00
O728   O     0.54918   0.41010   0.30950   0.00000  Uiso   1.00
O729   O     0.83666   0.20536   0.80017   0.00000  Uiso   1.00
O730   O     0.66000   0.29914   0.19042   0.00000  Uiso   1.00
O731   O     0.78540   0.32701   0.76459   0.00000  Uiso   1.00
O732   O     0.69823   0.15809   0.18590   0.00000  Uiso   1.00
O733   O     0.66131   0.29676   0.80531   0.00000  Uiso   1.00
O734   O     0.75000   0.03036   0.33755   0.00000  Uiso   1.00
O735   O     0.83997   0.20089   0.19044   0.00000  Uiso   1.00
O736   O     0.71405   0.17257   0.76956   0.00000  Uiso   1.00
O737   O     0.80147   0.34157   0.18644   0.00000  Uiso   1.00
O738   O     0.82815   0.28699   0.23295   0.00000  Uiso   1.00
O739   O     0.66313   0.21871   0.74610   0.00000  Uiso   1.00
O740   O     0.82470   0.13464   0.15787   0.00000  Uiso   1.00
O741   O     0.68059   0.36165   0.83815   0.00000  Uiso   1.00
O742   O     0.67181   0.21291   0.23223   0.00000  Uiso   1.00
O743   O     0.83796   0.28077   0.74522   0.00000  Uiso   1.00
O744   O     0.67525   0.36539   0.15786   0.00000  Uiso   1.00
Zn745  Zn    0.70659  -0.00000   0.21735   0.00000  Uiso   1.00
Zn746  Zn    0.54340   0.25000   0.28265   0.00000  Uiso   1.00
Zn747  Zn    0.75000   0.45660   0.71735   0.00000  Uiso   1.00
Zn748  Zn    0.75000   0.04340   0.28265   0.00000  Uiso   1.00
Zn749  Zn    0.54340   0.25000   0.71735   0.00000  Uiso   1.00
Zn750  Zn    0.95659   0.25000   0.28265   0.00000  Uiso   1.00
Zn751  Zn    0.75000   0.04340   0.71735   0.00000  Uiso   1.00
Zn752  Zn    0.75000   0.45660   0.28265   0.00000  Uiso   1.00
Zn753  Zn    0.79340  -0.00000   0.78265   0.00000  Uiso   1.00
Zn754  Zn    0.50000   0.20660   0.21735   0.00000  Uiso   1.00
Zn755  Zn    0.50000   0.29341   0.78265   0.00000  Uiso   1.00
Zn756  Zn    0.79340  -0.00000   0.21735   0.00000  Uiso   1.00
Zn757  Zn    0.70659  -0.00000   0.78265   0.00000  Uiso   1.00
Zn758  Zn    0.50000   0.29341   0.21735   0.00000  Uiso   1.00
Zn759  Zn    0.50000   0.20660   0.78265   0.00000  Uiso   1.00
Zn760  Zn    0.95659   0.25000   0.71735   0.00000  Uiso   1.00
C761   C     0.00061   0.78348   0.41797   0.00000  Uiso   1.00
C762   C     0.23437   0.97031   0.08156   0.00000  Uiso   1.00
C763   C     0.21699   0.99331   0.54134   0.00000  Uiso   1.00
C764   C     0.00609   0.78313   0.45867   0.00000  Uiso   1.00
C765   C     0.49070   0.71759   0.54089   0.00000  Uiso   1.00
C766   C     0.21778   0.99015   0.45914   0.00000  Uiso   1.00
C767   C     0.28301   0.50669   0.54135   0.00000  Uiso   1.00
C768   C     0.24216   0.96722   0.95862   0.00000  Uiso   1.00
C769   C     0.26078   0.53194   0.04082   0.00000  Uiso   1.00
C770   C     0.03247   0.75891   0.95914   0.00000  Uiso   1.00
C771   C     0.46680   0.74430   0.04133   0.00000  Uiso   1.00
C772   C     0.25782   0.53279   0.95861   0.00000  Uiso   1.00
C773   C     0.46950   0.73603   0.91839   0.00000  Uiso   1.00
C774   C     0.23918   0.96807   0.04082   0.00000  Uiso   1.00
C775   C     0.46750   0.74106   0.95912   0.00000  Uiso   1.00
C776   C     0.03318   0.75569   0.04134   0.00000  Uiso   1.00
C777   C     0.09805   0.84807   0.24999   0.00000  Uiso   1.00
C778   C     0.40208   0.65179   0.75024   0.00000  Uiso   1.00
C779   C     0.15193   0.59808   0.25001   0.00000  Uiso   1.00
C780   C     0.34803   0.90181   0.75032   0.00000  Uiso   1.00
C781   C     0.40195   0.65193   0.24998   0.00000  Uiso   1.00
C782   C     0.09793   0.84821   0.75020   0.00000  Uiso   1.00
C783   C     0.34806   0.90192   0.25002   0.00000  Uiso   1.00
C784   C     0.03346   0.75019   0.08203   0.00000  Uiso   1.00
C785   C     0.15189   0.59807   0.74997   0.00000  Uiso   1.00
C786   C     0.09814   0.65184   0.75000   0.00000  Uiso   1.00
C787   C     0.40192   0.84809   0.24998   0.00000  Uiso   1.00
C788   C     0.15209   0.90178   0.74975   0.00000  Uiso   1.00
C789   C     0.34807   0.59808   0.25001   0.00000  Uiso   1.00
C790   C     0.40196   0.84820   0.74969   0.00000  Uiso   1.00
C791   C     0.09808   0.65191   0.24999   0.00000  Uiso   1.00
C792   C     0.34794   0.59820   0.74975   0.00000  Uiso   1.00
C793   C     0.15193   0.90192   0.25001   0.00000  Uiso   1.00
C794   C    -0.00000   0.74999   0.47924   0.00000  Uiso   1.00
C795   C     0.24755   0.96659   0.91792   0.00000  Uiso   1.00
C796   C     0.49999   0.74999   0.52034   0.00000  Uiso   1.00
C797   C     0.25000   0.99999   0.47969   0.00000  Uiso   1.00
C798   C     0.25000   0.50000   0.52078   0.00000  Uiso   1.00
C799   C     0.24999   0.50000   0.97918   0.00000  Uiso   1.00
C800   C     0.24998   0.50000   0.02028   0.00000  Uiso   1.00
C801   C     0.49999   0.74999   0.97967   0.00000  Uiso   1.00
C802   C     0.49999   0.74999   0.02077   0.00000  Uiso   1.00
C803   C     0.12528   0.93198   0.30902   0.00000  Uiso   1.00
C804   C     0.38338   0.55908   0.70338   0.00000  Uiso   1.00
C805   C     0.05087   0.60782   0.27497   0.00000  Uiso   1.00
C806   C     0.26560   0.52969   0.08156   0.00000  Uiso   1.00
C807   C     0.45042   0.89331   0.72985   0.00000  Uiso   1.00
C808   C     0.37475   0.56800   0.30901   0.00000  Uiso   1.00
C809   C     0.11872   0.93882   0.69984   0.00000  Uiso   1.00
C810   C     0.44924   0.89229   0.27453   0.00000  Uiso   1.00
C811   C     0.04940   0.60686   0.73276   0.00000  Uiso   1.00
C812   C     0.10743   0.54990   0.72733   0.00000  Uiso   1.00
C813   C     0.38940   0.94626   0.28453   0.00000  Uiso   1.00
C814   C     0.06457   0.87792   0.69504   0.00000  Uiso   1.00
C815   C     0.43758   0.61966   0.30190   0.00000  Uiso   1.00
C816   C     0.39300   0.95067   0.73298   0.00000  Uiso   1.00
C817   C     0.03047   0.76393   0.91841   0.00000  Uiso   1.00
C818   C     0.11076   0.55386   0.28489   0.00000  Uiso   1.00
C819   C     0.43773   0.61978   0.69828   0.00000  Uiso   1.00
C820   C     0.06245   0.88032   0.30190   0.00000  Uiso   1.00
C821   C     0.36656   0.69096   0.79649   0.00000  Uiso   1.00
C822   C     0.13025   0.81243   0.19805   0.00000  Uiso   1.00
C823   C     0.29960   0.85675   0.77040   0.00000  Uiso   1.00
C824   C     0.19608   0.63931   0.21513   0.00000  Uiso   1.00
C825   C     0.13157   0.81095   0.79973   0.00000  Uiso   1.00
C826   C     0.36973   0.68759   0.19806   0.00000  Uiso   1.00
C827   C     0.19992   0.64248   0.77289   0.00000  Uiso   1.00
C828   C     0.46652   0.74981   0.08202   0.00000  Uiso   1.00
C829   C     0.30376   0.86054   0.21552   0.00000  Uiso   1.00
C830   C     0.35779   0.80072   0.22542   0.00000  Uiso   1.00
C831   C     0.14313   0.70066   0.76708   0.00000  Uiso   1.00
C832   C     0.31803   0.62477   0.19099   0.00000  Uiso   1.00
C833   C     0.18550   0.87202   0.80485   0.00000  Uiso   1.00
C834   C     0.14210   0.69919   0.22499   0.00000  Uiso   1.00
C835   C     0.35695   0.79929   0.76680   0.00000  Uiso   1.00
C836   C     0.18194   0.87525   0.19098   0.00000  Uiso   1.00
C837   C     0.31237   0.63015   0.80183   0.00000  Uiso   1.00
C838   C     0.49262   0.81783   0.39613   0.00000  Uiso   1.00
C839   C     0.00001   0.75000   0.39793   0.00000  Uiso   1.00
C840   C     0.46425   0.69161   0.60341   0.00000  Uiso   1.00
C841   C     0.19225   0.96328   0.39664   0.00000  Uiso   1.00
C842   C     0.31791   0.99381   0.60389   0.00000  Uiso   1.00
C843   C     0.00740   0.68217   0.39615   0.00000  Uiso   1.00
C844   C     0.03576   0.80836   0.60340   0.00000  Uiso   1.00
C845   C     0.30775   0.53671   0.39666   0.00000  Uiso   1.00
C846   C     0.18209   0.50621   0.60385   0.00000  Uiso   1.00
C847   C     0.24632   0.56813   0.89604   0.00000  Uiso   1.00
C848   C     0.21183   0.94316   0.10334   0.00000  Uiso   1.00
C849   C     0.44128   0.71485   0.89659   0.00000  Uiso   1.00
C850   C     0.49999   0.74999   0.60179   0.00000  Uiso   1.00
C851   C     0.06769   0.74180   0.10388   0.00000  Uiso   1.00
C852   C     0.25365   0.93187   0.89606   0.00000  Uiso   1.00
C853   C     0.28814   0.55685   0.10334   0.00000  Uiso   1.00
C854   C     0.05871   0.78507   0.89662   0.00000  Uiso   1.00
C855   C     0.43229   0.75820   0.10385   0.00000  Uiso   1.00
C856   C     0.25000   0.99999   0.39824   0.00000  Uiso   1.00
C857   C     0.48571   0.71965   0.58162   0.00000  Uiso   1.00
C858   C     0.25000   0.50001   0.60208   0.00000  Uiso   1.00
C859   C     0.25000   0.50000   0.89789   0.00000  Uiso   1.00
C860   C     0.24999   0.50000   0.10175   0.00000  Uiso   1.00
C861   C     0.49998   0.74999   0.89823   0.00000  Uiso   1.00
C862   C     0.49999   0.75000   0.10207   0.00000  Uiso   1.00
C863   C     0.48369   0.68499   0.47959   0.00000  Uiso   1.00
C864   C     0.01438   0.81545   0.51989   0.00000  Uiso   1.00
C865   C     0.31516   0.51550   0.48015   0.00000  Uiso   1.00
C866   C     0.18533   0.98254   0.52042   0.00000  Uiso   1.00
C867   C     0.01631   0.81499   0.47959   0.00000  Uiso   1.00
C868   C     0.21991   0.98520   0.41841   0.00000  Uiso   1.00
C869   C     0.48562   0.68453   0.51989   0.00000  Uiso   1.00
C870   C     0.18484   0.98448   0.48013   0.00000  Uiso   1.00
C871   C     0.31467   0.51745   0.52044   0.00000  Uiso   1.00
C872   C     0.23038   0.93591   0.97954   0.00000  Uiso   1.00
C873   C     0.26752   0.56470   0.01981   0.00000  Uiso   1.00
C874   C     0.06557   0.76361   0.98013   0.00000  Uiso   1.00
C875   C     0.43484   0.73445   0.02041   0.00000  Uiso   1.00
C876   C     0.26959   0.56410   0.97953   0.00000  Uiso   1.00
C877   C     0.23244   0.93531   0.01982   0.00000  Uiso   1.00
C878   C     0.43441   0.73636   0.98010   0.00000  Uiso   1.00
C879   C     0.28345   0.50121   0.58205   0.00000  Uiso   1.00
C880   C     0.06513   0.76554   0.02043   0.00000  Uiso   1.00
C881   C     0.25000   0.50000   0.35581   0.00000  Uiso   1.00
C882   C     0.25000   0.50000   0.64431   0.00000  Uiso   1.00
C883   C     0.00000   0.75000   0.35569   0.00000  Uiso   1.00
C884   C    -0.00000   0.75000   0.64420   0.00000  Uiso   1.00
C885   C     0.49999   0.75000   0.85581   0.00000  Uiso   1.00
C886   C     0.49999   0.75000   0.14431   0.00000  Uiso   1.00
C887   C     0.25000   0.50000   0.85567   0.00000  Uiso   1.00
C888   C     0.25000   0.50000   0.14419   0.00000  Uiso   1.00
C889   C     0.18003   0.56997   0.25000   0.00000  Uiso   1.00
C890   C     0.49941   0.71651   0.41798   0.00000  Uiso   1.00
C891   C     0.31997   0.93002   0.75003   0.00000  Uiso   1.00
C892   C     0.43006   0.68005   0.24999   0.00000  Uiso   1.00
C893   C     0.06994   0.81996   0.75003   0.00000  Uiso   1.00
C894   C     0.31996   0.93003   0.25001   0.00000  Uiso   1.00
C895   C     0.18002   0.56996   0.74998   0.00000  Uiso   1.00
C896   C     0.06994   0.81995   0.24999   0.00000  Uiso   1.00
C897   C     0.43007   0.68004   0.75003   0.00000  Uiso   1.00
C898   C     0.18006   0.93005   0.74995   0.00000  Uiso   1.00
C899   C     0.31995   0.56995   0.25001   0.00000  Uiso   1.00
C900   C     0.43003   0.81998   0.74997   0.00000  Uiso   1.00
C901   C     0.01428   0.78034   0.58161   0.00000  Uiso   1.00
C902   C     0.06997   0.68003   0.25000   0.00000  Uiso   1.00
C903   C     0.31994   0.56995   0.74996   0.00000  Uiso   1.00
C904   C     0.18005   0.93005   0.25001   0.00000  Uiso   1.00
C905   C     0.06998   0.68001   0.75000   0.00000  Uiso   1.00
C906   C     0.43004   0.81997   0.24999   0.00000  Uiso   1.00
C907   C     0.12388   0.90339   0.27811   0.00000  Uiso   1.00
C908   C     0.37904   0.59364   0.72599   0.00000  Uiso   1.00
C909   C     0.08926   0.61643   0.26334   0.00000  Uiso   1.00
C910   C     0.41198   0.88486   0.74195   0.00000  Uiso   1.00
C911   C     0.37613   0.59661   0.27811   0.00000  Uiso   1.00
C912   C     0.28009   0.51479   0.41842   0.00000  Uiso   1.00
C913   C     0.12208   0.90524   0.72424   0.00000  Uiso   1.00
C914   C     0.41080   0.88363   0.26312   0.00000  Uiso   1.00
C915   C     0.08814   0.61527   0.74222   0.00000  Uiso   1.00
C916   C     0.11543   0.58810   0.74090   0.00000  Uiso   1.00
C917   C     0.38305   0.91029   0.26506   0.00000  Uiso   1.00
C918   C     0.09505   0.87766   0.72386   0.00000  Uiso   1.00
C919   C     0.40448   0.62280   0.27674   0.00000  Uiso   1.00
C920   C     0.38463   0.91195   0.74272   0.00000  Uiso   1.00
C921   C     0.11702   0.58976   0.26525   0.00000  Uiso   1.00
C922   C     0.40609   0.62121   0.72559   0.00000  Uiso   1.00
C923   C     0.21655   0.99880   0.58203   0.00000  Uiso   1.00
C924   C     0.09553   0.87719   0.27675   0.00000  Uiso   1.00
C925   C     0.37096   0.65636   0.77398   0.00000  Uiso   1.00
C926   C     0.12716   0.84552   0.22323   0.00000  Uiso   1.00
C927   C     0.33801   0.86515   0.75812   0.00000  Uiso   1.00
C928   C     0.16021   0.63302   0.23476   0.00000  Uiso   1.00
C929   C     0.12803   0.84468   0.77560   0.00000  Uiso   1.00
C930   C     0.37283   0.65449   0.22323   0.00000  Uiso   1.00
C931   C     0.16183   0.63455   0.75906   0.00000  Uiso   1.00
C932   C     0.33972   0.86692   0.23496   0.00000  Uiso   1.00
C933   C     0.36640   0.83917   0.23685   0.00000  Uiso   1.00
C934   C     0.25244   0.53341   0.91791   0.00000  Uiso   1.00
C935   C     0.13469   0.66187   0.75774   0.00000  Uiso   1.00
C936   C     0.34662   0.62615   0.22189   0.00000  Uiso   1.00
C937   C     0.15501   0.87231   0.77604   0.00000  Uiso   1.00
C938   C     0.13353   0.66077   0.23664   0.00000  Uiso   1.00
C939   C     0.36535   0.83804   0.75725   0.00000  Uiso   1.00
C940   C     0.15337   0.87386   0.22189   0.00000  Uiso   1.00
C941   C     0.34395   0.62876   0.77443   0.00000  Uiso   1.00
C942   C     0.49391   0.71685   0.45868   0.00000  Uiso   1.00
C943   C     0.00928   0.78239   0.54088   0.00000  Uiso   1.00
C944   C     0.28222   0.50983   0.45915   0.00000  Uiso   1.00
H945   H     0.45490   0.66171   0.43969   0.00000  Uiso   1.00
H946   H     0.25291   0.59940   0.05887   0.00000  Uiso   1.00
H947   H     0.09922   0.74719   0.94086   0.00000  Uiso   1.00
H948   H     0.41123   0.70592   0.06031   0.00000  Uiso   1.00
H949   H     0.29968   0.58584   0.93974   0.00000  Uiso   1.00
H950   H     0.24704   0.90060   0.05889   0.00000  Uiso   1.00
H951   H     0.40076   0.75276   0.94079   0.00000  Uiso   1.00
H952   H     0.08875   0.79408   0.06032   0.00000  Uiso   1.00
H953   H     0.13661   0.95882   0.30283   0.00000  Uiso   1.00
H954   H     0.35961   0.54542   0.69122   0.00000  Uiso   1.00
H955   H     0.03405   0.62851   0.28878   0.00000  Uiso   1.00
H956   H     0.49836   0.84932   0.55916   0.00000  Uiso   1.00
H957   H     0.46683   0.87243   0.71586   0.00000  Uiso   1.00
H958   H     0.36341   0.54116   0.30282   0.00000  Uiso   1.00
H959   H     0.14297   0.95195   0.68811   0.00000  Uiso   1.00
H960   H     0.46611   0.87167   0.28839   0.00000  Uiso   1.00
H961   H     0.03648   0.62002   0.70808   0.00000  Uiso   1.00
H962   H     0.12907   0.53332   0.71494   0.00000  Uiso   1.00
H963   H     0.37604   0.97081   0.27406   0.00000  Uiso   1.00
H964   H     0.03784   0.86732   0.70292   0.00000  Uiso   1.00
H965   H     0.45132   0.64405   0.31248   0.00000  Uiso   1.00
H966   H     0.38044   0.96319   0.70771   0.00000  Uiso   1.00
H967   H     0.34930   0.50002   0.44092   0.00000  Uiso   1.00
H968   H     0.12405   0.52927   0.27442   0.00000  Uiso   1.00
H969   H     0.46415   0.63061   0.70695   0.00000  Uiso   1.00
H970   H     0.04871   0.85593   0.31249   0.00000  Uiso   1.00
H971   H     0.39031   0.70474   0.80854   0.00000  Uiso   1.00
H972   H     0.10586   0.79871   0.18747   0.00000  Uiso   1.00
H973   H     0.28322   0.87770   0.78431   0.00000  Uiso   1.00
H974   H     0.22067   0.62606   0.22564   0.00000  Uiso   1.00
H975   H     0.10739   0.79757   0.81125   0.00000  Uiso   1.00
H976   H     0.39411   0.70132   0.18748   0.00000  Uiso   1.00
H977   H     0.21610   0.62089   0.78596   0.00000  Uiso   1.00
H978   H     0.16258   0.95331   0.56032   0.00000  Uiso   1.00
H979   H     0.27922   0.87389   0.22601   0.00000  Uiso   1.00
H980   H     0.37840   0.78388   0.21151   0.00000  Uiso   1.00
H981   H     0.12965   0.71382   0.79142   0.00000  Uiso   1.00
H982   H     0.29118   0.61348   0.19720   0.00000  Uiso   1.00
H983   H     0.21223   0.88263   0.79698   0.00000  Uiso   1.00
H984   H     0.12140   0.71600   0.21118   0.00000  Uiso   1.00
H985   H     0.36959   0.78661   0.79192   0.00000  Uiso   1.00
H986   H     0.20879   0.88653   0.19719   0.00000  Uiso   1.00
H987   H     0.28598   0.61920   0.79327   0.00000  Uiso   1.00
H988   H     0.00198   0.82124   0.36646   0.00000  Uiso   1.00
H989   H     0.04511   0.83828   0.43970   0.00000  Uiso   1.00
H990   H     0.47270   0.68307   0.63222   0.00000  Uiso   1.00
H991   H     0.18344   0.97169   0.36791   0.00000  Uiso   1.00
H992   H     0.32115   0.50324   0.63357   0.00000  Uiso   1.00
H993   H     0.49804   0.67876   0.36647   0.00000  Uiso   1.00
H994   H     0.02732   0.81691   0.63220   0.00000  Uiso   1.00
H995   H     0.31656   0.52830   0.36794   0.00000  Uiso   1.00
H996   H     0.17885   0.99681   0.63354   0.00000  Uiso   1.00
H997   H     0.25599   0.57106   0.86641   0.00000  Uiso   1.00
H998   H     0.22024   0.93387   0.13190   0.00000  Uiso   1.00
H999   H     0.43291   0.72336   0.86776   0.00000  Uiso   1.00
H1000  H     0.00164   0.65066   0.55918   0.00000  Uiso   1.00
H1001  H     0.07121   0.75115   0.13355   0.00000  Uiso   1.00
H1002  H     0.24397   0.92894   0.86643   0.00000  Uiso   1.00
H1003  H     0.27973   0.56613   0.13189   0.00000  Uiso   1.00
H1004  H     0.06711   0.77650   0.86782   0.00000  Uiso   1.00
H1005  H     0.42878   0.74886   0.13353   0.00000  Uiso   1.00
H1006  H     0.15069   0.99995   0.44088   0.00000  Uiso   1.00
H1007  H     0.33742   0.54669   0.56033   0.00000  Uiso   1.00
H1008  H     0.20028   0.91417   0.93974   0.00000  Uiso   1.00
O1009  O     0.25000   0.50000   0.25000   0.00000  Uiso   1.00
O1010  O     0.25000   0.96964   0.66245   0.00000  Uiso   1.00
O1011  O     0.31599   0.64181   0.83483   0.00000  Uiso   1.00
O1012  O     0.47396   0.84192   0.41058   0.00000  Uiso   1.00
O1013  O     0.43609   0.67891   0.58986   0.00000  Uiso   1.00
O1014  O     0.18015   0.93481   0.41013   0.00000  Uiso   1.00
O1015  O     0.34231   0.97557   0.58944   0.00000  Uiso   1.00
O1016  O     0.02605   0.65807   0.41062   0.00000  Uiso   1.00
O1017  O     0.06393   0.82103   0.58985   0.00000  Uiso   1.00
O1018  O     0.31985   0.56517   0.41015   0.00000  Uiso   1.00
O1019  O     0.15768   0.52443   0.58937   0.00000  Uiso   1.00
O1020  O     0.22887   0.59316   0.91040   0.00000  Uiso   1.00
O1021  O     0.46963   0.75000   0.33755   0.00000  Uiso   1.00
O1022  O     0.18291   0.93203   0.09005   0.00000  Uiso   1.00
O1023  O     0.42824   0.68685   0.91017   0.00000  Uiso   1.00
O1024  O     0.09154   0.72284   0.08944   0.00000  Uiso   1.00
O1025  O     0.27109   0.90684   0.91044   0.00000  Uiso   1.00
O1026  O     0.31706   0.56799   0.09006   0.00000  Uiso   1.00
O1027  O     0.07174   0.81310   0.91015   0.00000  Uiso   1.00
O1028  O     0.40843   0.77715   0.08939   0.00000  Uiso   1.00
O1029  O     0.03036   0.75000   0.66245   0.00000  Uiso   1.00
O1030  O    -0.00000   0.71964   0.83755   0.00000  Uiso   1.00
O1031  O    -0.00000   0.78037   0.16245   0.00000  Uiso   1.00
O1032  O     0.28036   0.50000   0.83755   0.00000  Uiso   1.00
O1033  O     0.21963   0.50000   0.16245   0.00000  Uiso   1.00
O1034  O    -0.00000   0.78037   0.83755   0.00000  Uiso   1.00
O1035  O    -0.00000   0.71964   0.16245   0.00000  Uiso   1.00
O1036  O     0.21963   0.50000   0.83755   0.00000  Uiso   1.00
O1037  O     0.25000   0.50000   0.75000   0.00000  Uiso   1.00
O1038  O     0.28036   0.50000   0.16245   0.00000  Uiso   1.00
O1039  O     0.20724   0.57308   0.27302   0.00000  Uiso   1.00
O1040  O     0.29275   0.92693   0.72698   0.00000  Uiso   1.00
O1041  O     0.42692   0.70725   0.27302   0.00000  Uiso   1.00
O1042  O     0.07307   0.79276   0.72698   0.00000  Uiso   1.00
O1043  O     0.29275   0.92693   0.27302   0.00000  Uiso   1.00
O1044  O     0.20724   0.57308   0.72698   0.00000  Uiso   1.00
O1045  O     0.07307   0.79276   0.27302   0.00000  Uiso   1.00
O1046  O     0.42692   0.70725   0.72698   0.00000  Uiso   1.00
O1047  O     0.20724   0.92693   0.72698   0.00000  Uiso   1.00
O1048  O     0.00000   0.75000   0.25000   0.00000  Uiso   1.00
O1049  O     0.29275   0.57308   0.27302   0.00000  Uiso   1.00
O1050  O     0.42692   0.79276   0.72698   0.00000  Uiso   1.00
O1051  O     0.07307   0.70725   0.27302   0.00000  Uiso   1.00
O1052  O     0.29275   0.57308   0.72698   0.00000  Uiso   1.00
O1053  O     0.20724   0.92693   0.27302   0.00000  Uiso   1.00
O1054  O     0.07307   0.70725   0.72698   0.00000  Uiso   1.00
O1055  O     0.42692   0.79276   0.27302   0.00000  Uiso   1.00
O1056  O     0.45724   0.82308   0.77302   0.00000  Uiso   1.00
O1057  O     0.04275   0.67693   0.22698   0.00000  Uiso   1.00
O1058  O     0.17692   0.95725   0.77302   0.00000  Uiso   1.00
O1059  O     0.00000   0.75000   0.75000   0.00000  Uiso   1.00
O1060  O     0.32307   0.54275   0.22698   0.00000  Uiso   1.00
O1061  O     0.04275   0.67693   0.77302   0.00000  Uiso   1.00
O1062  O     0.45724   0.82308   0.22698   0.00000  Uiso   1.00
O1063  O     0.32307   0.54275   0.77302   0.00000  Uiso   1.00
O1064  O     0.17692   0.95725   0.22698   0.00000  Uiso   1.00
O1065  O     0.45724   0.67693   0.22698   0.00000  Uiso   1.00
O1066  O     0.04275   0.82308   0.77302   0.00000  Uiso   1.00
O1067  O     0.17692   0.54276   0.22698   0.00000  Uiso   1.00
O1068  O     0.32307   0.95725   0.77302   0.00000  Uiso   1.00
O1069  O     0.04275   0.82308   0.22698   0.00000  Uiso   1.00
O1070  O     0.25000   0.96964   0.33755   0.00000  Uiso   1.00
O1071  O     0.45724   0.67693   0.77302   0.00000  Uiso   1.00
O1072  O     0.32307   0.95725   0.22698   0.00000  Uiso   1.00
O1073  O     0.17692   0.54276   0.77302   0.00000  Uiso   1.00
O1074  O     0.47031   0.65388   0.46185   0.00000  Uiso   1.00
O1075  O     0.01627   0.84927   0.53755   0.00000  Uiso   1.00
O1076  O     0.34893   0.51797   0.46249   0.00000  Uiso   1.00
O1077  O     0.15448   0.96859   0.53816   0.00000  Uiso   1.00
O1078  O     0.02969   0.84611   0.46185   0.00000  Uiso   1.00
O1079  O     0.48373   0.65072   0.53756   0.00000  Uiso   1.00
O1080  O     0.15107   0.98200   0.46245   0.00000  Uiso   1.00
O1081  O     0.25000   0.53036   0.66245   0.00000  Uiso   1.00
O1082  O     0.34552   0.53140   0.53818   0.00000  Uiso   1.00
O1083  O     0.21536   0.90554   0.96182   0.00000  Uiso   1.00
O1084  O     0.27098   0.59841   0.03744   0.00000  Uiso   1.00
O1085  O     0.09938   0.76510   0.96246   0.00000  Uiso   1.00
O1086  O     0.40359   0.72143   0.03815   0.00000  Uiso   1.00
O1087  O     0.28460   0.59447   0.96182   0.00000  Uiso   1.00
O1088  O     0.22897   0.90160   0.03745   0.00000  Uiso   1.00
O1089  O     0.40059   0.73486   0.96243   0.00000  Uiso   1.00
O1090  O     0.09639   0.77856   0.03817   0.00000  Uiso   1.00
O1091  O     0.11537   0.92530   0.34213   0.00000  Uiso   1.00
O1092  O     0.03036   0.75000   0.33755   0.00000  Uiso   1.00
O1093  O     0.41325   0.54460   0.69973   0.00000  Uiso   1.00
O1094  O     0.03717   0.57809   0.26772   0.00000  Uiso   1.00
O1095  O     0.46462   0.92300   0.73592   0.00000  Uiso   1.00
O1096  O     0.38467   0.57467   0.34212   0.00000  Uiso   1.00
O1097  O     0.08905   0.95315   0.69418   0.00000  Uiso   1.00
O1098  O     0.46290   0.92198   0.26703   0.00000  Uiso   1.00
O1099  O     0.03117   0.58722   0.75396   0.00000  Uiso   1.00
O1100  O     0.07715   0.53610   0.73008   0.00000  Uiso   1.00
O1101  O     0.40836   0.94853   0.31362   0.00000  Uiso   1.00
O1102  O     0.06950   0.88823   0.66173   0.00000  Uiso   1.00
O1103  O     0.46963   0.75000   0.66245   0.00000  Uiso   1.00
O1104  O     0.45085   0.58987   0.30950   0.00000  Uiso   1.00
O1105  O     0.41186   0.96934   0.75453   0.00000  Uiso   1.00
O1106  O     0.09196   0.55168   0.31409   0.00000  Uiso   1.00
O1107  O     0.43415   0.60819   0.66525   0.00000  Uiso   1.00
O1108  O     0.04918   0.91010   0.30950   0.00000  Uiso   1.00
O1109  O     0.33666   0.70536   0.80017   0.00000  Uiso   1.00
O1110  O     0.16000   0.79914   0.19042   0.00000  Uiso   1.00
O1111  O     0.28540   0.82701   0.76459   0.00000  Uiso   1.00
O1112  O     0.19823   0.65809   0.18590   0.00000  Uiso   1.00
O1113  O     0.16131   0.79676   0.80531   0.00000  Uiso   1.00
O1114  O     0.25000   0.53036   0.33755   0.00000  Uiso   1.00
O1115  O     0.33997   0.70089   0.19044   0.00000  Uiso   1.00
O1116  O     0.21405   0.67257   0.76956   0.00000  Uiso   1.00
O1117  O     0.30147   0.84157   0.18644   0.00000  Uiso   1.00
O1118  O     0.32815   0.78699   0.23295   0.00000  Uiso   1.00
O1119  O     0.16313   0.71871   0.74610   0.00000  Uiso   1.00
O1120  O     0.32470   0.63464   0.15787   0.00000  Uiso   1.00
O1121  O     0.18059   0.86165   0.83815   0.00000  Uiso   1.00
O1122  O     0.17181   0.71291   0.23223   0.00000  Uiso   1.00
O1123  O     0.33796   0.78077   0.74522   0.00000  Uiso   1.00
O1124  O     0.17525   0.86539   0.15786   0.00000  Uiso   1.00
Zn1125 Zn    0.20659   0.50000   0.21735   0.00000  Uiso   1.00
Zn1126 Zn    0.04340   0.75000   0.28265   0.00000  Uiso   1.00
Zn1127 Zn    0.25000   0.95660   0.71735   0.00000  Uiso   1.00
Zn1128 Zn    0.25000   0.54340   0.28265   0.00000  Uiso   1.00
Zn1129 Zn    0.04340   0.75000   0.71735   0.00000  Uiso   1.00
Zn1130 Zn    0.45659   0.75000   0.28265   0.00000  Uiso   1.00
Zn1131 Zn    0.25000   0.54340   0.71735   0.00000  Uiso   1.00
Zn1132 Zn    0.25000   0.95660   0.28265   0.00000  Uiso   1.00
Zn1133 Zn    0.29340   0.50000   0.78265   0.00000  Uiso   1.00
Zn1134 Zn    0.00000   0.70660   0.21735   0.00000  Uiso   1.00
Zn1135 Zn    0.00000   0.79341   0.78265   0.00000  Uiso   1.00
Zn1136 Zn    0.29340   0.50000   0.21735   0.00000  Uiso   1.00
Zn1137 Zn    0.20659   0.50000   0.78265   0.00000  Uiso   1.00
Zn1138 Zn    0.00000   0.79341   0.21735   0.00000  Uiso   1.00
Zn1139 Zn    0.00000   0.70660   0.78265   0.00000  Uiso   1.00
Zn1140 Zn    0.45659   0.75000   0.71735   0.00000  Uiso   1.00
C1141  C     0.50061   0.78348   0.41797   0.00000  Uiso   1.00
C1142  C     0.73437   0.97031   0.08156   0.00000  Uiso   1.00
C1143  C     0.71699   0.99331   0.54134   0.00000  Uiso   1.00
C1144  C     0.50609   0.78313   0.45867   0.00000  Uiso   1.00
C1145  C     0.99070   0.71759   0.54089   0.00000  Uiso   1.00
C1146  C     0.71778   0.99015   0.45914   0.00000  Uiso   1.00
C1147  C     0.78301   0.50669   0.54135   0.00000  Uiso   1.00
C1148  C     0.74216   0.96722   0.95862   0.00000  Uiso   1.00
C1149  C     0.76078   0.53194   0.04082   0.00000  Uiso   1.00
C1150  C     0.53247   0.75891   0.95914   0.00000  Uiso   1.00
C1151  C     0.96680   0.74430   0.04133   0.00000  Uiso   1.00
C1152  C     0.75782   0.53279   0.95861   0.00000  Uiso   1.00
C1153  C     0.96950   0.73603   0.91839   0.00000  Uiso   1.00
C1154  C     0.73918   0.96807   0.04082   0.00000  Uiso   1.00
C1155  C     0.96750   0.74106   0.95912   0.00000  Uiso   1.00
C1156  C     0.53318   0.75569   0.04134   0.00000  Uiso   1.00
C1157  C     0.59805   0.84807   0.24999   0.00000  Uiso   1.00
C1158  C     0.90208   0.65179   0.75024   0.00000  Uiso   1.00
C1159  C     0.65193   0.59808   0.25001   0.00000  Uiso   1.00
C1160  C     0.84803   0.90181   0.75032   0.00000  Uiso   1.00
C1161  C     0.90195   0.65193   0.24998   0.00000  Uiso   1.00
C1162  C     0.59793   0.84821   0.75020   0.00000  Uiso   1.00
C1163  C     0.84806   0.90192   0.25002   0.00000  Uiso   1.00
C1164  C     0.53346   0.75019   0.08203   0.00000  Uiso   1.00
C1165  C     0.65189   0.59807   0.74997   0.00000  Uiso   1.00
C1166  C     0.59814   0.65184   0.75000   0.00000  Uiso   1.00
C1167  C     0.90192   0.84809   0.24998   0.00000  Uiso   1.00
C1168  C     0.65209   0.90178   0.74975   0.00000  Uiso   1.00
C1169  C     0.84807   0.59808   0.25001   0.00000  Uiso   1.00
C1170  C     0.90196   0.84820   0.74969   0.00000  Uiso   1.00
C1171  C     0.59808   0.65191   0.24999   0.00000  Uiso   1.00
C1172  C     0.84794   0.59820   0.74975   0.00000  Uiso   1.00
C1173  C     0.65193   0.90192   0.25001   0.00000  Uiso   1.00
C1174  C     0.50000   0.74999   0.47924   0.00000  Uiso   1.00
C1175  C     0.74755   0.96659   0.91792   0.00000  Uiso   1.00
C1176  C     0.99999   0.74999   0.52034   0.00000  Uiso   1.00
C1177  C     0.75000   0.99999   0.47969   0.00000  Uiso   1.00
C1178  C     0.75000   0.50000   0.52078   0.00000  Uiso   1.00
C1179  C     0.74999   0.50000   0.97918   0.00000  Uiso   1.00
C1180  C     0.74998   0.50000   0.02028   0.00000  Uiso   1.00
C1181  C     0.99999   0.74999   0.97967   0.00000  Uiso   1.00
C1182  C     0.99999   0.74999   0.02077   0.00000  Uiso   1.00
C1183  C     0.62528   0.93198   0.30902   0.00000  Uiso   1.00
C1184  C     0.88338   0.55908   0.70338   0.00000  Uiso   1.00
C1185  C     0.55087   0.60782   0.27497   0.00000  Uiso   1.00
C1186  C     0.76560   0.52969   0.08156   0.00000  Uiso   1.00
C1187  C     0.95042   0.89331   0.72985   0.00000  Uiso   1.00
C1188  C     0.87475   0.56800   0.30901   0.00000  Uiso   1.00
C1189  C     0.61872   0.93882   0.69984   0.00000  Uiso   1.00
C1190  C     0.94924   0.89229   0.27453   0.00000  Uiso   1.00
C1191  C     0.54940   0.60686   0.73276   0.00000  Uiso   1.00
C1192  C     0.60743   0.54990   0.72733   0.00000  Uiso   1.00
C1193  C     0.88940   0.94626   0.28453   0.00000  Uiso   1.00
C1194  C     0.56457   0.87792   0.69504   0.00000  Uiso   1.00
C1195  C     0.93758   0.61966   0.30190   0.00000  Uiso   1.00
C1196  C     0.89300   0.95067   0.73298   0.00000  Uiso   1.00
C1197  C     0.53047   0.76393   0.91841   0.00000  Uiso   1.00
C1198  C     0.61076   0.55386   0.28489   0.00000  Uiso   1.00
C1199  C     0.93773   0.61978   0.69828   0.00000  Uiso   1.00
C1200  C     0.56245   0.88032   0.30190   0.00000  Uiso   1.00
C1201  C     0.86656   0.69096   0.79649   0.00000  Uiso   1.00
C1202  C     0.63025   0.81243   0.19805   0.00000  Uiso   1.00
C1203  C     0.79960   0.85675   0.77040   0.00000  Uiso   1.00
C1204  C     0.69608   0.63931   0.21513   0.00000  Uiso   1.00
C1205  C     0.63157   0.81095   0.79973   0.00000  Uiso   1.00
C1206  C     0.86973   0.68759   0.19806   0.00000  Uiso   1.00
C1207  C     0.69992   0.64248   0.77289   0.00000  Uiso   1.00
C1208  C     0.96652   0.74981   0.08202   0.00000  Uiso   1.00
C1209  C     0.80376   0.86054   0.21552   0.00000  Uiso   1.00
C1210  C     0.85779   0.80072   0.22542   0.00000  Uiso   1.00
C1211  C     0.64313   0.70066   0.76708   0.00000  Uiso   1.00
C1212  C     0.81803   0.62477   0.19099   0.00000  Uiso   1.00
C1213  C     0.68550   0.87202   0.80485   0.00000  Uiso   1.00
C1214  C     0.64210   0.69919   0.22499   0.00000  Uiso   1.00
C1215  C     0.85695   0.79929   0.76680   0.00000  Uiso   1.00
C1216  C     0.68194   0.87525   0.19098   0.00000  Uiso   1.00
C1217  C     0.81237   0.63015   0.80183   0.00000  Uiso   1.00
C1218  C     0.99262   0.81783   0.39613   0.00000  Uiso   1.00
C1219  C     0.50001   0.75000   0.39793   0.00000  Uiso   1.00
C1220  C     0.96425   0.69161   0.60341   0.00000  Uiso   1.00
C1221  C     0.69225   0.96328   0.39664   0.00000  Uiso   1.00
C1222  C     0.81791   0.99381   0.60389   0.00000  Uiso   1.00
C1223  C     0.50740   0.68217   0.39615   0.00000  Uiso   1.00
C1224  C     0.53576   0.80836   0.60340   0.00000  Uiso   1.00
C1225  C     0.80775   0.53671   0.39666   0.00000  Uiso   1.00
C1226  C     0.68209   0.50621   0.60385   0.00000  Uiso   1.00
C1227  C     0.74632   0.56813   0.89604   0.00000  Uiso   1.00
C1228  C     0.71183   0.94316   0.10334   0.00000  Uiso   1.00
C1229  C     0.94128   0.71485   0.89659   0.00000  Uiso   1.00
C1230  C     0.99999   0.74999   0.60179   0.00000  Uiso   1.00
C1231  C     0.56769   0.74180   0.10388   0.00000  Uiso   1.00
C1232  C     0.75365   0.93187   0.89606   0.00000  Uiso   1.00
C1233  C     0.78814   0.55685   0.10334   0.00000  Uiso   1.00
C1234  C     0.55871   0.78507   0.89662   0.00000  Uiso   1.00
C1235  C     0.93229   0.75820   0.10385   0.00000  Uiso   1.00
C1236  C     0.75000   0.99999   0.39824   0.00000  Uiso   1.00
C1237  C     0.98571   0.71965   0.58162   0.00000  Uiso   1.00
C1238  C     0.75000   0.50001   0.60208   0.00000  Uiso   1.00
C1239  C     0.75000   0.50000   0.89789   0.00000  Uiso   1.00
C1240  C     0.74999   0.50000   0.10175   0.00000  Uiso   1.00
C1241  C     0.99998   0.74999   0.89823   0.00000  Uiso   1.00
C1242  C     0.99999   0.75000   0.10207   0.00000  Uiso   1.00
C1243  C     0.98369   0.68499   0.47959   0.00000  Uiso   1.00
C1244  C     0.51438   0.81545   0.51989   0.00000  Uiso   1.00
C1245  C     0.81516   0.51550   0.48015   0.00000  Uiso   1.00
C1246  C     0.68533   0.98254   0.52042   0.00000  Uiso   1.00
C1247  C     0.51631   0.81499   0.47959   0.00000  Uiso   1.00
C1248  C     0.71991   0.98520   0.41841   0.00000  Uiso   1.00
C1249  C     0.98562   0.68453   0.51989   0.00000  Uiso   1.00
C1250  C     0.68484   0.98448   0.48013   0.00000  Uiso   1.00
C1251  C     0.81467   0.51745   0.52044   0.00000  Uiso   1.00
C1252  C     0.73038   0.93591   0.97954   0.00000  Uiso   1.00
C1253  C     0.76752   0.56470   0.01981   0.00000  Uiso   1.00
C1254  C     0.56557   0.76361   0.98013   0.00000  Uiso   1.00
C1255  C     0.93484   0.73445   0.02041   0.00000  Uiso   1.00
C1256  C     0.76959   0.56410   0.97953   0.00000  Uiso   1.00
C1257  C     0.73244   0.93531   0.01982   0.00000  Uiso   1.00
C1258  C     0.93441   0.73636   0.98010   0.00000  Uiso   1.00
C1259  C     0.78345   0.50121   0.58205   0.00000  Uiso   1.00
C1260  C     0.56513   0.76554   0.02043   0.00000  Uiso   1.00
C1261  C     0.75000   0.50000   0.35581   0.00000  Uiso   1.00
C1262  C     0.75000   0.50000   0.64431   0.00000  Uiso   1.00
C1263  C     0.50000   0.75000   0.35569   0.00000  Uiso   1.00
C1264  C     0.50000   0.75000   0.64420   0.00000  Uiso   1.00
C1265  C     0.99999   0.75000   0.85581   0.00000  Uiso   1.00
C1266  C     0.99999   0.75000   0.14431   0.00000  Uiso   1.00
C1267  C     0.75000   0.50000   0.85567   0.00000  Uiso   1.00
C1268  C     0.75000   0.50000   0.14419   0.00000  Uiso   1.00
C1269  C     0.68003   0.56997   0.25000   0.00000  Uiso   1.00
C1270  C     0.99941   0.71651   0.41798   0.00000  Uiso   1.00
C1271  C     0.81997   0.93002   0.75003   0.00000  Uiso   1.00
C1272  C     0.93006   0.68005   0.24999   0.00000  Uiso   1.00
C1273  C     0.56994   0.81996   0.75003   0.00000  Uiso   1.00
C1274  C     0.81996   0.93003   0.25001   0.00000  Uiso   1.00
C1275  C     0.68002   0.56996   0.74998   0.00000  Uiso   1.00
C1276  C     0.56994   0.81995   0.24999   0.00000  Uiso   1.00
C1277  C     0.93007   0.68004   0.75003   0.00000  Uiso   1.00
C1278  C     0.68006   0.93005   0.74995   0.00000  Uiso   1.00
C1279  C     0.81995   0.56995   0.25001   0.00000  Uiso   1.00
C1280  C     0.93003   0.81998   0.74997   0.00000  Uiso   1.00
C1281  C     0.51428   0.78034   0.58161   0.00000  Uiso   1.00
C1282  C     0.56997   0.68003   0.25000   0.00000  Uiso   1.00
C1283  C     0.81994   0.56995   0.74996   0.00000  Uiso   1.00
C1284  C     0.68005   0.93005   0.25001   0.00000  Uiso   1.00
C1285  C     0.56998   0.68001   0.75000   0.00000  Uiso   1.00
C1286  C     0.93004   0.81997   0.24999   0.00000  Uiso   1.00
C1287  C     0.62388   0.90339   0.27811   0.00000  Uiso   1.00
C1288  C     0.87904   0.59364   0.72599   0.00000  Uiso   1.00
C1289  C     0.58926   0.61643   0.26334   0.00000  Uiso   1.00
C1290  C     0.91198   0.88486   0.74195   0.00000  Uiso   1.00
C1291  C     0.87613   0.59661   0.27811   0.00000  Uiso   1.00
C1292  C     0.78009   0.51479   0.41842   0.00000  Uiso   1.00
C1293  C     0.62208   0.90524   0.72424   0.00000  Uiso   1.00
C1294  C     0.91080   0.88363   0.26312   0.00000  Uiso   1.00
C1295  C     0.58814   0.61527   0.74222   0.00000  Uiso   1.00
C1296  C     0.61543   0.58810   0.74090   0.00000  Uiso   1.00
C1297  C     0.88305   0.91029   0.26506   0.00000  Uiso   1.00
C1298  C     0.59505   0.87766   0.72386   0.00000  Uiso   1.00
C1299  C     0.90448   0.62280   0.27674   0.00000  Uiso   1.00
C1300  C     0.88463   0.91195   0.74272   0.00000  Uiso   1.00
C1301  C     0.61702   0.58976   0.26525   0.00000  Uiso   1.00
C1302  C     0.90609   0.62121   0.72559   0.00000  Uiso   1.00
C1303  C     0.71655   0.99880   0.58203   0.00000  Uiso   1.00
C1304  C     0.59553   0.87719   0.27675   0.00000  Uiso   1.00
C1305  C     0.87096   0.65636   0.77398   0.00000  Uiso   1.00
C1306  C     0.62716   0.84552   0.22323   0.00000  Uiso   1.00
C1307  C     0.83801   0.86515   0.75812   0.00000  Uiso   1.00
C1308  C     0.66021   0.63302   0.23476   0.00000  Uiso   1.00
C1309  C     0.62803   0.84468   0.77560   0.00000  Uiso   1.00
C1310  C     0.87283   0.65449   0.22323   0.00000  Uiso   1.00
C1311  C     0.66183   0.63455   0.75906   0.00000  Uiso   1.00
C1312  C     0.83972   0.86692   0.23496   0.00000  Uiso   1.00
C1313  C     0.86640   0.83917   0.23685   0.00000  Uiso   1.00
C1314  C     0.75244   0.53341   0.91791   0.00000  Uiso   1.00
C1315  C     0.63469   0.66187   0.75774   0.00000  Uiso   1.00
C1316  C     0.84662   0.62615   0.22189   0.00000  Uiso   1.00
C1317  C     0.65501   0.87231   0.77604   0.00000  Uiso   1.00
C1318  C     0.63353   0.66077   0.23664   0.00000  Uiso   1.00
C1319  C     0.86535   0.83804   0.75725   0.00000  Uiso   1.00
C1320  C     0.65337   0.87386   0.22189   0.00000  Uiso   1.00
C1321  C     0.84395   0.62876   0.77443   0.00000  Uiso   1.00
C1322  C     0.99391   0.71685   0.45868   0.00000  Uiso   1.00
C1323  C     0.50928   0.78239   0.54088   0.00000  Uiso   1.00
C1324  C     0.78222   0.50983   0.45915   0.00000  Uiso   1.00
H1325  H     0.95490   0.66171   0.43969   0.00000  Uiso   1.00
H1326  H     0.75291   0.59940   0.05887   0.00000  Uiso   1.00
H1327  H     0.59922   0.74719   0.94086   0.00000  Uiso   1.00
H1328  H     0.91123   0.70592   0.06031   0.00000  Uiso   1.00
H1329  H     0.79968   0.58584   0.93974   0.00000  Uiso   1.00
H1330  H     0.74704   0.90060   0.05889   0.00000  Uiso   1.00
H1331  H     0.90076   0.75276   0.94079   0.00000  Uiso   1.00
H1332  H     0.58875   0.79408   0.06032   0.00000  Uiso   1.00
H1333  H     0.63661   0.95882   0.30283   0.00000  Uiso   1.00
H1334  H     0.85961   0.54542   0.69122   0.00000  Uiso   1.00
H1335  H     0.53405   0.62851   0.28878   0.00000  Uiso   1.00
H1336  H     0.99836   0.84932   0.55916   0.00000  Uiso   1.00
H1337  H     0.96683   0.87243   0.71586   0.00000  Uiso   1.00
H1338  H     0.86341   0.54116   0.30282   0.00000  Uiso   1.00
H1339  H     0.64297   0.95195   0.68811   0.00000  Uiso   1.00
H1340  H     0.96611   0.87167   0.28839   0.00000  Uiso   1.00
H1341  H     0.53648   0.62002   0.70808   0.00000  Uiso   1.00
H1342  H     0.62907   0.53332   0.71494   0.00000  Uiso   1.00
H1343  H     0.87604   0.97081   0.27406   0.00000  Uiso   1.00
H1344  H     0.53784   0.86732   0.70292   0.00000  Uiso   1.00
H1345  H     0.95132   0.64405   0.31248   0.00000  Uiso   1.00
H1346  H     0.88044   0.96319   0.70771   0.00000  Uiso   1.00
H1347  H     0.84930   0.50002   0.44092   0.00000  Uiso   1.00
H1348  H     0.62405   0.52927   0.27442   0.00000  Uiso   1.00
H1349  H     0.96415   0.63061   0.70695   0.00000  Uiso   1.00
H1350  H     0.54871   0.85593   0.31249   0.00000  Uiso   1.00
H1351  H     0.89031   0.70474   0.80854   0.00000  Uiso   1.00
H1352  H     0.60586   0.79871   0.18747   0.00000  Uiso   1.00
H1353  H     0.78322   0.87770   0.78431   0.00000  Uiso   1.00
H1354  H     0.72067   0.62606   0.22564   0.00000  Uiso   1.00
H1355  H     0.60739   0.79757   0.81125   0.00000  Uiso   1.00
H1356  H     0.89411   0.70132   0.18748   0.00000  Uiso   1.00
H1357  H     0.71610   0.62089   0.78596   0.00000  Uiso   1.00
H1358  H     0.66258   0.95331   0.56032   0.00000  Uiso   1.00
H1359  H     0.77922   0.87389   0.22601   0.00000  Uiso   1.00
H1360  H     0.87840   0.78388   0.21151   0.00000  Uiso   1.00
H1361  H     0.62965   0.71382   0.79142   0.00000  Uiso   1.00
H1362  H     0.79118   0.61348   0.19720   0.00000  Uiso   1.00
H1363  H     0.71223   0.88263   0.79698   0.00000  Uiso   1.00
H1364  H     0.62140   0.71600   0.21118   0.00000  Uiso   1.00
H1365  H     0.86959   0.78661   0.79192   0.00000  Uiso   1.00
H1366  H     0.70879   0.88653   0.19719   0.00000  Uiso   1.00
H1367  H     0.78598   0.61920   0.79327   0.00000  Uiso   1.00
H1368  H     0.50198   0.82124   0.36646   0.00000  Uiso   1.00
H1369  H     0.54511   0.83828   0.43970   0.00000  Uiso   1.00
H1370  H     0.97270   0.68307   0.63222   0.00000  Uiso   1.00
H1371  H     0.68344   0.97169   0.36791   0.00000  Uiso   1.00
H1372  H     0.82115   0.50324   0.63357   0.00000  Uiso   1.00
H1373  H     0.99804   0.67876   0.36647   0.00000  Uiso   1.00
H1374  H     0.52732   0.81691   0.63220   0.00000  Uiso   1.00
H1375  H     0.81656   0.52830   0.36794   0.00000  Uiso   1.00
H1376  H     0.67885   0.99681   0.63354   0.00000  Uiso   1.00
H1377  H     0.75599   0.57106   0.86641   0.00000  Uiso   1.00
H1378  H     0.72024   0.93387   0.13190   0.00000  Uiso   1.00
H1379  H     0.93291   0.72336   0.86776   0.00000  Uiso   1.00
H1380  H     0.50164   0.65066   0.55918   0.00000  Uiso   1.00
H1381  H     0.57121   0.75115   0.13355   0.00000  Uiso   1.00
H1382  H     0.74397   0.92894   0.86643   0.00000  Uiso   1.00
H1383  H     0.77973   0.56613   0.13189   0.00000  Uiso   1.00
H1384  H     0.56711   0.77650   0.86782   0.00000  Uiso   1.00
H1385  H     0.92878   0.74886   0.13353   0.00000  Uiso   1.00
H1386  H     0.65069   0.99995   0.44088   0.00000  Uiso   1.00
H1387  H     0.83742   0.54669   0.56033   0.00000  Uiso   1.00
H1388  H     0.70028   0.91417   0.93974   0.00000  Uiso   1.00
O1389  O     0.75000   0.50000   0.25000   0.00000  Uiso   1.00
O1390  O     0.75000   0.96964   0.66245   0.00000  Uiso   1.00
O1391  O     0.81599   0.64181   0.83483   0.00000  Uiso   1.00
O1392  O     0.97396   0.84192   0.41058   0.00000  Uiso   1.00
O1393  O     0.93609   0.67891   0.58986   0.00000  Uiso   1.00
O1394  O     0.68015   0.93481   0.41013   0.00000  Uiso   1.00
O1395  O     0.84231   0.97557   0.58944   0.00000  Uiso   1.00
O1396  O     0.52605   0.65807   0.41062   0.00000  Uiso   1.00
O1397  O     0.56393   0.82103   0.58985   0.00000  Uiso   1.00
O1398  O     0.81985   0.56517   0.41015   0.00000  Uiso   1.00
O1399  O     0.65768   0.52443   0.58937   0.00000  Uiso   1.00
O1400  O     0.72887   0.59316   0.91040   0.00000  Uiso   1.00
O1401  O     0.96963   0.75000   0.33755   0.00000  Uiso   1.00
O1402  O     0.68291   0.93203   0.09005   0.00000  Uiso   1.00
O1403  O     0.92824   0.68685   0.91017   0.00000  Uiso   1.00
O1404  O     0.59154   0.72284   0.08944   0.00000  Uiso   1.00
O1405  O     0.77109   0.90684   0.91044   0.00000  Uiso   1.00
O1406  O     0.81706   0.56799   0.09006   0.00000  Uiso   1.00
O1407  O     0.57174   0.81310   0.91015   0.00000  Uiso   1.00
O1408  O     0.90843   0.77715   0.08939   0.00000  Uiso   1.00
O1409  O     0.53036   0.75000   0.66245   0.00000  Uiso   1.00
O1410  O     0.50000   0.71964   0.83755   0.00000  Uiso   1.00
O1411  O     0.50000   0.78037   0.16245   0.00000  Uiso   1.00
O1412  O     0.78036   0.50000   0.83755   0.00000  Uiso   1.00
O1413  O     0.71963   0.50000   0.16245   0.00000  Uiso   1.00
O1414  O     0.50000   0.78037   0.83755   0.00000  Uiso   1.00
O1415  O     0.50000   0.71964   0.16245   0.00000  Uiso   1.00
O1416  O     0.71963   0.50000   0.83755   0.00000  Uiso   1.00
O1417  O     0.75000   0.50000   0.75000   0.00000  Uiso   1.00
O1418  O     0.78036   0.50000   0.16245   0.00000  Uiso   1.00
O1419  O     0.70724   0.57308   0.27302   0.00000  Uiso   1.00
O1420  O     0.79275   0.92693   0.72698   0.00000  Uiso   1.00
O1421  O     0.92692   0.70725   0.27302   0.00000  Uiso   1.00
O1422  O     0.57307   0.79276   0.72698   0.00000  Uiso   1.00
O1423  O     0.79275   0.92693   0.27302   0.00000  Uiso   1.00
O1424  O     0.70724   0.57308   0.72698   0.00000  Uiso   1.00
O1425  O     0.57307   0.79276   0.27302   0.00000  Uiso   1.00
O1426  O     0.92692   0.70725   0.72698   0.00000  Uiso   1.00
O1427  O     0.70724   0.92693   0.72698   0.00000  Uiso   1.00
O1428  O     0.50000   0.75000   0.25000   0.00000  Uiso   1.00
O1429  O     0.79275   0.57308   0.27302   0.00000  Uiso   1.00
O1430  O     0.92692   0.79276   0.72698   0.00000  Uiso   1.00
O1431  O     0.57307   0.70725   0.27302   0.00000  Uiso   1.00
O1432  O     0.79275   0.57308   0.72698   0.00000  Uiso   1.00
O1433  O     0.70724   0.92693   0.27302   0.00000  Uiso   1.00
O1434  O     0.57307   0.70725   0.72698   0.00000  Uiso   1.00
O1435  O     0.92692   0.79276   0.27302   0.00000  Uiso   1.00
O1436  O     0.95724   0.82308   0.77302   0.00000  Uiso   1.00
O1437  O     0.54275   0.67693   0.22698   0.00000  Uiso   1.00
O1438  O     0.67692   0.95725   0.77302   0.00000  Uiso   1.00
O1439  O     0.50000   0.75000   0.75000   0.00000  Uiso   1.00
O1440  O     0.82307   0.54275   0.22698   0.00000  Uiso   1.00
O1441  O     0.54275   0.67693   0.77302   0.00000  Uiso   1.00
O1442  O     0.95724   0.82308   0.22698   0.00000  Uiso   1.00
O1443  O     0.82307   0.54275   0.77302   0.00000  Uiso   1.00
O1444  O     0.67692   0.95725   0.22698   0.00000  Uiso   1.00
O1445  O     0.95724   0.67693   0.22698   0.00000  Uiso   1.00
O1446  O     0.54275   0.82308   0.77302   0.00000  Uiso   1.00
O1447  O     0.67692   0.54276   0.22698   0.00000  Uiso   1.00
O1448  O     0.82307   0.95725   0.77302   0.00000  Uiso   1.00
O1449  O     0.54275   0.82308   0.22698   0.00000  Uiso   1.00
O1450  O     0.75000   0.96964   0.33755   0.00000  Uiso   1.00
O1451  O     0.95724   0.67693   0.77302   0.00000  Uiso   1.00
O1452  O     0.82307   0.95725   0.22698   0.00000  Uiso   1.00
O1453  O     0.67692   0.54276   0.77302   0.00000  Uiso   1.00
O1454  O     0.97031   0.65388   0.46185   0.00000  Uiso   1.00
O1455  O     0.51627   0.84927   0.53755   0.00000  Uiso   1.00
O1456  O     0.84893   0.51797   0.46249   0.00000  Uiso   1.00
O1457  O     0.65448   0.96859   0.53816   0.00000  Uiso   1.00
O1458  O     0.52969   0.84611   0.46185   0.00000  Uiso   1.00
O1459  O     0.98373   0.65072   0.53756   0.00000  Uiso   1.00
O1460  O     0.65107   0.98200   0.46245   0.00000  Uiso   1.00
O1461  O     0.75000   0.53036   0.66245   0.00000  Uiso   1.00
O1462  O     0.84552   0.53140   0.53818   0.00000  Uiso   1.00
O1463  O     0.71536   0.90554   0.96182   0.00000  Uiso   1.00
O1464  O     0.77098   0.59841   0.03744   0.00000  Uiso   1.00
O1465  O     0.59938   0.76510   0.96246   0.00000  Uiso   1.00
O1466  O     0.90359   0.72143   0.03815   0.00000  Uiso   1.00
O1467  O     0.78460   0.59447   0.96182   0.00000  Uiso   1.00
O1468  O     0.72897   0.90160   0.03745   0.00000  Uiso   1.00
O1469  O     0.90059   0.73486   0.96243   0.00000  Uiso   1.00
O1470  O     0.59639   0.77856   0.03817   0.00000  Uiso   1.00
O1471  O     0.61537   0.92530   0.34213   0.00000  Uiso   1.00
O1472  O     0.53036   0.75000   0.33755   0.00000  Uiso   1.00
O1473  O     0.91325   0.54460   0.69973   0.00000  Uiso   1.00
O1474  O     0.53717   0.57809   0.26772   0.00000  Uiso   1.00
O1475  O     0.96462   0.92300   0.73592   0.00000  Uiso   1.00
O1476  O     0.88467   0.57467   0.34212   0.00000  Uiso   1.00
O1477  O     0.58905   0.95315   0.69418   0.00000  Uiso   1.00
O1478  O     0.96290   0.92198   0.26703   0.00000  Uiso   1.00
O1479  O     0.53117   0.58722   0.75396   0.00000  Uiso   1.00
O1480  O     0.57715   0.53610   0.73008   0.00000  Uiso   1.00
O1481  O     0.90836   0.94853   0.31362   0.00000  Uiso   1.00
O1482  O     0.56950   0.88823   0.66173   0.00000  Uiso   1.00
O1483  O     0.96963   0.75000   0.66245   0.00000  Uiso   1.00
O1484  O     0.95085   0.58987   0.30950   0.00000  Uiso   1.00
O1485  O     0.91186   0.96934   0.75453   0.00000  Uiso   1.00
O1486  O     0.59196   0.55168   0.31409   0.00000  Uiso   1.00
O1487  O     0.93415   0.60819   0.66525   0.00000  Uiso   1.00
O1488  O     0.54918   0.91010   0.30950   0.00000  Uiso   1.00
O1489  O     0.83666   0.70536   0.80017   0.00000  Uiso   1.00
O1490  O     0.66000   0.79914   0.19042   0.00000  Uiso   1.00
O1491  O     0.78540   0.82701   0.76459   0.00000  Uiso   1.00
O1492  O     0.69823   0.65809   0.18590   0.00000  Uiso   1.00
O1493  O     0.66131   0.79676   0.80531   0.00000  Uiso   1.00
O1494  O     0.75000   0.53036   0.33755   0.00000  Uiso   1.00
O1495  O     0.83997   0.70089   0.19044   0.00000  Uiso   1.00
O1496  O     0.71405   0.67257   0.76956   0.00000  Uiso   1.00
O1497  O     0.80147   0.84157   0.18644   0.00000  Uiso   1.00
O1498  O     0.82815   0.78699   0.23295   0.00000  Uiso   1.00
O1499  O     0.66313   0.71871   0.74610   0.00000  Uiso   1.00
O1500  O     0.82470   0.63464   0.15787   0.00000  Uiso   1.00
O1501  O     0.68059   0.86165   0.83815   0.00000  Uiso   1.00
O1502  O     0.67181   0.71291   0.23223   0.00000  Uiso   1.00
O1503  O     0.83796   0.78077   0.74522   0.00000  Uiso   1.00
O1504  O     0.67525   0.86539   0.15786   0.00000  Uiso   1.00
Zn1505 Zn    0.70659   0.50000   0.21735   0.00000  Uiso   1.00
Zn1506 Zn    0.54340   0.75000   0.28265   0.00000  Uiso   1.00
Zn1507 Zn    0.75000   0.95660   0.71735   0.00000  Uiso   1.00
Zn1508 Zn    0.75000   0.54340   0.28265   0.00000  Uiso   1.00
Zn1509 Zn    0.54340   0.75000   0.71735   0.00000  Uiso   1.00
Zn1510 Zn    0.95659   0.75000   0.28265   0.00000  Uiso   1.00
Zn1511 Zn    0.75000   0.54340   0.71735   0.00000  Uiso   1.00
Zn1512 Zn    0.75000   0.95660   0.28265   0.00000  Uiso   1.00
Zn1513 Zn    0.79340   0.50000   0.78265   0.00000  Uiso   1.00
Zn1514 Zn    0.50000   0.70660   0.21735   0.00000  Uiso   1.00
Zn1515 Zn    0.50000   0.79341   0.78265   0.00000  Uiso   1.00
Zn1516 Zn    0.79340   0.50000   0.21735   0.00000  Uiso   1.00
Zn1517 Zn    0.70659   0.50000   0.78265   0.00000  Uiso   1.00
Zn1518 Zn    0.50000   0.79341   0.21735   0.00000  Uiso   1.00
Zn1519 Zn    0.50000   0.70660   0.78265   0.00000  Uiso   1.00
Zn1520 Zn    0.95659   0.75000   0.71735   0.00000  Uiso   1.00
loop_
_geom_bond_atom_site_label_1
_geom_bond_atom_site_label_2
_geom_bond_distance
_geom_bond_site_symmetry_2
_ccdc_geom_bond_type
C1     C79     1.405   .     A
C1     C4      1.416   .     A
C1     C458    1.492   1_455 S
C2     C14     1.417   .     A
C2     C88     1.491   .     S
C2     C860    1.408   .     S
C3     C163    1.416   .     A
C3     C106    1.418   .     A
C3     C798    1.420   .     A
C4     C107    1.418   .     A
C4     C34     1.420   .     S
C5     C36     1.420   .     A
C5     C97     1.417   .     A
C5     C109    1.420   .     A
C6     C110    1.420   .     A
C6     C37     1.420   .     A
C6     C108    1.417   .     A
C7     C119    1.416   .     A
C7     C111    1.418   .     A
C7     C38     1.420   .     S
C8     C35     1.416   .     A
C8     C112    1.418   .     A
C8     C799    1.420   .     S
C9     C46     1.417   .     A
C9     C113    1.420   .     A
C9     C40     1.420   .     A
C10    C114    1.420   .     A
C10    C57     1.417   .     A
C10    C421    1.420   1_455 S
C11    C115    1.418   .     A
C11    C68     1.416   .     A
C11    C42     1.420   .     A
C12    C174    1.416   .     A
C12    C116    1.418   .     A
C12    C39     1.420   .     A
C13    C15     1.417   .     A
C13    C101    1.408   .     A
C13    C89     1.491   .     S
C14    C117    1.420   .     A
C14    C800    1.420   .     S
C15    C118    1.420   .     A
C15    C41     1.420   .     A
C16    C120    1.418   .     A
C16    C24     1.416   .     A
C16    C422    1.420   1_455 S
C17    C164    1.411   .     A
C17    C166    1.411   .     A
C17    C136    1.452   .     S
C18    C137    1.452   .     S
C18    C165    1.411   .     A
C18    C162    1.411   .     A
C19    C129    1.455   .     S
C19    C161    1.413   .     A
C19    C168    1.413   .     A
C20    C160    1.412   .     A
C20    C167    1.414   .     A
C20    C131    1.456   .     S
C21    C170    1.411   .     A
C21    C159    1.411   .     A
C21    C132    1.452   .     S
C22    C133    1.452   .     S
C22    C158    1.412   .     A
C22    C169    1.412   .     A
C23    C134    1.455   .     S
C23    C157    1.413   .     A
C23    C172    1.413   .     A
C24    C91     1.492   .     S
C24    C482    1.405   1_455 S
C25    C171    1.416   .     A
C25    C156    1.416   .     A
C25    C135    1.455   .     S
C26    C155    1.410   .     A
C26    C145    1.458   .     S
C26    C175    1.410   .     A
C27    C154    1.412   .     A
C27    C146    1.455   .     S
C27    C173    1.412   .     A
C28    C153    1.411   .     A
C28    C177    1.411   .     A
C28    C138    1.452   .     S
C29    C151    1.412   .     A
C29    C176    1.412   .     A
C29    C139    1.452   .     S
C30    C150    1.414   .     A
C30    C179    1.412   .     A
C30    C140    1.457   .     S
C31    C178    1.412   .     A
C31    C149    1.412   .     A
C31    C142    1.455   .     S
C32    C181    1.411   .     A
C32    C148    1.412   .     A
C32    C143    1.452   .     S
C33    C147    1.412   .     A
C33    C144    1.452   .     S
C33    C180    1.412   .     A
C34    C562    1.420   1_455 A
C34    C416    1.416   1_455 A
C35    C92     1.493   .     S
C35    C859    1.405   .     S
C36    C414    1.416   .     A
C36    C563    1.420   .     S
C37    C798    1.416   .     A
C37    C944    1.420   .     S
C38    C797    1.416   1_545 A
C38    C763    1.420   1_545 A
C39    C768    1.420   1_545 S
C39    C40     1.416   1_556 S
C40    C774    1.420   1_545 S
C40    C39     1.416   1_554 S
C41    C390    1.420   .     S
C41    C42     1.416   1_556 S
C42    C396    1.420   .     S
C42    C41     1.416   1_554 S
C43    H193    1.085   .     S
C43    O331    1.221   .     D
C43    C147    1.492   .     S
C44    O333    1.221   .     D
C44    H194    1.085   .     S
C44    C148    1.493   .     S
C45    O334    1.221   .     D
C45    H195    1.085   .     S
C45    C149    1.492   .     S
C46    C100    1.408   .     A
C46    C93     1.491   .     S
C47    O335    1.220   .     D
C47    C150    1.498   .     S
C47    H197    1.085   .     S
C48    C151    1.492   .     S
C48    H198    1.085   .     S
C48    O336    1.221   .     D
C49    C153    1.493   .     S
C49    O337    1.221   .     D
C49    H199    1.085   .     S
C50    O338    1.221   .     D
C50    C154    1.492   .     S
C50    H200    1.085   .     S
C51    C155    1.485   .     S
C51    O339    1.221   .     D
C51    H201    1.085   .     S
C52    O340    1.219   .     D
C52    H202    1.085   .     S
C52    C156    1.500   .     S
C53    H203    1.084   .     S
C53    O341    1.221   .     D
C53    C157    1.493   .     S
C54    H204    1.085   .     S
C54    C158    1.492   .     S
C54    O342    1.221   .     D
C55    C159    1.493   .     S
C55    H205    1.085   .     S
C55    O344    1.221   .     D
C56    O345    1.221   .     D
C56    H206    1.085   .     S
C56    C160    1.485   .     S
C57    C94     1.491   .     S
C57    C481    1.408   1_455 S
C58    O346    1.221   .     D
C58    H208    1.084   .     S
C58    C161    1.493   .     S
C59    C162    1.492   .     S
C59    H209    1.085   .     S
C59    O347    1.221   .     D
C60    O348    1.221   .     D
C60    C164    1.493   .     S
C60    H210    1.085   .     S
C61    C165    1.493   .     S
C61    H211    1.085   .     S
C61    O349    1.221   .     D
C62    H212    1.085   .     S
C62    C166    1.493   .     S
C62    O350    1.221   .     D
C63    O351    1.219   .     D
C63    C167    1.498   .     S
C63    H213    1.085   .     S
C64    C168    1.493   .     S
C64    H214    1.084   .     S
C64    O352    1.221   .     D
C65    H215    1.085   .     S
C65    O353    1.221   .     D
C65    C169    1.492   .     S
C66    O355    1.221   .     D
C66    H216    1.085   .     S
C66    C170    1.493   .     S
C67    O356    1.219   .     D
C67    H217    1.085   .     S
C67    C171    1.500   .     S
C68    C95     1.492   .     S
C68    C102    1.405   .     A
C69    O357    1.221   .     D
C69    H219    1.084   .     S
C69    C172    1.493   .     S
C70    O358    1.221   .     D
C70    H220    1.085   .     S
C70    C173    1.492   .     S
C71    H221    1.085   .     S
C71    O359    1.221   .     D
C71    C175    1.485   .     S
C72    O360    1.221   .     D
C72    C176    1.492   .     S
C72    H222    1.085   .     S
C73    O361    1.221   .     D
C73    H223    1.085   .     S
C73    C177    1.492   .     S
C74    C178    1.492   .     S
C74    H224    1.085   .     S
C74    O362    1.221   .     D
C75    C179    1.485   .     S
C75    H225    1.085   .     S
C75    O363    1.221   .     D
C76    C180    1.492   .     S
C76    H226    1.085   .     S
C76    O364    1.221   .     D
C77    C181    1.492   .     S
C77    H227    1.085   .     S
C77    O251    1.221   .     D
C78    O252    1.221   .     D
C78    C381    1.492   .     S
C78    H608    1.085   .     S
C79    C123    1.455   .     S
C79    C510    1.405   1_455 S
C80    H230    1.085   .     S
C80    C97     1.492   .     S
C80    O253    1.221   .     D
C81    C108    1.491   .     S
C81    H231    1.085   .     S
C81    O254    1.221   .     D
C82    O255    1.221   .     D
C82    C879    1.492   .     S
C82    H992    1.085   .     S
C83    O256    1.221   .     D
C83    C510    1.493   1_455 S
C83    H613    1.085   1_455 S
C84    O257    1.221   .     D
C84    H234    1.085   .     S
C84    C141    1.491   .     S
C85    H235    1.085   .     S
C85    C152    1.491   .     S
C85    O258    1.221   .     D
C86    O259    1.221   .     D
C86    C923    1.493   1_545 S
C86    H996    1.085   1_545 S
C87    C174    1.493   .     S
C87    H237    1.085   .     S
C87    O260    1.221   .     D
C88    O262    1.221   .     D
C88    H238    1.085   .     S
C89    O263    1.221   .     D
C89    H239    1.085   .     S
C90    C97     1.408   .     A
C90    C504    1.461   .     S
C90    C521    1.408   .     S
C91    H241    1.085   .     S
C91    O264    1.221   .     D
C92    O265    1.221   .     D
C92    H242    1.085   .     S
C93    O266    1.221   .     D
C93    H243    1.085   .     S
C94    O267    1.221   .     D
C94    H244    1.085   .     S
C95    H245    1.085   .     S
C95    O268    1.221   .     D
C96    C108    1.408   .     A
C96    C881    1.461   .     S
C96    C912    1.408   .     S
C98    C122    1.454   .     S
C98    C119    1.405   .     A
C98    C923    1.405   1_545 S
C99    C174    1.405   .     A
C99    C795    1.405   1_545 S
C99    C127    1.454   .     S
C100   C762    1.408   1_545 S
C100   C128    1.462   .     S
C101   C125    1.461   .     S
C101   C437    1.408   .     S
C102   C126    1.455   .     S
C102   C404    1.405   .     S
C103   O314    1.379   .     S
C103   C109    1.390   .     A
C103   C182    1.418   .     A
C104   C183    1.420   .     A
C104   C107    1.390   .     A
C104   O315    1.379   .     S
C105   C184    1.420   .     A
C105   O316    1.379   .     S
C105   C111    1.390   .     A
C106   O317    1.379   .     S
C106   C110    1.390   .     A
C107   O318    1.379   .     S
C109   O319    1.379   .     S
C110   O320    1.379   .     S
C111   O322    1.379   .     S
C112   O323    1.379   .     S
C112   C117    1.390   1_556 S
C113   O324    1.379   .     S
C113   C116    1.390   1_554 S
C114   O325    1.379   .     S
C114   C120    1.390   1_556 S
C115   O326    1.379   .     S
C115   C118    1.390   1_554 S
C116   O327    1.379   .     S
C116   C113    1.390   1_556 S
C117   O328    1.379   .     S
C117   C112    1.390   1_554 S
C118   O329    1.379   .     S
C118   C115    1.390   1_556 S
C119   C842    1.492   1_545 S
C120   O330    1.379   .     S
C120   C114    1.390   1_554 S
C121   O1070   1.275   1_545 A
C121   C856    1.461   1_545 S
C121   O354    1.275   .     S
C122   O321    1.273   .     A
C122   O1010   1.273   1_545 S
C123   O332    1.274   .     A
C123   O641    1.274   1_455 S
C124   C470    1.461   1_455 S
C124   O723    1.276   1_455 A
C124   O269    1.276   .     S
C125   O650    1.275   .     A
C125   O654    1.275   .     A
C126   O651    1.273   .     A
C126   O655    1.273   .     A
C127   O272    1.274   .     S
C127   O276    1.274   .     S
C128   O273    1.276   .     A
C128   O278    1.276   .     A
C129   O307    1.277   .     A
C129   O279    1.277   .     A
C130   C182    1.416   .     A
C130   C459    1.405   .     S
C130   C463    1.493   .     S
C131   O308    1.276   .     A
C131   O280    1.278   .     A
C132   O305    1.277   .     A
C132   O281    1.277   .     A
C133   O306    1.276   .     A
C133   O282    1.278   .     A
C134   O283    1.277   .     A
C134   O312    1.277   .     A
C135   O284    1.277   .     A
C135   O313    1.277   .     A
C136   O285    1.277   .     A
C136   O309    1.277   .     A
C137   O286    1.278   .     A
C137   O311    1.276   .     A
C138   O298    1.278   .     A
C138   O287    1.276   .     A
C139   O289    1.277   .     A
C139   O300    1.277   .     A
C140   O290    1.276   .     A
C140   O296    1.278   .     A
C141   C183    1.417   .     A
C141   C470    1.408   1_455 S
C142   O297    1.277   .     A
C142   O291    1.277   .     A
C143   O292    1.276   .     A
C143   O303    1.278   .     A
C144   O293    1.277   .     A
C144   O304    1.277   .     A
C145   O301    1.277   .     A
C145   O294    1.277   .     A
C146   O302    1.277   .     A
C146   O295    1.277   .     A
C147   C164    1.410   .     A
C148   C162    1.410   .     A
C149   C161    1.410   .     A
C150   C160    1.409   .     A
C151   C159    1.410   .     A
C152   C184    1.417   .     A
C152   C856    1.408   1_545 S
C153   C158    1.410   .     A
C154   C157    1.410   .     A
C155   C156    1.410   .     A
C163   C846    1.493   .     S
C163   C858    1.405   .     S
C165   C181    1.410   .     A
C166   C180    1.410   .     A
C167   C179    1.409   .     A
C168   C178    1.410   .     A
C169   C177    1.410   .     A
C170   C176    1.410   .     A
C171   C175    1.410   .     A
C172   C173    1.410   .     A
C182   C414    1.420   .     A
C183   C416    1.420   1_455 S
C184   C797    1.420   1_545 S
H185   O314    0.991   .     S
H186   O324    0.991   .     S
H187   O325    0.991   .     S
H188   O326    0.991   .     S
H189   O327    0.991   .     S
H190   O328    0.991   .     S
H191   O329    0.991   .     S
H192   O330    0.991   .     S
H196   O695    0.991   .     S
H207   O316    0.991   .     S
H218   O317    0.991   .     S
H228   C458    1.085   1_455 S
H229   O318    0.991   .     S
H232   C842    1.085   1_545 S
H233   C463    1.085   .     S
H236   C846    1.085   .     S
H240   O699    0.991   1_455 S
H246   O320    0.991   .     S
H247   O322    0.991   .     S
H248   O323    0.991   .     S
O249   Zn376   1.945   .     S
O249   Zn368   1.944   .     S
O249   Zn365   1.945   .     S
O249   Zn1132  1.944   1_545 S
O250   Zn367   1.950   .     S
O250   C882    1.273   .     S
O261   Zn370   1.950   .     S
O261   C503    1.274   .     S
O269   Zn369   1.950   .     S
O270   C505    1.275   1_455 A
O270   Zn379   1.950   .     S
O271   C506    1.273   1_455 A
O271   Zn378   1.950   .     S
O272   Zn373   1.950   .     S
O273   Zn365   1.950   .     S
O274   C505    1.275   1_455 A
O274   Zn375   1.950   .     S
O275   C506    1.273   1_455 A
O275   Zn374   1.950   .     S
O276   Zn377   1.950   .     S
O277   Zn1127  1.944   1_545 S
O277   Zn371   1.944   .     S
O277   Zn373   1.945   .     S
O277   Zn377   1.945   .     S
O278   Zn376   1.950   .     S
O279   Zn368   1.933   .     S
O280   Zn367   1.933   .     S
O281   Zn370   1.929   .     S
O282   Zn369   1.929   .     S
O283   Zn372   1.933   .     S
O284   Zn371   1.933   .     S
O285   Zn366   1.929   .     S
O286   Zn380   1.929   .     S
O287   Zn367   1.929   .     S
O288   Zn366   1.945   .     S
O288   Zn378   1.944   .     S
O288   Zn374   1.944   .     S
O288   Zn750   1.945   1_455 S
O289   Zn368   1.929   .     S
O290   Zn380   1.933   .     S
O291   Zn366   1.933   .     S
O292   Zn371   1.929   .     S
O293   Zn372   1.929   .     S
O294   Zn369   1.933   .     S
O295   Zn370   1.933   .     S
O296   Zn755   1.933   .     S
O297   Zn374   1.933   .     S
O298   Zn1137  1.929   .     S
O299   Zn369   1.945   .     S
O299   Zn379   1.944   .     S
O299   Zn375   1.944   .     S
O299   Zn760   1.945   1_455 S
O300   Zn376   1.929   .     S
O301   Zn379   1.933   .     S
O302   Zn758   1.933   .     S
O303   Zn373   1.929   .     S
O304   Zn1125  1.929   .     S
O305   Zn754   1.929   .     S
O306   Zn375   1.929   .     S
O307   Zn365   1.933   .     S
O308   Zn1133  1.933   .     S
O309   Zn378   1.929   .     S
O310   C881    1.275   .     A
O310   Zn372   1.950   .     S
O311   Zn759   1.929   .     S
O312   Zn1136  1.933   .     S
O313   Zn377   1.933   .     S
O315   H576    0.991   1_455 S
O319   H620    0.991   .     S
O321   Zn371   1.950   .     S
O332   Zn366   1.950   .     S
O343   Zn380   1.950   .     S
O343   C504    1.276   .     A
O354   Zn368   1.950   .     S
Zn365  O1064   1.929   1_545 S
Zn367  O1037   1.944   .     S
Zn370  O668    1.945   .     S
Zn372  O1009   1.944   .     S
Zn373  O1068   1.933   1_545 S
Zn374  O685    1.929   1_455 S
Zn375  O676    1.933   1_455 S
Zn376  O1072   1.933   1_545 S
Zn377  O1058   1.929   1_545 S
Zn378  O682    1.933   1_455 S
Zn379  O691    1.929   1_455 S
Zn380  O679    1.945   .     S
C381   C459    1.405   .     A
C381   C384    1.416   .     A
C382   C394    1.417   .     A
C382   C468    1.491   .     S
C382   C1240   1.408   .     S
C383   C543    1.416   .     A
C383   C486    1.418   .     A
C383   C1178   1.420   .     A
C384   C487    1.418   .     A
C384   C414    1.420   .     S
C385   C416    1.420   .     A
C385   C477    1.417   .     A
C385   C489    1.420   .     A
C386   C490    1.420   .     A
C386   C417    1.420   .     A
C386   C488    1.417   .     A
C387   C499    1.416   .     A
C387   C491    1.418   .     A
C387   C418    1.420   .     S
C388   C415    1.416   .     A
C388   C492    1.418   .     A
C388   C1179   1.420   .     S
C389   C426    1.417   .     A
C389   C493    1.420   .     A
C389   C420    1.420   .     A
C390   C494    1.420   .     A
C390   C437    1.417   .     A
C391   C495    1.418   .     A
C391   C448    1.416   .     A
C391   C422    1.420   .     A
C392   C554    1.416   .     A
C392   C496    1.418   .     A
C392   C419    1.420   .     A
C393   C395    1.417   .     A
C393   C481    1.408   .     A
C393   C469    1.491   .     S
C394   C497    1.420   .     A
C394   C1180   1.420   .     S
C395   C498    1.420   .     A
C395   C421    1.420   .     A
C396   C500    1.418   .     A
C396   C404    1.416   .     A
C397   C544    1.411   .     A
C397   C546    1.411   .     A
C397   C516    1.452   .     S
C398   C517    1.452   .     S
C398   C545    1.411   .     A
C398   C542    1.411   .     A
C399   C509    1.455   .     S
C399   C541    1.413   .     A
C399   C548    1.413   .     A
C400   C540    1.412   .     A
C400   C547    1.414   .     A
C400   C511    1.456   .     S
C401   C550    1.411   .     A
C401   C539    1.411   .     A
C401   C512    1.452   .     S
C402   C513    1.452   .     S
C402   C538    1.412   .     A
C402   C549    1.412   .     A
C403   C514    1.455   .     S
C403   C537    1.413   .     A
C403   C552    1.413   .     A
C404   C471    1.492   .     S
C405   C551    1.416   .     A
C405   C536    1.416   .     A
C405   C515    1.455   .     S
C406   C535    1.410   .     A
C406   C525    1.458   .     S
C406   C555    1.410   .     A
C407   C534    1.412   .     A
C407   C526    1.455   .     S
C407   C553    1.412   .     A
C408   C533    1.411   .     A
C408   C557    1.411   .     A
C408   C518    1.452   .     S
C409   C531    1.412   .     A
C409   C556    1.412   .     A
C409   C519    1.452   .     S
C410   C530    1.414   .     A
C410   C559    1.412   .     A
C410   C520    1.457   .     S
C411   C558    1.412   .     A
C411   C529    1.412   .     A
C411   C522    1.455   .     S
C412   C561    1.411   .     A
C412   C528    1.412   .     A
C412   C523    1.452   .     S
C413   C527    1.412   .     A
C413   C524    1.452   .     S
C413   C560    1.412   .     A
C415   C472    1.493   .     S
C415   C1239   1.405   .     S
C416   C34     1.416   1_655 A
C416   C183    1.420   1_655 S
C417   C1178   1.416   .     A
C417   C1324   1.420   .     S
C418   C1177   1.416   1_545 A
C418   C1143   1.420   1_545 A
C419   C1148   1.420   1_545 S
C419   C420    1.416   1_556 S
C420   C1154   1.420   1_545 S
C420   C419    1.416   1_554 S
C421   C10     1.420   1_655 S
C421   C422    1.416   1_556 S
C422   C16     1.420   1_655 S
C422   C421    1.416   1_554 S
C423   H573    1.085   .     S
C423   O711    1.221   .     D
C423   C527    1.492   .     S
C424   O713    1.221   .     D
C424   H574    1.085   .     S
C424   C528    1.493   .     S
C425   O714    1.221   .     D
C425   H575    1.085   .     S
C425   C529    1.492   .     S
C426   C480    1.408   .     A
C426   C473    1.491   .     S
C427   O715    1.220   .     D
C427   C530    1.498   .     S
C427   H577    1.085   .     S
C428   C531    1.492   .     S
C428   H578    1.085   .     S
C428   O716    1.221   .     D
C429   C533    1.493   .     S
C429   O717    1.221   .     D
C429   H579    1.085   .     S
C430   O718    1.221   .     D
C430   C534    1.492   .     S
C430   H580    1.085   .     S
C431   C535    1.485   .     S
C431   O719    1.221   .     D
C431   H581    1.085   .     S
C432   O720    1.219   .     D
C432   H582    1.085   .     S
C432   C536    1.500   .     S
C433   H583    1.084   .     S
C433   O721    1.221   .     D
C433   C537    1.493   .     S
C434   H584    1.085   .     S
C434   C538    1.492   .     S
C434   O722    1.221   .     D
C435   C539    1.493   .     S
C435   H585    1.085   .     S
C435   O724    1.221   .     D
C436   O725    1.221   .     D
C436   H586    1.085   .     S
C436   C540    1.485   .     S
C437   C474    1.491   .     S
C438   O726    1.221   .     D
C438   H588    1.084   .     S
C438   C541    1.493   .     S
C439   C542    1.492   .     S
C439   H589    1.085   .     S
C439   O727    1.221   .     D
C440   O728    1.221   .     D
C440   C544    1.493   .     S
C440   H590    1.085   .     S
C441   C545    1.493   .     S
C441   H591    1.085   .     S
C441   O729    1.221   .     D
C442   H592    1.085   .     S
C442   C546    1.493   .     S
C442   O730    1.221   .     D
C443   O731    1.219   .     D
C443   C547    1.498   .     S
C443   H593    1.085   .     S
C444   C548    1.493   .     S
C444   H594    1.084   .     S
C444   O732    1.221   .     D
C445   H595    1.085   .     S
C445   O733    1.221   .     D
C445   C549    1.492   .     S
C446   O735    1.221   .     D
C446   H596    1.085   .     S
C446   C550    1.493   .     S
C447   O736    1.219   .     D
C447   H597    1.085   .     S
C447   C551    1.500   .     S
C448   C475    1.492   .     S
C448   C482    1.405   .     A
C449   O737    1.221   .     D
C449   H599    1.084   .     S
C449   C552    1.493   .     S
C450   O738    1.221   .     D
C450   H600    1.085   .     S
C450   C553    1.492   .     S
C451   H601    1.085   .     S
C451   O739    1.221   .     D
C451   C555    1.485   .     S
C452   O740    1.221   .     D
C452   C556    1.492   .     S
C452   H602    1.085   .     S
C453   O741    1.221   .     D
C453   H603    1.085   .     S
C453   C557    1.492   .     S
C454   C558    1.492   .     S
C454   H604    1.085   .     S
C454   O742    1.221   .     D
C455   C559    1.485   .     S
C455   H605    1.085   .     S
C455   O743    1.221   .     D
C456   C560    1.492   .     S
C456   H606    1.085   .     S
C456   O744    1.221   .     D
C457   C561    1.492   .     S
C457   H607    1.085   .     S
C457   O631    1.221   .     D
C458   O632    1.221   .     D
C458   C1      1.492   1_655 S
C458   H228    1.085   1_655 S
C459   C503    1.455   .     S
C460   H610    1.085   .     S
C460   C477    1.492   .     S
C460   O633    1.221   .     D
C461   C488    1.491   .     S
C461   H611    1.085   .     S
C461   O634    1.221   .     D
C462   O635    1.221   .     D
C462   C1259   1.492   .     S
C462   H1372   1.085   .     S
C463   O636    1.221   .     D
C464   O637    1.221   .     D
C464   H614    1.085   .     S
C464   C521    1.491   .     S
C465   H615    1.085   .     S
C465   C532    1.491   .     S
C465   O638    1.221   .     D
C466   O639    1.221   .     D
C466   C1303   1.493   1_545 S
C466   H1376   1.085   1_545 S
C467   C554    1.493   .     S
C467   H617    1.085   .     S
C467   O640    1.221   .     D
C468   O642    1.221   .     D
C468   H618    1.085   .     S
C469   O643    1.221   .     D
C469   H619    1.085   .     S
C470   C477    1.408   .     A
C470   C124    1.461   1_655 S
C470   C141    1.408   1_655 S
C471   H621    1.085   .     S
C471   O644    1.221   .     D
C472   O645    1.221   .     D
C472   H622    1.085   .     S
C473   O646    1.221   .     D
C473   H623    1.085   .     S
C474   O647    1.221   .     D
C474   H624    1.085   .     S
C475   H625    1.085   .     S
C475   O648    1.221   .     D
C476   C488    1.408   .     A
C476   C1261   1.461   .     S
C476   C1292   1.408   .     S
C478   C502    1.454   .     S
C478   C499    1.405   .     A
C478   C1303   1.405   1_545 S
C479   C554    1.405   .     A
C479   C1175   1.405   1_545 S
C479   C507    1.454   .     S
C480   C1142   1.408   1_545 S
C480   C508    1.462   .     S
C481   C505    1.461   .     S
C481   C57     1.408   1_655 S
C482   C506    1.455   .     S
C482   C24     1.405   1_655 S
C483   O694    1.379   .     S
C483   C489    1.390   .     A
C483   C562    1.418   .     A
C484   C563    1.420   .     A
C484   C487    1.390   .     A
C484   O695    1.379   .     S
C485   C564    1.420   .     A
C485   O696    1.379   .     S
C485   C491    1.390   .     A
C486   O697    1.379   .     S
C486   C490    1.390   .     A
C487   O698    1.379   .     S
C489   O699    1.379   .     S
C490   O700    1.379   .     S
C491   O702    1.379   .     S
C492   O703    1.379   .     S
C492   C497    1.390   1_556 S
C493   O704    1.379   .     S
C493   C496    1.390   1_554 S
C494   O705    1.379   .     S
C494   C500    1.390   1_556 S
C495   O706    1.379   .     S
C495   C498    1.390   1_554 S
C496   O707    1.379   .     S
C496   C493    1.390   1_556 S
C497   O708    1.379   .     S
C497   C492    1.390   1_554 S
C498   O709    1.379   .     S
C498   C495    1.390   1_556 S
C499   C1222   1.492   1_545 S
C500   O710    1.379   .     S
C500   C494    1.390   1_554 S
C501   O1450   1.275   1_545 A
C501   C1236   1.461   1_545 S
C501   O734    1.275   .     S
C502   O701    1.273   .     A
C502   O1390   1.273   1_545 S
C503   O712    1.274   .     A
C504   O649    1.276   .     S
C505   O270    1.275   1_655 A
C505   O274    1.275   1_655 A
C506   O271    1.273   1_655 A
C506   O275    1.273   1_655 A
C507   O652    1.274   .     S
C507   O656    1.274   .     S
C508   O653    1.276   .     A
C508   O658    1.276   .     A
C509   O687    1.277   .     A
C509   O659    1.277   .     A
C510   C562    1.416   .     A
C510   C79     1.405   1_655 S
C510   C83     1.493   1_655 S
C511   O688    1.276   .     A
C511   O660    1.278   .     A
C512   O685    1.277   .     A
C512   O661    1.277   .     A
C513   O686    1.276   .     A
C513   O662    1.278   .     A
C514   O663    1.277   .     A
C514   O692    1.277   .     A
C515   O664    1.277   .     A
C515   O693    1.277   .     A
C516   O665    1.277   .     A
C516   O689    1.277   .     A
C517   O666    1.278   .     A
C517   O691    1.276   .     A
C518   O678    1.278   .     A
C518   O667    1.276   .     A
C519   O669    1.277   .     A
C519   O680    1.277   .     A
C520   O670    1.276   .     A
C520   O676    1.278   .     A
C521   C563    1.417   .     A
C522   O677    1.277   .     A
C522   O671    1.277   .     A
C523   O672    1.276   .     A
C523   O683    1.278   .     A
C524   O673    1.277   .     A
C524   O684    1.277   .     A
C525   O681    1.277   .     A
C525   O674    1.277   .     A
C526   O682    1.277   .     A
C526   O675    1.277   .     A
C527   C544    1.410   .     A
C528   C542    1.410   .     A
C529   C541    1.410   .     A
C530   C540    1.409   .     A
C531   C539    1.410   .     A
C532   C564    1.417   .     A
C532   C1236   1.408   1_545 S
C533   C538    1.410   .     A
C534   C537    1.410   .     A
C535   C536    1.410   .     A
C543   C1226   1.493   .     S
C543   C1238   1.405   .     S
C545   C561    1.410   .     A
C546   C560    1.410   .     A
C547   C559    1.409   .     A
C548   C558    1.410   .     A
C549   C557    1.410   .     A
C550   C556    1.410   .     A
C551   C555    1.410   .     A
C552   C553    1.410   .     A
C562   C34     1.420   1_655 A
C564   C1177   1.420   1_545 S
H565   O694    0.991   .     S
H566   O704    0.991   .     S
H567   O705    0.991   .     S
H568   O706    0.991   .     S
H569   O707    0.991   .     S
H570   O708    0.991   .     S
H571   O709    0.991   .     S
H572   O710    0.991   .     S
H576   O315    0.991   1_655 S
H587   O696    0.991   .     S
H598   O697    0.991   .     S
H609   O698    0.991   .     S
H612   C1222   1.085   1_545 S
H613   C83     1.085   1_655 S
H616   C1226   1.085   .     S
H626   O700    0.991   .     S
H627   O702    0.991   .     S
H628   O703    0.991   .     S
O629   Zn756   1.945   .     S
O629   Zn748   1.944   .     S
O629   Zn745   1.945   .     S
O629   Zn1512  1.944   1_545 S
O630   Zn747   1.950   .     S
O630   C1262   1.273   .     S
O641   Zn750   1.950   .     S
O641   C123    1.274   1_655 S
O649   Zn749   1.950   .     S
O650   Zn759   1.950   .     S
O651   Zn758   1.950   .     S
O652   Zn753   1.950   .     S
O653   Zn745   1.950   .     S
O654   Zn755   1.950   .     S
O655   Zn754   1.950   .     S
O656   Zn757   1.950   .     S
O657   Zn1507  1.944   1_545 S
O657   Zn751   1.944   .     S
O657   Zn753   1.945   .     S
O657   Zn757   1.945   .     S
O658   Zn756   1.950   .     S
O659   Zn748   1.933   .     S
O660   Zn747   1.933   .     S
O661   Zn750   1.929   .     S
O662   Zn749   1.929   .     S
O663   Zn752   1.933   .     S
O664   Zn751   1.933   .     S
O665   Zn746   1.929   .     S
O666   Zn760   1.929   .     S
O667   Zn747   1.929   .     S
O668   Zn746   1.945   .     S
O668   Zn758   1.944   .     S
O668   Zn754   1.944   .     S
O669   Zn748   1.929   .     S
O670   Zn760   1.933   .     S
O671   Zn746   1.933   .     S
O672   Zn751   1.929   .     S
O673   Zn752   1.929   .     S
O674   Zn749   1.933   .     S
O675   Zn750   1.933   .     S
O676   Zn375   1.933   1_655 S
O677   Zn754   1.933   .     S
O678   Zn1517  1.929   .     S
O679   Zn749   1.945   .     S
O679   Zn759   1.944   .     S
O679   Zn755   1.944   .     S
O680   Zn756   1.929   .     S
O681   Zn759   1.933   .     S
O682   Zn378   1.933   1_655 S
O683   Zn753   1.929   .     S
O684   Zn1505  1.929   .     S
O685   Zn374   1.929   1_655 S
O686   Zn755   1.929   .     S
O687   Zn745   1.933   .     S
O688   Zn1513  1.933   .     S
O689   Zn758   1.929   .     S
O690   C1261   1.275   .     A
O690   Zn752   1.950   .     S
O691   Zn379   1.929   1_655 S
O692   Zn1516  1.933   .     S
O693   Zn757   1.933   .     S
O699   H240    0.991   1_655 S
O701   Zn751   1.950   .     S
O712   Zn746   1.950   .     S
O723   Zn760   1.950   .     S
O723   C124    1.276   1_655 A
O734   Zn748   1.950   .     S
Zn745  O1444   1.929   1_545 S
Zn747  O1417   1.944   .     S
Zn750  O288    1.945   1_655 S
Zn752  O1389   1.944   .     S
Zn753  O1448   1.933   1_545 S
Zn756  O1452   1.933   1_545 S
Zn757  O1438   1.929   1_545 S
Zn760  O299    1.945   1_655 S
C761   C839    1.405   .     A
C761   C764    1.416   .     A
C761   C1218   1.492   1_455 S
C762   C774    1.417   .     A
C762   C848    1.491   .     S
C762   C100    1.408   1_565 S
C763   C923    1.416   .     A
C763   C866    1.418   .     A
C763   C38     1.420   1_565 A
C764   C867    1.418   .     A
C764   C794    1.420   .     S
C765   C796    1.420   .     A
C765   C857    1.417   .     A
C765   C869    1.420   .     A
C766   C870    1.420   .     A
C766   C797    1.420   .     A
C766   C868    1.417   .     A
C767   C879    1.416   .     A
C767   C871    1.418   .     A
C767   C798    1.420   .     S
C768   C795    1.416   .     A
C768   C872    1.418   .     A
C768   C39     1.420   1_565 S
C769   C806    1.417   .     A
C769   C873    1.420   .     A
C769   C800    1.420   .     A
C770   C874    1.420   .     A
C770   C817    1.417   .     A
C770   C1181   1.420   1_455 S
C771   C875    1.418   .     A
C771   C828    1.416   .     A
C771   C802    1.420   .     A
C772   C934    1.416   .     A
C772   C876    1.418   .     A
C772   C799    1.420   .     A
C773   C775    1.417   .     A
C773   C861    1.408   .     A
C773   C849    1.491   .     S
C774   C877    1.420   .     A
C774   C40     1.420   1_565 S
C775   C878    1.420   .     A
C775   C801    1.420   .     A
C776   C880    1.418   .     A
C776   C784    1.416   .     A
C776   C1182   1.420   1_455 S
C777   C924    1.411   .     A
C777   C926    1.411   .     A
C777   C896    1.452   .     S
C778   C897    1.452   .     S
C778   C925    1.411   .     A
C778   C922    1.411   .     A
C779   C889    1.455   .     S
C779   C921    1.413   .     A
C779   C928    1.413   .     A
C780   C920    1.412   .     A
C780   C927    1.414   .     A
C780   C891    1.456   .     S
C781   C930    1.411   .     A
C781   C919    1.411   .     A
C781   C892    1.452   .     S
C782   C893    1.452   .     S
C782   C918    1.412   .     A
C782   C929    1.412   .     A
C783   C894    1.455   .     S
C783   C917    1.413   .     A
C783   C932    1.413   .     A
C784   C851    1.492   .     S
C784   C1242   1.405   1_455 S
C785   C931    1.416   .     A
C785   C916    1.416   .     A
C785   C895    1.455   .     S
C786   C915    1.410   .     A
C786   C905    1.458   .     S
C786   C935    1.410   .     A
C787   C914    1.412   .     A
C787   C906    1.455   .     S
C787   C933    1.412   .     A
C788   C913    1.411   .     A
C788   C937    1.411   .     A
C788   C898    1.452   .     S
C789   C911    1.412   .     A
C789   C936    1.412   .     A
C789   C899    1.452   .     S
C790   C910    1.414   .     A
C790   C939    1.412   .     A
C790   C900    1.457   .     S
C791   C938    1.412   .     A
C791   C909    1.412   .     A
C791   C902    1.455   .     S
C792   C941    1.411   .     A
C792   C908    1.412   .     A
C792   C903    1.452   .     S
C793   C907    1.412   .     A
C793   C904    1.452   .     S
C793   C940    1.412   .     A
C794   C1322   1.420   1_455 A
C794   C1176   1.416   1_455 A
C795   C852    1.493   .     S
C795   C99     1.405   1_565 S
C796   C1174   1.416   .     A
C796   C1323   1.420   .     S
C797   C38     1.416   1_565 A
C797   C184    1.420   1_565 S
C799   C800    1.416   1_556 S
C800   C799    1.416   1_554 S
C801   C1150   1.420   .     S
C801   C802    1.416   1_556 S
C802   C1156   1.420   .     S
C802   C801    1.416   1_554 S
C803   H953    1.085   .     S
C803   O1091   1.221   .     D
C803   C907    1.492   .     S
C804   O1093   1.221   .     D
C804   H954    1.085   .     S
C804   C908    1.493   .     S
C805   O1094   1.221   .     D
C805   H955    1.085   .     S
C805   C909    1.492   .     S
C806   C860    1.408   .     A
C806   C853    1.491   .     S
C807   O1095   1.220   .     D
C807   C910    1.498   .     S
C807   H957    1.085   .     S
C808   C911    1.492   .     S
C808   H958    1.085   .     S
C808   O1096   1.221   .     D
C809   C913    1.493   .     S
C809   O1097   1.221   .     D
C809   H959    1.085   .     S
C810   O1098   1.221   .     D
C810   C914    1.492   .     S
C810   H960    1.085   .     S
C811   C915    1.485   .     S
C811   O1099   1.221   .     D
C811   H961    1.085   .     S
C812   O1100   1.219   .     D
C812   H962    1.085   .     S
C812   C916    1.500   .     S
C813   H963    1.084   .     S
C813   O1101   1.221   .     D
C813   C917    1.493   .     S
C814   H964    1.085   .     S
C814   C918    1.492   .     S
C814   O1102   1.221   .     D
C815   C919    1.493   .     S
C815   H965    1.085   .     S
C815   O1104   1.221   .     D
C816   O1105   1.221   .     D
C816   H966    1.085   .     S
C816   C920    1.485   .     S
C817   C854    1.491   .     S
C817   C1241   1.408   1_455 S
C818   O1106   1.221   .     D
C818   H968    1.084   .     S
C818   C921    1.493   .     S
C819   C922    1.492   .     S
C819   H969    1.085   .     S
C819   O1107   1.221   .     D
C820   O1108   1.221   .     D
C820   C924    1.493   .     S
C820   H970    1.085   .     S
C821   C925    1.493   .     S
C821   H971    1.085   .     S
C821   O1109   1.221   .     D
C822   H972    1.085   .     S
C822   C926    1.493   .     S
C822   O1110   1.221   .     D
C823   O1111   1.219   .     D
C823   C927    1.498   .     S
C823   H973    1.085   .     S
C824   C928    1.493   .     S
C824   H974    1.084   .     S
C824   O1112   1.221   .     D
C825   H975    1.085   .     S
C825   O1113   1.221   .     D
C825   C929    1.492   .     S
C826   O1115   1.221   .     D
C826   H976    1.085   .     S
C826   C930    1.493   .     S
C827   O1116   1.219   .     D
C827   H977    1.085   .     S
C827   C931    1.500   .     S
C828   C855    1.492   .     S
C828   C862    1.405   .     A
C829   O1117   1.221   .     D
C829   H979    1.084   .     S
C829   C932    1.493   .     S
C830   O1118   1.221   .     D
C830   H980    1.085   .     S
C830   C933    1.492   .     S
C831   H981    1.085   .     S
C831   O1119   1.221   .     D
C831   C935    1.485   .     S
C832   O1120   1.221   .     D
C832   C936    1.492   .     S
C832   H982    1.085   .     S
C833   O1121   1.221   .     D
C833   H983    1.085   .     S
C833   C937    1.492   .     S
C834   C938    1.492   .     S
C834   H984    1.085   .     S
C834   O1122   1.221   .     D
C835   C939    1.485   .     S
C835   H985    1.085   .     S
C835   O1123   1.221   .     D
C836   C940    1.492   .     S
C836   H986    1.085   .     S
C836   O1124   1.221   .     D
C837   C941    1.492   .     S
C837   H987    1.085   .     S
C837   O1011   1.221   .     D
C838   O1012   1.221   .     D
C838   C1141   1.492   .     S
C838   H1368   1.085   .     S
C839   C883    1.455   .     S
C839   C1270   1.405   1_455 S
C840   H990    1.085   .     S
C840   C857    1.492   .     S
C840   O1013   1.221   .     D
C841   C868    1.491   .     S
C841   H991    1.085   .     S
C841   O1014   1.221   .     D
C842   O1015   1.221   .     D
C842   C119    1.492   1_565 S
C842   H232    1.085   1_565 S
C843   O1016   1.221   .     D
C843   C1270   1.493   1_455 S
C843   H1373   1.085   1_455 S
C844   O1017   1.221   .     D
C844   H994    1.085   .     S
C844   C901    1.491   .     S
C845   H995    1.085   .     S
C845   C912    1.491   .     S
C845   O1018   1.221   .     D
C846   O1019   1.221   .     D
C847   C934    1.493   .     S
C847   H997    1.085   .     S
C847   O1020   1.221   .     D
C848   O1022   1.221   .     D
C848   H998    1.085   .     S
C849   O1023   1.221   .     D
C849   H999    1.085   .     S
C850   C857    1.408   .     A
C850   C1264   1.461   .     S
C850   C1281   1.408   .     S
C851   H1001   1.085   .     S
C851   O1024   1.221   .     D
C852   O1025   1.221   .     D
C852   H1002   1.085   .     S
C853   O1026   1.221   .     D
C853   H1003   1.085   .     S
C854   O1027   1.221   .     D
C854   H1004   1.085   .     S
C855   H1005   1.085   .     S
C855   O1028   1.221   .     D
C856   C868    1.408   .     A
C856   C121    1.461   1_565 S
C856   C152    1.408   1_565 S
C858   C882    1.454   .     S
C858   C879    1.405   .     A
C859   C934    1.405   .     A
C859   C887    1.454   .     S
C860   C888    1.462   .     S
C861   C885    1.461   .     S
C861   C1197   1.408   .     S
C862   C886    1.455   .     S
C862   C1164   1.405   .     S
C863   O1074   1.379   .     S
C863   C869    1.390   .     A
C863   C942    1.418   .     A
C864   C943    1.420   .     A
C864   C867    1.390   .     A
C864   O1075   1.379   .     S
C865   C944    1.420   .     A
C865   O1076   1.379   .     S
C865   C871    1.390   .     A
C866   O1077   1.379   .     S
C866   C870    1.390   .     A
C867   O1078   1.379   .     S
C869   O1079   1.379   .     S
C870   O1080   1.379   .     S
C871   O1082   1.379   .     S
C872   O1083   1.379   .     S
C872   C877    1.390   1_556 S
C873   O1084   1.379   .     S
C873   C876    1.390   1_554 S
C874   O1085   1.379   .     S
C874   C880    1.390   1_556 S
C875   O1086   1.379   .     S
C875   C878    1.390   1_554 S
C876   O1087   1.379   .     S
C876   C873    1.390   1_556 S
C877   O1088   1.379   .     S
C877   C872    1.390   1_554 S
C878   O1089   1.379   .     S
C878   C875    1.390   1_556 S
C880   O1090   1.379   .     S
C880   C874    1.390   1_554 S
C881   O1114   1.275   .     S
C882   O1081   1.273   .     A
C883   O1092   1.274   .     A
C883   O1401   1.274   1_455 S
C884   C1230   1.461   1_455 S
C884   O1483   1.276   1_455 A
C884   O1029   1.276   .     S
C885   O1410   1.275   .     A
C885   O1414   1.275   .     A
C886   O1411   1.273   .     A
C886   O1415   1.273   .     A
C887   O1032   1.274   .     S
C887   O1036   1.274   .     S
C888   O1033   1.276   .     A
C888   O1038   1.276   .     A
C889   O1067   1.277   .     A
C889   O1039   1.277   .     A
C890   C942    1.416   .     A
C890   C1219   1.405   .     S
C890   C1223   1.493   .     S
C891   O1068   1.276   .     A
C891   O1040   1.278   .     A
C892   O1065   1.277   .     A
C892   O1041   1.277   .     A
C893   O1066   1.276   .     A
C893   O1042   1.278   .     A
C894   O1043   1.277   .     A
C894   O1072   1.277   .     A
C895   O1044   1.277   .     A
C895   O1073   1.277   .     A
C896   O1045   1.277   .     A
C896   O1069   1.277   .     A
C897   O1046   1.278   .     A
C897   O1071   1.276   .     A
C898   O1058   1.278   .     A
C898   O1047   1.276   .     A
C899   O1049   1.277   .     A
C899   O1060   1.277   .     A
C900   O1050   1.276   .     A
C900   O1056   1.278   .     A
C901   C943    1.417   .     A
C901   C1230   1.408   1_455 S
C902   O1057   1.277   .     A
C902   O1051   1.277   .     A
C903   O1052   1.276   .     A
C903   O1063   1.278   .     A
C904   O1053   1.277   .     A
C904   O1064   1.277   .     A
C905   O1061   1.277   .     A
C905   O1054   1.277   .     A
C906   O1062   1.277   .     A
C906   O1055   1.277   .     A
C907   C924    1.410   .     A
C908   C922    1.410   .     A
C909   C921    1.410   .     A
C910   C920    1.409   .     A
C911   C919    1.410   .     A
C912   C944    1.417   .     A
C913   C918    1.410   .     A
C914   C917    1.410   .     A
C915   C916    1.410   .     A
C923   C86     1.493   1_565 S
C923   C98     1.405   1_565 S
C925   C941    1.410   .     A
C926   C940    1.410   .     A
C927   C939    1.409   .     A
C928   C938    1.410   .     A
C929   C937    1.410   .     A
C930   C936    1.410   .     A
C931   C935    1.410   .     A
C932   C933    1.410   .     A
C942   C1174   1.420   .     A
C943   C1176   1.420   1_455 S
H945   O1074   0.991   .     S
H946   O1084   0.991   .     S
H947   O1085   0.991   .     S
H948   O1086   0.991   .     S
H949   O1087   0.991   .     S
H950   O1088   0.991   .     S
H951   O1089   0.991   .     S
H952   O1090   0.991   .     S
H956   O1455   0.991   .     S
H967   O1076   0.991   .     S
H978   O1077   0.991   .     S
H988   C1218   1.085   1_455 S
H989   O1078   0.991   .     S
H993   C1223   1.085   .     S
H996   C86     1.085   1_565 S
H1000  O1459   0.991   1_455 S
H1006  O1080   0.991   .     S
H1007  O1082   0.991   .     S
H1008  O1083   0.991   .     S
O1009  Zn1136  1.945   .     S
O1009  Zn1128  1.944   .     S
O1009  Zn1125  1.945   .     S
O1010  Zn1127  1.950   .     S
O1010  C122    1.273   1_565 S
O1021  Zn1130  1.950   .     S
O1021  C1263   1.274   .     S
O1029  Zn1129  1.950   .     S
O1030  C1265   1.275   1_455 A
O1030  Zn1139  1.950   .     S
O1031  C1266   1.273   1_455 A
O1031  Zn1138  1.950   .     S
O1032  Zn1133  1.950   .     S
O1033  Zn1125  1.950   .     S
O1034  C1265   1.275   1_455 A
O1034  Zn1135  1.950   .     S
O1035  C1266   1.273   1_455 A
O1035  Zn1134  1.950   .     S
O1036  Zn1137  1.950   .     S
O1037  Zn1131  1.944   .     S
O1037  Zn1133  1.945   .     S
O1037  Zn1137  1.945   .     S
O1038  Zn1136  1.950   .     S
O1039  Zn1128  1.933   .     S
O1040  Zn1127  1.933   .     S
O1041  Zn1130  1.929   .     S
O1042  Zn1129  1.929   .     S
O1043  Zn1132  1.933   .     S
O1044  Zn1131  1.933   .     S
O1045  Zn1126  1.929   .     S
O1046  Zn1140  1.929   .     S
O1047  Zn1127  1.929   .     S
O1048  Zn1126  1.945   .     S
O1048  Zn1138  1.944   .     S
O1048  Zn1134  1.944   .     S
O1048  Zn1510  1.945   1_455 S
O1049  Zn1128  1.929   .     S
O1050  Zn1140  1.933   .     S
O1051  Zn1126  1.933   .     S
O1052  Zn1131  1.929   .     S
O1053  Zn1132  1.929   .     S
O1054  Zn1129  1.933   .     S
O1055  Zn1130  1.933   .     S
O1056  Zn1515  1.933   .     S
O1057  Zn1134  1.933   .     S
O1058  Zn377   1.929   1_565 S
O1059  Zn1129  1.945   .     S
O1059  Zn1139  1.944   .     S
O1059  Zn1135  1.944   .     S
O1059  Zn1520  1.945   1_455 S
O1060  Zn1136  1.929   .     S
O1061  Zn1139  1.933   .     S
O1062  Zn1518  1.933   .     S
O1063  Zn1133  1.929   .     S
O1064  Zn365   1.929   1_565 S
O1065  Zn1514  1.929   .     S
O1066  Zn1135  1.929   .     S
O1067  Zn1125  1.933   .     S
O1068  Zn373   1.933   1_565 S
O1069  Zn1138  1.929   .     S
O1070  C121    1.275   1_565 A
O1070  Zn1132  1.950   .     S
O1071  Zn1519  1.929   .     S
O1072  Zn376   1.933   1_565 S
O1073  Zn1137  1.933   .     S
O1075  H1336   0.991   1_455 S
O1079  H1380   0.991   .     S
O1081  Zn1131  1.950   .     S
O1092  Zn1126  1.950   .     S
O1103  Zn1140  1.950   .     S
O1103  C1264   1.276   .     A
O1114  Zn1128  1.950   .     S
Zn1127 O277    1.944   1_565 S
Zn1130 O1428   1.945   .     S
Zn1132 O249    1.944   1_565 S
Zn1134 O1445   1.929   1_455 S
Zn1135 O1436   1.933   1_455 S
Zn1138 O1442   1.933   1_455 S
Zn1139 O1451   1.929   1_455 S
Zn1140 O1439   1.945   .     S
C1141  C1219   1.405   .     A
C1141  C1144   1.416   .     A
C1142  C1154   1.417   .     A
C1142  C1228   1.491   .     S
C1142  C480    1.408   1_565 S
C1143  C1303   1.416   .     A
C1143  C1246   1.418   .     A
C1143  C418    1.420   1_565 A
C1144  C1247   1.418   .     A
C1144  C1174   1.420   .     S
C1145  C1176   1.420   .     A
C1145  C1237   1.417   .     A
C1145  C1249   1.420   .     A
C1146  C1250   1.420   .     A
C1146  C1177   1.420   .     A
C1146  C1248   1.417   .     A
C1147  C1259   1.416   .     A
C1147  C1251   1.418   .     A
C1147  C1178   1.420   .     S
C1148  C1175   1.416   .     A
C1148  C1252   1.418   .     A
C1148  C419    1.420   1_565 S
C1149  C1186   1.417   .     A
C1149  C1253   1.420   .     A
C1149  C1180   1.420   .     A
C1150  C1254   1.420   .     A
C1150  C1197   1.417   .     A
C1151  C1255   1.418   .     A
C1151  C1208   1.416   .     A
C1151  C1182   1.420   .     A
C1152  C1314   1.416   .     A
C1152  C1256   1.418   .     A
C1152  C1179   1.420   .     A
C1153  C1155   1.417   .     A
C1153  C1241   1.408   .     A
C1153  C1229   1.491   .     S
C1154  C1257   1.420   .     A
C1154  C420    1.420   1_565 S
C1155  C1258   1.420   .     A
C1155  C1181   1.420   .     A
C1156  C1260   1.418   .     A
C1156  C1164   1.416   .     A
C1157  C1304   1.411   .     A
C1157  C1306   1.411   .     A
C1157  C1276   1.452   .     S
C1158  C1277   1.452   .     S
C1158  C1305   1.411   .     A
C1158  C1302   1.411   .     A
C1159  C1269   1.455   .     S
C1159  C1301   1.413   .     A
C1159  C1308   1.413   .     A
C1160  C1300   1.412   .     A
C1160  C1307   1.414   .     A
C1160  C1271   1.456   .     S
C1161  C1310   1.411   .     A
C1161  C1299   1.411   .     A
C1161  C1272   1.452   .     S
C1162  C1273   1.452   .     S
C1162  C1298   1.412   .     A
C1162  C1309   1.412   .     A
C1163  C1274   1.455   .     S
C1163  C1297   1.413   .     A
C1163  C1312   1.413   .     A
C1164  C1231   1.492   .     S
C1165  C1311   1.416   .     A
C1165  C1296   1.416   .     A
C1165  C1275   1.455   .     S
C1166  C1295   1.410   .     A
C1166  C1285   1.458   .     S
C1166  C1315   1.410   .     A
C1167  C1294   1.412   .     A
C1167  C1286   1.455   .     S
C1167  C1313   1.412   .     A
C1168  C1293   1.411   .     A
C1168  C1317   1.411   .     A
C1168  C1278   1.452   .     S
C1169  C1291   1.412   .     A
C1169  C1316   1.412   .     A
C1169  C1279   1.452   .     S
C1170  C1290   1.414   .     A
C1170  C1319   1.412   .     A
C1170  C1280   1.457   .     S
C1171  C1318   1.412   .     A
C1171  C1289   1.412   .     A
C1171  C1282   1.455   .     S
C1172  C1321   1.411   .     A
C1172  C1288   1.412   .     A
C1172  C1283   1.452   .     S
C1173  C1287   1.412   .     A
C1173  C1284   1.452   .     S
C1173  C1320   1.412   .     A
C1175  C1232   1.493   .     S
C1175  C479    1.405   1_565 S
C1176  C794    1.416   1_655 A
C1176  C943    1.420   1_655 S
C1177  C418    1.416   1_565 A
C1177  C564    1.420   1_565 S
C1179  C1180   1.416   1_556 S
C1180  C1179   1.416   1_554 S
C1181  C770    1.420   1_655 S
C1181  C1182   1.416   1_556 S
C1182  C776    1.420   1_655 S
C1182  C1181   1.416   1_554 S
C1183  H1333   1.085   .     S
C1183  O1471   1.221   .     D
C1183  C1287   1.492   .     S
C1184  O1473   1.221   .     D
C1184  H1334   1.085   .     S
C1184  C1288   1.493   .     S
C1185  O1474   1.221   .     D
C1185  H1335   1.085   .     S
C1185  C1289   1.492   .     S
C1186  C1240   1.408   .     A
C1186  C1233   1.491   .     S
C1187  O1475   1.220   .     D
C1187  C1290   1.498   .     S
C1187  H1337   1.085   .     S
C1188  C1291   1.492   .     S
C1188  H1338   1.085   .     S
C1188  O1476   1.221   .     D
C1189  C1293   1.493   .     S
C1189  O1477   1.221   .     D
C1189  H1339   1.085   .     S
C1190  O1478   1.221   .     D
C1190  C1294   1.492   .     S
C1190  H1340   1.085   .     S
C1191  C1295   1.485   .     S
C1191  O1479   1.221   .     D
C1191  H1341   1.085   .     S
C1192  O1480   1.219   .     D
C1192  H1342   1.085   .     S
C1192  C1296   1.500   .     S
C1193  H1343   1.084   .     S
C1193  O1481   1.221   .     D
C1193  C1297   1.493   .     S
C1194  H1344   1.085   .     S
C1194  C1298   1.492   .     S
C1194  O1482   1.221   .     D
C1195  C1299   1.493   .     S
C1195  H1345   1.085   .     S
C1195  O1484   1.221   .     D
C1196  O1485   1.221   .     D
C1196  H1346   1.085   .     S
C1196  C1300   1.485   .     S
C1197  C1234   1.491   .     S
C1198  O1486   1.221   .     D
C1198  H1348   1.084   .     S
C1198  C1301   1.493   .     S
C1199  C1302   1.492   .     S
C1199  H1349   1.085   .     S
C1199  O1487   1.221   .     D
C1200  O1488   1.221   .     D
C1200  C1304   1.493   .     S
C1200  H1350   1.085   .     S
C1201  C1305   1.493   .     S
C1201  H1351   1.085   .     S
C1201  O1489   1.221   .     D
C1202  H1352   1.085   .     S
C1202  C1306   1.493   .     S
C1202  O1490   1.221   .     D
C1203  O1491   1.219   .     D
C1203  C1307   1.498   .     S
C1203  H1353   1.085   .     S
C1204  C1308   1.493   .     S
C1204  H1354   1.084   .     S
C1204  O1492   1.221   .     D
C1205  H1355   1.085   .     S
C1205  O1493   1.221   .     D
C1205  C1309   1.492   .     S
C1206  O1495   1.221   .     D
C1206  H1356   1.085   .     S
C1206  C1310   1.493   .     S
C1207  O1496   1.219   .     D
C1207  H1357   1.085   .     S
C1207  C1311   1.500   .     S
C1208  C1235   1.492   .     S
C1208  C1242   1.405   .     A
C1209  O1497   1.221   .     D
C1209  H1359   1.084   .     S
C1209  C1312   1.493   .     S
C1210  O1498   1.221   .     D
C1210  H1360   1.085   .     S
C1210  C1313   1.492   .     S
C1211  H1361   1.085   .     S
C1211  O1499   1.221   .     D
C1211  C1315   1.485   .     S
C1212  O1500   1.221   .     D
C1212  C1316   1.492   .     S
C1212  H1362   1.085   .     S
C1213  O1501   1.221   .     D
C1213  H1363   1.085   .     S
C1213  C1317   1.492   .     S
C1214  C1318   1.492   .     S
C1214  H1364   1.085   .     S
C1214  O1502   1.221   .     D
C1215  C1319   1.485   .     S
C1215  H1365   1.085   .     S
C1215  O1503   1.221   .     D
C1216  C1320   1.492   .     S
C1216  H1366   1.085   .     S
C1216  O1504   1.221   .     D
C1217  C1321   1.492   .     S
C1217  H1367   1.085   .     S
C1217  O1391   1.221   .     D
C1218  O1392   1.221   .     D
C1218  C761    1.492   1_655 S
C1218  H988    1.085   1_655 S
C1219  C1263   1.455   .     S
C1220  H1370   1.085   .     S
C1220  C1237   1.492   .     S
C1220  O1393   1.221   .     D
C1221  C1248   1.491   .     S
C1221  H1371   1.085   .     S
C1221  O1394   1.221   .     D
C1222  O1395   1.221   .     D
C1222  C499    1.492   1_565 S
C1222  H612    1.085   1_565 S
C1223  O1396   1.221   .     D
C1224  O1397   1.221   .     D
C1224  H1374   1.085   .     S
C1224  C1281   1.491   .     S
C1225  H1375   1.085   .     S
C1225  C1292   1.491   .     S
C1225  O1398   1.221   .     D
C1226  O1399   1.221   .     D
C1227  C1314   1.493   .     S
C1227  H1377   1.085   .     S
C1227  O1400   1.221   .     D
C1228  O1402   1.221   .     D
C1228  H1378   1.085   .     S
C1229  O1403   1.221   .     D
C1229  H1379   1.085   .     S
C1230  C1237   1.408   .     A
C1230  C884    1.461   1_655 S
C1230  C901    1.408   1_655 S
C1231  H1381   1.085   .     S
C1231  O1404   1.221   .     D
C1232  O1405   1.221   .     D
C1232  H1382   1.085   .     S
C1233  O1406   1.221   .     D
C1233  H1383   1.085   .     S
C1234  O1407   1.221   .     D
C1234  H1384   1.085   .     S
C1235  H1385   1.085   .     S
C1235  O1408   1.221   .     D
C1236  C1248   1.408   .     A
C1236  C501    1.461   1_565 S
C1236  C532    1.408   1_565 S
C1238  C1262   1.454   .     S
C1238  C1259   1.405   .     A
C1239  C1314   1.405   .     A
C1239  C1267   1.454   .     S
C1240  C1268   1.462   .     S
C1241  C1265   1.461   .     S
C1241  C817    1.408   1_655 S
C1242  C1266   1.455   .     S
C1242  C784    1.405   1_655 S
C1243  O1454   1.379   .     S
C1243  C1249   1.390   .     A
C1243  C1322   1.418   .     A
C1244  C1323   1.420   .     A
C1244  C1247   1.390   .     A
C1244  O1455   1.379   .     S
C1245  C1324   1.420   .     A
C1245  O1456   1.379   .     S
C1245  C1251   1.390   .     A
C1246  O1457   1.379   .     S
C1246  C1250   1.390   .     A
C1247  O1458   1.379   .     S
C1249  O1459   1.379   .     S
C1250  O1460   1.379   .     S
C1251  O1462   1.379   .     S
C1252  O1463   1.379   .     S
C1252  C1257   1.390   1_556 S
C1253  O1464   1.379   .     S
C1253  C1256   1.390   1_554 S
C1254  O1465   1.379   .     S
C1254  C1260   1.390   1_556 S
C1255  O1466   1.379   .     S
C1255  C1258   1.390   1_554 S
C1256  O1467   1.379   .     S
C1256  C1253   1.390   1_556 S
C1257  O1468   1.379   .     S
C1257  C1252   1.390   1_554 S
C1258  O1469   1.379   .     S
C1258  C1255   1.390   1_556 S
C1260  O1470   1.379   .     S
C1260  C1254   1.390   1_554 S
C1261  O1494   1.275   .     S
C1262  O1461   1.273   .     A
C1263  O1472   1.274   .     A
C1264  O1409   1.276   .     S
C1265  O1030   1.275   1_655 A
C1265  O1034   1.275   1_655 A
C1266  O1031   1.273   1_655 A
C1266  O1035   1.273   1_655 A
C1267  O1412   1.274   .     S
C1267  O1416   1.274   .     S
C1268  O1413   1.276   .     A
C1268  O1418   1.276   .     A
C1269  O1447   1.277   .     A
C1269  O1419   1.277   .     A
C1270  C1322   1.416   .     A
C1270  C839    1.405   1_655 S
C1270  C843    1.493   1_655 S
C1271  O1448   1.276   .     A
C1271  O1420   1.278   .     A
C1272  O1445   1.277   .     A
C1272  O1421   1.277   .     A
C1273  O1446   1.276   .     A
C1273  O1422   1.278   .     A
C1274  O1423   1.277   .     A
C1274  O1452   1.277   .     A
C1275  O1424   1.277   .     A
C1275  O1453   1.277   .     A
C1276  O1425   1.277   .     A
C1276  O1449   1.277   .     A
C1277  O1426   1.278   .     A
C1277  O1451   1.276   .     A
C1278  O1438   1.278   .     A
C1278  O1427   1.276   .     A
C1279  O1429   1.277   .     A
C1279  O1440   1.277   .     A
C1280  O1430   1.276   .     A
C1280  O1436   1.278   .     A
C1281  C1323   1.417   .     A
C1282  O1437   1.277   .     A
C1282  O1431   1.277   .     A
C1283  O1432   1.276   .     A
C1283  O1443   1.278   .     A
C1284  O1433   1.277   .     A
C1284  O1444   1.277   .     A
C1285  O1441   1.277   .     A
C1285  O1434   1.277   .     A
C1286  O1442   1.277   .     A
C1286  O1435   1.277   .     A
C1287  C1304   1.410   .     A
C1288  C1302   1.410   .     A
C1289  C1301   1.410   .     A
C1290  C1300   1.409   .     A
C1291  C1299   1.410   .     A
C1292  C1324   1.417   .     A
C1293  C1298   1.410   .     A
C1294  C1297   1.410   .     A
C1295  C1296   1.410   .     A
C1303  C466    1.493   1_565 S
C1303  C478    1.405   1_565 S
C1305  C1321   1.410   .     A
C1306  C1320   1.410   .     A
C1307  C1319   1.409   .     A
C1308  C1318   1.410   .     A
C1309  C1317   1.410   .     A
C1310  C1316   1.410   .     A
C1311  C1315   1.410   .     A
C1312  C1313   1.410   .     A
C1322  C794    1.420   1_655 A
H1325  O1454   0.991   .     S
H1326  O1464   0.991   .     S
H1327  O1465   0.991   .     S
H1328  O1466   0.991   .     S
H1329  O1467   0.991   .     S
H1330  O1468   0.991   .     S
H1331  O1469   0.991   .     S
H1332  O1470   0.991   .     S
H1336  O1075   0.991   1_655 S
H1347  O1456   0.991   .     S
H1358  O1457   0.991   .     S
H1369  O1458   0.991   .     S
H1373  C843    1.085   1_655 S
H1376  C466    1.085   1_565 S
H1386  O1460   0.991   .     S
H1387  O1462   0.991   .     S
H1388  O1463   0.991   .     S
O1389  Zn1516  1.945   .     S
O1389  Zn1508  1.944   .     S
O1389  Zn1505  1.945   .     S
O1390  Zn1507  1.950   .     S
O1390  C502    1.273   1_565 S
O1401  Zn1510  1.950   .     S
O1401  C883    1.274   1_655 S
O1409  Zn1509  1.950   .     S
O1410  Zn1519  1.950   .     S
O1411  Zn1518  1.950   .     S
O1412  Zn1513  1.950   .     S
O1413  Zn1505  1.950   .     S
O1414  Zn1515  1.950   .     S
O1415  Zn1514  1.950   .     S
O1416  Zn1517  1.950   .     S
O1417  Zn1511  1.944   .     S
O1417  Zn1513  1.945   .     S
O1417  Zn1517  1.945   .     S
O1418  Zn1516  1.950   .     S
O1419  Zn1508  1.933   .     S
O1420  Zn1507  1.933   .     S
O1421  Zn1510  1.929   .     S
O1422  Zn1509  1.929   .     S
O1423  Zn1512  1.933   .     S
O1424  Zn1511  1.933   .     S
O1425  Zn1506  1.929   .     S
O1426  Zn1520  1.929   .     S
O1427  Zn1507  1.929   .     S
O1428  Zn1506  1.945   .     S
O1428  Zn1518  1.944   .     S
O1428  Zn1514  1.944   .     S
O1429  Zn1508  1.929   .     S
O1430  Zn1520  1.933   .     S
O1431  Zn1506  1.933   .     S
O1432  Zn1511  1.929   .     S
O1433  Zn1512  1.929   .     S
O1434  Zn1509  1.933   .     S
O1435  Zn1510  1.933   .     S
O1436  Zn1135  1.933   1_655 S
O1437  Zn1514  1.933   .     S
O1438  Zn757   1.929   1_565 S
O1439  Zn1509  1.945   .     S
O1439  Zn1519  1.944   .     S
O1439  Zn1515  1.944   .     S
O1440  Zn1516  1.929   .     S
O1441  Zn1519  1.933   .     S
O1442  Zn1138  1.933   1_655 S
O1443  Zn1513  1.929   .     S
O1444  Zn745   1.929   1_565 S
O1445  Zn1134  1.929   1_655 S
O1446  Zn1515  1.929   .     S
O1447  Zn1505  1.933   .     S
O1448  Zn753   1.933   1_565 S
O1449  Zn1518  1.929   .     S
O1450  C501    1.275   1_565 A
O1450  Zn1512  1.950   .     S
O1451  Zn1139  1.929   1_655 S
O1452  Zn756   1.933   1_565 S
O1453  Zn1517  1.933   .     S
O1459  H1000   0.991   1_655 S
O1461  Zn1511  1.950   .     S
O1472  Zn1506  1.950   .     S
O1483  Zn1520  1.950   .     S
O1483  C884    1.276   1_655 A
O1494  Zn1508  1.950   .     S
Zn1507 O657    1.944   1_565 S
Zn1510 O1048   1.945   1_655 S
Zn1512 O629    1.944   1_565 S
Zn1520 O1059   1.945   1_655 S
