data_str_m1_o10_o18_pcu_sym.123
_audit_creation_date              2020-01-03
_audit_creation_method            'Materials Studio'
_symmetry_space_group_name_H-M    'P1'
_symmetry_Int_Tables_number       1
_symmetry_cell_setting            triclinic
loop_
_symmetry_equiv_pos_as_xyz
  x,y,z
_cell_length_a                    32.5668
_cell_length_b                    32.5603
_cell_length_c                    35.6217
_cell_angle_alpha                 98.2744
_cell_angle_beta                  72.9663
_cell_angle_gamma                 98.7059
loop_
_atom_site_label
_atom_site_type_symbol
_atom_site_fract_x
_atom_site_fract_y
_atom_site_fract_z
_atom_site_U_iso_or_equiv
_atom_site_adp_type
_atom_site_occupancy
Br1    Br    0.02891   0.19900   0.05490   0.00000  Uiso   1.00
Br2    Br    0.27827   0.10889   0.10203   0.00000  Uiso   1.00
Br3    Br    0.04960   0.22290   0.39897   0.00000  Uiso   1.00
C4     C     0.05248   0.15994   0.25869   0.00000  Uiso   1.00
C5     C     0.19533   0.12387   0.45861   0.00000  Uiso   1.00
C6     C     0.22252   0.11296   0.47833   0.00000  Uiso   1.00
C7     C     0.28108   0.17357   0.24117   0.00000  Uiso   1.00
C8     C     0.21421   0.12169   0.01907   0.00000  Uiso   1.00
C9     C     0.17600   0.13917   0.04145   0.00000  Uiso   1.00
C10    C     0.24367   0.11246   0.03767   0.00000  Uiso   1.00
C11    C     0.23596   0.12053   0.07845   0.00000  Uiso   1.00
C12    C     0.16814   0.14572   0.08288   0.00000  Uiso   1.00
C13    C     0.32708   0.17627   0.23754   0.00000  Uiso   1.00
C14    C     0.00710   0.15752   0.26208   0.00000  Uiso   1.00
C15    C     0.08820   0.20223   0.42176   0.00000  Uiso   1.00
C16    C     0.18176   0.32237   0.23811   0.00000  Uiso   1.00
C17    C     0.15157   0.01201   0.26156   0.00000  Uiso   1.00
C18    C     0.15562   0.05615   0.25909   0.00000  Uiso   1.00
C19    C     0.17698   0.27770   0.24133   0.00000  Uiso   1.00
C20    C     0.18830   0.14527   0.14392   0.00000  Uiso   1.00
C21    C     0.14440   0.18696   0.35642   0.00000  Uiso   1.00
C22    C     0.12882   0.18937   0.40003   0.00000  Uiso   1.00
C23    C     0.19767   0.13656   0.10112   0.00000  Uiso   1.00
C24    C     0.07360   0.19943   0.46229   0.00000  Uiso   1.00
C25    C     0.21536   0.00301   0.17472   0.00000  Uiso   1.00
C26    C     0.15354   0.17402   0.41991   0.00000  Uiso   1.00
C27    C     0.26011   0.01066   0.14626   0.00000  Uiso   1.00
C28    C     0.17392   0.07238   0.41584   0.00000  Uiso   1.00
C29    C     0.17960   0.05722   0.37240   0.00000  Uiso   1.00
C30    C     0.13738   0.16723   0.46007   0.00000  Uiso   1.00
C31    C     0.09763   0.18232   0.48186   0.00000  Uiso   1.00
C32    C     0.16070   0.14769   0.47947   0.00000  Uiso   1.00
C33    C     0.14819   0.15100   0.02151   0.00000  Uiso   1.00
C34    C     0.10830   0.16592   0.04218   0.00000  Uiso   1.00
C35    C     0.08287   0.18036   0.02281   0.00000  Uiso   1.00
H36    H     0.27303   0.09944   0.02043   0.00000  Uiso   1.00
H37    H     0.19514   0.02640   0.17186   0.00000  Uiso   1.00
H38    H     0.20088   0.30447   0.16584   0.00000  Uiso   1.00
H39    H     0.28021   0.31973   0.14730   0.00000  Uiso   1.00
H40    H     0.25747   0.00929   0.11571   0.00000  Uiso   1.00
H41    H     0.27605   0.04187   0.15454   0.00000  Uiso   1.00
H42    H     0.13954   0.07817   0.42931   0.00000  Uiso   1.00
H43    H     0.18121   0.04729   0.43032   0.00000  Uiso   1.00
H44    H     0.21354   0.05095   0.35792   0.00000  Uiso   1.00
H45    H     0.15775   0.02800   0.36940   0.00000  Uiso   1.00
H46    H     0.17154   0.08133   0.35749   0.00000  Uiso   1.00
H47    H     0.01683   0.19355   0.21484   0.00000  Uiso   1.00
H48    H     0.31798   0.14018   0.28505   0.00000  Uiso   1.00
H49    H     0.12232   0.33135   0.28136   0.00000  Uiso   1.00
H50    H     0.14030   0.15958   0.10191   0.00000  Uiso   1.00
H51    H     0.25005   0.09683   0.46148   0.00000  Uiso   1.00
H52    H     0.04280   0.21033   0.47810   0.00000  Uiso   1.00
H53    H     0.18608   0.16855   0.40349   0.00000  Uiso   1.00
H54    H     0.09515   0.16586   0.07363   0.00000  Uiso   1.00
O55    O     0.16667   0.16667   0.25000   0.00000  Uiso   1.00
O56    O     0.15693   0.12393   0.16625   0.00000  Uiso   1.00
O57    O     0.12687   0.20646   0.33749   0.00000  Uiso   1.00
O58    O     0.21088   0.17493   0.15877   0.00000  Uiso   1.00
O59    O     0.17198   0.16135   0.33749   0.00000  Uiso   1.00
O60    O     0.21925   0.00763   0.21361   0.00000  Uiso   1.00
O61    O     0.20241   0.10915   0.41913   0.00000  Uiso   1.00
O62    O     0.17849   0.08101   0.27821   0.00000  Uiso   1.00
O63    O     0.14581   0.26136   0.26767   0.00000  Uiso   1.00
O64    O     0.07452   0.13251   0.23607   0.00000  Uiso   1.00
O65    O     0.26785   0.19179   0.21806   0.00000  Uiso   1.00
O66    O     0.06990   0.18960   0.27820   0.00000  Uiso   1.00
O67    O     0.25440   0.15277   0.26768   0.00000  Uiso   1.00
O68    O     0.13800   0.06903   0.23607   0.00000  Uiso   1.00
O69    O     0.20437   0.25527   0.21806   0.00000  Uiso   1.00
Zn70   Zn    0.19244   0.14090   0.28278   0.00000  Uiso   1.00
Zn71   Zn    0.13459   0.12378   0.22258   0.00000  Uiso   1.00
Zn72   Zn    0.21166   0.19664   0.21188   0.00000  Uiso   1.00
Zn73   Zn    0.12798   0.20535   0.28277   0.00000  Uiso   1.00
Br74   Br    0.36224   0.19900   0.05490   0.00000  Uiso   1.00
Br75   Br    0.61160   0.10889   0.10203   0.00000  Uiso   1.00
Br76   Br    0.38293   0.22290   0.39897   0.00000  Uiso   1.00
C77    C     0.38581   0.15994   0.25869   0.00000  Uiso   1.00
C78    C     0.52867   0.12387   0.45861   0.00000  Uiso   1.00
C79    C     0.55586   0.11296   0.47833   0.00000  Uiso   1.00
C80    C     0.61441   0.17357   0.24117   0.00000  Uiso   1.00
C81    C     0.54754   0.12169   0.01907   0.00000  Uiso   1.00
C82    C     0.50934   0.13917   0.04145   0.00000  Uiso   1.00
C83    C     0.57700   0.11246   0.03767   0.00000  Uiso   1.00
C84    C     0.56929   0.12053   0.07845   0.00000  Uiso   1.00
C85    C     0.50147   0.14572   0.08288   0.00000  Uiso   1.00
C86    C     0.66041   0.17627   0.23754   0.00000  Uiso   1.00
C87    C     0.34043   0.15752   0.26208   0.00000  Uiso   1.00
C88    C     0.42153   0.20223   0.42176   0.00000  Uiso   1.00
C89    C     0.51509   0.32237   0.23811   0.00000  Uiso   1.00
C90    C     0.48491   0.01201   0.26156   0.00000  Uiso   1.00
C91    C     0.48895   0.05615   0.25909   0.00000  Uiso   1.00
C92    C     0.51031   0.27770   0.24133   0.00000  Uiso   1.00
C93    C     0.52164   0.14527   0.14392   0.00000  Uiso   1.00
C94    C     0.47773   0.18696   0.35642   0.00000  Uiso   1.00
C95    C     0.46215   0.18937   0.40003   0.00000  Uiso   1.00
C96    C     0.53101   0.13656   0.10112   0.00000  Uiso   1.00
C97    C     0.40694   0.19943   0.46229   0.00000  Uiso   1.00
C98    C     0.54870   0.00301   0.17472   0.00000  Uiso   1.00
C99    C     0.48688   0.17402   0.41991   0.00000  Uiso   1.00
C100   C     0.59344   0.01066   0.14626   0.00000  Uiso   1.00
C101   C     0.50725   0.07238   0.41584   0.00000  Uiso   1.00
C102   C     0.51293   0.05722   0.37240   0.00000  Uiso   1.00
C103   C     0.47071   0.16723   0.46007   0.00000  Uiso   1.00
C104   C     0.43096   0.18232   0.48186   0.00000  Uiso   1.00
C105   C     0.49403   0.14769   0.47947   0.00000  Uiso   1.00
C106   C     0.48152   0.15100   0.02151   0.00000  Uiso   1.00
C107   C     0.44163   0.16592   0.04218   0.00000  Uiso   1.00
C108   C     0.41620   0.18036   0.02281   0.00000  Uiso   1.00
H109   H     0.60636   0.09944   0.02043   0.00000  Uiso   1.00
H110   H     0.52847   0.02640   0.17186   0.00000  Uiso   1.00
H111   H     0.53422   0.30447   0.16584   0.00000  Uiso   1.00
H112   H     0.61355   0.31973   0.14730   0.00000  Uiso   1.00
H113   H     0.59080   0.00929   0.11571   0.00000  Uiso   1.00
H114   H     0.60939   0.04187   0.15454   0.00000  Uiso   1.00
H115   H     0.47287   0.07817   0.42931   0.00000  Uiso   1.00
H116   H     0.51455   0.04729   0.43032   0.00000  Uiso   1.00
H117   H     0.54687   0.05095   0.35792   0.00000  Uiso   1.00
H118   H     0.49108   0.02800   0.36940   0.00000  Uiso   1.00
H119   H     0.50487   0.08133   0.35749   0.00000  Uiso   1.00
H120   H     0.35017   0.19355   0.21484   0.00000  Uiso   1.00
H121   H     0.65132   0.14018   0.28505   0.00000  Uiso   1.00
H122   H     0.45565   0.33135   0.28136   0.00000  Uiso   1.00
H123   H     0.47364   0.15958   0.10191   0.00000  Uiso   1.00
H124   H     0.58338   0.09683   0.46148   0.00000  Uiso   1.00
H125   H     0.37614   0.21033   0.47810   0.00000  Uiso   1.00
H126   H     0.51941   0.16855   0.40349   0.00000  Uiso   1.00
H127   H     0.42849   0.16586   0.07363   0.00000  Uiso   1.00
O128   O     0.50000   0.16667   0.25000   0.00000  Uiso   1.00
O129   O     0.49027   0.12393   0.16625   0.00000  Uiso   1.00
O130   O     0.46020   0.20646   0.33749   0.00000  Uiso   1.00
O131   O     0.54421   0.17493   0.15877   0.00000  Uiso   1.00
O132   O     0.50532   0.16135   0.33749   0.00000  Uiso   1.00
O133   O     0.55258   0.00763   0.21361   0.00000  Uiso   1.00
O134   O     0.53574   0.10915   0.41913   0.00000  Uiso   1.00
O135   O     0.51182   0.08101   0.27821   0.00000  Uiso   1.00
O136   O     0.47914   0.26136   0.26767   0.00000  Uiso   1.00
O137   O     0.40785   0.13251   0.23607   0.00000  Uiso   1.00
O138   O     0.60119   0.19179   0.21806   0.00000  Uiso   1.00
O139   O     0.40323   0.18960   0.27820   0.00000  Uiso   1.00
O140   O     0.58773   0.15277   0.26768   0.00000  Uiso   1.00
O141   O     0.47133   0.06903   0.23607   0.00000  Uiso   1.00
O142   O     0.53771   0.25527   0.21806   0.00000  Uiso   1.00
Zn143  Zn    0.52577   0.14090   0.28278   0.00000  Uiso   1.00
Zn144  Zn    0.46792   0.12378   0.22258   0.00000  Uiso   1.00
Zn145  Zn    0.54500   0.19664   0.21188   0.00000  Uiso   1.00
Zn146  Zn    0.46131   0.20535   0.28277   0.00000  Uiso   1.00
Br147  Br    0.69557   0.19900   0.05490   0.00000  Uiso   1.00
Br148  Br    0.94494   0.10889   0.10203   0.00000  Uiso   1.00
Br149  Br    0.71627   0.22290   0.39897   0.00000  Uiso   1.00
C150   C     0.71915   0.15994   0.25869   0.00000  Uiso   1.00
C151   C     0.86200   0.12387   0.45861   0.00000  Uiso   1.00
C152   C     0.88919   0.11296   0.47833   0.00000  Uiso   1.00
C153   C     0.94775   0.17357   0.24117   0.00000  Uiso   1.00
C154   C     0.88088   0.12169   0.01907   0.00000  Uiso   1.00
C155   C     0.84267   0.13917   0.04145   0.00000  Uiso   1.00
C156   C     0.91033   0.11246   0.03767   0.00000  Uiso   1.00
C157   C     0.90263   0.12053   0.07845   0.00000  Uiso   1.00
C158   C     0.83480   0.14572   0.08288   0.00000  Uiso   1.00
C159   C     0.99374   0.17627   0.23754   0.00000  Uiso   1.00
C160   C     0.67376   0.15752   0.26208   0.00000  Uiso   1.00
C161   C     0.75487   0.20223   0.42176   0.00000  Uiso   1.00
C162   C     0.84843   0.32237   0.23811   0.00000  Uiso   1.00
C163   C     0.81824   0.01201   0.26156   0.00000  Uiso   1.00
C164   C     0.82229   0.05615   0.25909   0.00000  Uiso   1.00
C165   C     0.84364   0.27770   0.24133   0.00000  Uiso   1.00
C166   C     0.85497   0.14527   0.14392   0.00000  Uiso   1.00
C167   C     0.81106   0.18696   0.35642   0.00000  Uiso   1.00
C168   C     0.79548   0.18937   0.40003   0.00000  Uiso   1.00
C169   C     0.86434   0.13656   0.10112   0.00000  Uiso   1.00
C170   C     0.74027   0.19943   0.46229   0.00000  Uiso   1.00
C171   C     0.88203   0.00301   0.17472   0.00000  Uiso   1.00
C172   C     0.82021   0.17402   0.41991   0.00000  Uiso   1.00
C173   C     0.92678   0.01066   0.14626   0.00000  Uiso   1.00
C174   C     0.84059   0.07238   0.41584   0.00000  Uiso   1.00
C175   C     0.84626   0.05722   0.37240   0.00000  Uiso   1.00
C176   C     0.80405   0.16723   0.46007   0.00000  Uiso   1.00
C177   C     0.76430   0.18232   0.48186   0.00000  Uiso   1.00
C178   C     0.82737   0.14769   0.47947   0.00000  Uiso   1.00
C179   C     0.81486   0.15100   0.02151   0.00000  Uiso   1.00
C180   C     0.77496   0.16592   0.04218   0.00000  Uiso   1.00
C181   C     0.74954   0.18036   0.02281   0.00000  Uiso   1.00
H182   H     0.93970   0.09944   0.02043   0.00000  Uiso   1.00
H183   H     0.86181   0.02640   0.17186   0.00000  Uiso   1.00
H184   H     0.86755   0.30447   0.16584   0.00000  Uiso   1.00
H185   H     0.94688   0.31973   0.14730   0.00000  Uiso   1.00
H186   H     0.92414   0.00929   0.11571   0.00000  Uiso   1.00
H187   H     0.94272   0.04187   0.15454   0.00000  Uiso   1.00
H188   H     0.80620   0.07817   0.42931   0.00000  Uiso   1.00
H189   H     0.84788   0.04729   0.43032   0.00000  Uiso   1.00
H190   H     0.88021   0.05095   0.35792   0.00000  Uiso   1.00
H191   H     0.82441   0.02800   0.36940   0.00000  Uiso   1.00
H192   H     0.83821   0.08133   0.35749   0.00000  Uiso   1.00
H193   H     0.68350   0.19355   0.21484   0.00000  Uiso   1.00
H194   H     0.98465   0.14018   0.28505   0.00000  Uiso   1.00
H195   H     0.78899   0.33135   0.28136   0.00000  Uiso   1.00
H196   H     0.80697   0.15958   0.10191   0.00000  Uiso   1.00
H197   H     0.91672   0.09683   0.46148   0.00000  Uiso   1.00
H198   H     0.70947   0.21033   0.47810   0.00000  Uiso   1.00
H199   H     0.85274   0.16855   0.40349   0.00000  Uiso   1.00
H200   H     0.76182   0.16586   0.07363   0.00000  Uiso   1.00
O201   O     0.83333   0.16667   0.25000   0.00000  Uiso   1.00
O202   O     0.82360   0.12393   0.16625   0.00000  Uiso   1.00
O203   O     0.79354   0.20646   0.33749   0.00000  Uiso   1.00
O204   O     0.87755   0.17493   0.15877   0.00000  Uiso   1.00
O205   O     0.83865   0.16135   0.33749   0.00000  Uiso   1.00
O206   O     0.88592   0.00763   0.21361   0.00000  Uiso   1.00
O207   O     0.86907   0.10915   0.41913   0.00000  Uiso   1.00
O208   O     0.84515   0.08101   0.27821   0.00000  Uiso   1.00
O209   O     0.81247   0.26136   0.26767   0.00000  Uiso   1.00
O210   O     0.74119   0.13251   0.23607   0.00000  Uiso   1.00
O211   O     0.93452   0.19179   0.21806   0.00000  Uiso   1.00
O212   O     0.73656   0.18960   0.27820   0.00000  Uiso   1.00
O213   O     0.92106   0.15277   0.26768   0.00000  Uiso   1.00
O214   O     0.80467   0.06903   0.23607   0.00000  Uiso   1.00
O215   O     0.87104   0.25527   0.21806   0.00000  Uiso   1.00
Zn216  Zn    0.85910   0.14090   0.28278   0.00000  Uiso   1.00
Zn217  Zn    0.80125   0.12378   0.22258   0.00000  Uiso   1.00
Zn218  Zn    0.87833   0.19664   0.21188   0.00000  Uiso   1.00
Zn219  Zn    0.79465   0.20535   0.28277   0.00000  Uiso   1.00
Br220  Br    0.02891   0.53233   0.05490   0.00000  Uiso   1.00
Br221  Br    0.27827   0.44222   0.10203   0.00000  Uiso   1.00
Br222  Br    0.04960   0.55623   0.39897   0.00000  Uiso   1.00
C223   C     0.05248   0.49327   0.25869   0.00000  Uiso   1.00
C224   C     0.19533   0.45721   0.45861   0.00000  Uiso   1.00
C225   C     0.22252   0.44630   0.47833   0.00000  Uiso   1.00
C226   C     0.28108   0.50691   0.24117   0.00000  Uiso   1.00
C227   C     0.21421   0.45503   0.01907   0.00000  Uiso   1.00
C228   C     0.17600   0.47250   0.04145   0.00000  Uiso   1.00
C229   C     0.24367   0.44580   0.03767   0.00000  Uiso   1.00
C230   C     0.23596   0.45386   0.07845   0.00000  Uiso   1.00
C231   C     0.16814   0.47906   0.08288   0.00000  Uiso   1.00
C232   C     0.32708   0.50960   0.23754   0.00000  Uiso   1.00
C233   C     0.00710   0.49085   0.26208   0.00000  Uiso   1.00
C234   C     0.08820   0.53556   0.42176   0.00000  Uiso   1.00
C235   C     0.18176   0.65571   0.23811   0.00000  Uiso   1.00
C236   C     0.15157   0.34534   0.26156   0.00000  Uiso   1.00
C237   C     0.15562   0.38949   0.25909   0.00000  Uiso   1.00
C238   C     0.17698   0.61103   0.24133   0.00000  Uiso   1.00
C239   C     0.18830   0.47860   0.14392   0.00000  Uiso   1.00
C240   C     0.14440   0.52029   0.35642   0.00000  Uiso   1.00
C241   C     0.12882   0.52270   0.40003   0.00000  Uiso   1.00
C242   C     0.19767   0.46990   0.10112   0.00000  Uiso   1.00
C243   C     0.07360   0.53277   0.46229   0.00000  Uiso   1.00
C244   C     0.21536   0.33635   0.17472   0.00000  Uiso   1.00
C245   C     0.15354   0.50735   0.41991   0.00000  Uiso   1.00
C246   C     0.26011   0.34399   0.14626   0.00000  Uiso   1.00
C247   C     0.17392   0.40571   0.41584   0.00000  Uiso   1.00
C248   C     0.17960   0.39055   0.37240   0.00000  Uiso   1.00
C249   C     0.13738   0.50056   0.46007   0.00000  Uiso   1.00
C250   C     0.09763   0.51565   0.48186   0.00000  Uiso   1.00
C251   C     0.16070   0.48102   0.47947   0.00000  Uiso   1.00
C252   C     0.14819   0.48434   0.02151   0.00000  Uiso   1.00
C253   C     0.10830   0.49925   0.04218   0.00000  Uiso   1.00
C254   C     0.08287   0.51370   0.02281   0.00000  Uiso   1.00
H255   H     0.27303   0.43277   0.02043   0.00000  Uiso   1.00
H256   H     0.19514   0.35974   0.17186   0.00000  Uiso   1.00
H257   H     0.20088   0.63780   0.16584   0.00000  Uiso   1.00
H258   H     0.28021   0.65306   0.14730   0.00000  Uiso   1.00
H259   H     0.25747   0.34263   0.11571   0.00000  Uiso   1.00
H260   H     0.27605   0.37520   0.15454   0.00000  Uiso   1.00
H261   H     0.13954   0.41150   0.42931   0.00000  Uiso   1.00
H262   H     0.18121   0.38062   0.43032   0.00000  Uiso   1.00
H263   H     0.21354   0.38429   0.35792   0.00000  Uiso   1.00
H264   H     0.15775   0.36133   0.36940   0.00000  Uiso   1.00
H265   H     0.17154   0.41467   0.35749   0.00000  Uiso   1.00
H266   H     0.01683   0.52688   0.21484   0.00000  Uiso   1.00
H267   H     0.31798   0.47351   0.28505   0.00000  Uiso   1.00
H268   H     0.12232   0.66468   0.28136   0.00000  Uiso   1.00
H269   H     0.14030   0.49291   0.10191   0.00000  Uiso   1.00
H270   H     0.25005   0.43017   0.46148   0.00000  Uiso   1.00
H271   H     0.04280   0.54366   0.47810   0.00000  Uiso   1.00
H272   H     0.18608   0.50188   0.40349   0.00000  Uiso   1.00
H273   H     0.09515   0.49919   0.07363   0.00000  Uiso   1.00
O274   O     0.16667   0.50000   0.25000   0.00000  Uiso   1.00
O275   O     0.15693   0.45726   0.16625   0.00000  Uiso   1.00
O276   O     0.12687   0.53979   0.33749   0.00000  Uiso   1.00
O277   O     0.21088   0.50826   0.15877   0.00000  Uiso   1.00
O278   O     0.17198   0.49468   0.33749   0.00000  Uiso   1.00
O279   O     0.21925   0.34096   0.21361   0.00000  Uiso   1.00
O280   O     0.20241   0.44248   0.41913   0.00000  Uiso   1.00
O281   O     0.17849   0.41434   0.27821   0.00000  Uiso   1.00
O282   O     0.14581   0.59469   0.26767   0.00000  Uiso   1.00
O283   O     0.07452   0.46584   0.23607   0.00000  Uiso   1.00
O284   O     0.26785   0.52512   0.21806   0.00000  Uiso   1.00
O285   O     0.06990   0.52293   0.27820   0.00000  Uiso   1.00
O286   O     0.25440   0.48610   0.26768   0.00000  Uiso   1.00
O287   O     0.13800   0.40236   0.23607   0.00000  Uiso   1.00
O288   O     0.20437   0.58860   0.21806   0.00000  Uiso   1.00
Zn289  Zn    0.19244   0.47423   0.28278   0.00000  Uiso   1.00
Zn290  Zn    0.13459   0.45711   0.22258   0.00000  Uiso   1.00
Zn291  Zn    0.21166   0.52997   0.21188   0.00000  Uiso   1.00
Zn292  Zn    0.12798   0.53868   0.28277   0.00000  Uiso   1.00
Br293  Br    0.36224   0.53233   0.05490   0.00000  Uiso   1.00
Br294  Br    0.61160   0.44222   0.10203   0.00000  Uiso   1.00
Br295  Br    0.38293   0.55623   0.39897   0.00000  Uiso   1.00
C296   C     0.38581   0.49327   0.25869   0.00000  Uiso   1.00
C297   C     0.52867   0.45721   0.45861   0.00000  Uiso   1.00
C298   C     0.55586   0.44630   0.47833   0.00000  Uiso   1.00
C299   C     0.61441   0.50691   0.24117   0.00000  Uiso   1.00
C300   C     0.54754   0.45503   0.01907   0.00000  Uiso   1.00
C301   C     0.50934   0.47250   0.04145   0.00000  Uiso   1.00
C302   C     0.57700   0.44580   0.03767   0.00000  Uiso   1.00
C303   C     0.56929   0.45386   0.07845   0.00000  Uiso   1.00
C304   C     0.50147   0.47906   0.08288   0.00000  Uiso   1.00
C305   C     0.66041   0.50960   0.23754   0.00000  Uiso   1.00
C306   C     0.34043   0.49085   0.26208   0.00000  Uiso   1.00
C307   C     0.42153   0.53556   0.42176   0.00000  Uiso   1.00
C308   C     0.51509   0.65571   0.23811   0.00000  Uiso   1.00
C309   C     0.48491   0.34534   0.26156   0.00000  Uiso   1.00
C310   C     0.48895   0.38949   0.25909   0.00000  Uiso   1.00
C311   C     0.51031   0.61103   0.24133   0.00000  Uiso   1.00
C312   C     0.52164   0.47860   0.14392   0.00000  Uiso   1.00
C313   C     0.47773   0.52029   0.35642   0.00000  Uiso   1.00
C314   C     0.46215   0.52270   0.40003   0.00000  Uiso   1.00
C315   C     0.53101   0.46990   0.10112   0.00000  Uiso   1.00
C316   C     0.40694   0.53277   0.46229   0.00000  Uiso   1.00
C317   C     0.54870   0.33635   0.17472   0.00000  Uiso   1.00
C318   C     0.48688   0.50735   0.41991   0.00000  Uiso   1.00
C319   C     0.59344   0.34399   0.14626   0.00000  Uiso   1.00
C320   C     0.50725   0.40571   0.41584   0.00000  Uiso   1.00
C321   C     0.51293   0.39055   0.37240   0.00000  Uiso   1.00
C322   C     0.47071   0.50056   0.46007   0.00000  Uiso   1.00
C323   C     0.43096   0.51565   0.48186   0.00000  Uiso   1.00
C324   C     0.49403   0.48102   0.47947   0.00000  Uiso   1.00
C325   C     0.48152   0.48434   0.02151   0.00000  Uiso   1.00
C326   C     0.44163   0.49925   0.04218   0.00000  Uiso   1.00
C327   C     0.41620   0.51370   0.02281   0.00000  Uiso   1.00
H328   H     0.60636   0.43277   0.02043   0.00000  Uiso   1.00
H329   H     0.52847   0.35974   0.17186   0.00000  Uiso   1.00
H330   H     0.53422   0.63780   0.16584   0.00000  Uiso   1.00
H331   H     0.61355   0.65306   0.14730   0.00000  Uiso   1.00
H332   H     0.59080   0.34263   0.11571   0.00000  Uiso   1.00
H333   H     0.60939   0.37520   0.15454   0.00000  Uiso   1.00
H334   H     0.47287   0.41150   0.42931   0.00000  Uiso   1.00
H335   H     0.51455   0.38062   0.43032   0.00000  Uiso   1.00
H336   H     0.54687   0.38429   0.35792   0.00000  Uiso   1.00
H337   H     0.49108   0.36133   0.36940   0.00000  Uiso   1.00
H338   H     0.50487   0.41467   0.35749   0.00000  Uiso   1.00
H339   H     0.35017   0.52688   0.21484   0.00000  Uiso   1.00
H340   H     0.65132   0.47351   0.28505   0.00000  Uiso   1.00
H341   H     0.45565   0.66468   0.28136   0.00000  Uiso   1.00
H342   H     0.47364   0.49291   0.10191   0.00000  Uiso   1.00
H343   H     0.58338   0.43017   0.46148   0.00000  Uiso   1.00
H344   H     0.37614   0.54366   0.47810   0.00000  Uiso   1.00
H345   H     0.51941   0.50188   0.40349   0.00000  Uiso   1.00
H346   H     0.42849   0.49919   0.07363   0.00000  Uiso   1.00
O347   O     0.50000   0.50000   0.25000   0.00000  Uiso   1.00
O348   O     0.49027   0.45726   0.16625   0.00000  Uiso   1.00
O349   O     0.46020   0.53979   0.33749   0.00000  Uiso   1.00
O350   O     0.54421   0.50826   0.15877   0.00000  Uiso   1.00
O351   O     0.50532   0.49468   0.33749   0.00000  Uiso   1.00
O352   O     0.55258   0.34096   0.21361   0.00000  Uiso   1.00
O353   O     0.53574   0.44248   0.41913   0.00000  Uiso   1.00
O354   O     0.51182   0.41434   0.27821   0.00000  Uiso   1.00
O355   O     0.47914   0.59469   0.26767   0.00000  Uiso   1.00
O356   O     0.40785   0.46584   0.23607   0.00000  Uiso   1.00
O357   O     0.60119   0.52512   0.21806   0.00000  Uiso   1.00
O358   O     0.40323   0.52293   0.27820   0.00000  Uiso   1.00
O359   O     0.58773   0.48610   0.26768   0.00000  Uiso   1.00
O360   O     0.47133   0.40236   0.23607   0.00000  Uiso   1.00
O361   O     0.53771   0.58860   0.21806   0.00000  Uiso   1.00
Zn362  Zn    0.52577   0.47423   0.28278   0.00000  Uiso   1.00
Zn363  Zn    0.46792   0.45711   0.22258   0.00000  Uiso   1.00
Zn364  Zn    0.54500   0.52997   0.21188   0.00000  Uiso   1.00
Zn365  Zn    0.46131   0.53868   0.28277   0.00000  Uiso   1.00
Br366  Br    0.69557   0.53233   0.05490   0.00000  Uiso   1.00
Br367  Br    0.94494   0.44222   0.10203   0.00000  Uiso   1.00
Br368  Br    0.71627   0.55623   0.39897   0.00000  Uiso   1.00
C369   C     0.71915   0.49327   0.25869   0.00000  Uiso   1.00
C370   C     0.86200   0.45721   0.45861   0.00000  Uiso   1.00
C371   C     0.88919   0.44630   0.47833   0.00000  Uiso   1.00
C372   C     0.94775   0.50691   0.24117   0.00000  Uiso   1.00
C373   C     0.88088   0.45503   0.01907   0.00000  Uiso   1.00
C374   C     0.84267   0.47250   0.04145   0.00000  Uiso   1.00
C375   C     0.91033   0.44580   0.03767   0.00000  Uiso   1.00
C376   C     0.90263   0.45386   0.07845   0.00000  Uiso   1.00
C377   C     0.83480   0.47906   0.08288   0.00000  Uiso   1.00
C378   C     0.99374   0.50960   0.23754   0.00000  Uiso   1.00
C379   C     0.67376   0.49085   0.26208   0.00000  Uiso   1.00
C380   C     0.75487   0.53556   0.42176   0.00000  Uiso   1.00
C381   C     0.84843   0.65571   0.23811   0.00000  Uiso   1.00
C382   C     0.81824   0.34534   0.26156   0.00000  Uiso   1.00
C383   C     0.82229   0.38949   0.25909   0.00000  Uiso   1.00
C384   C     0.84364   0.61103   0.24133   0.00000  Uiso   1.00
C385   C     0.85497   0.47860   0.14392   0.00000  Uiso   1.00
C386   C     0.81106   0.52029   0.35642   0.00000  Uiso   1.00
C387   C     0.79548   0.52270   0.40003   0.00000  Uiso   1.00
C388   C     0.86434   0.46990   0.10112   0.00000  Uiso   1.00
C389   C     0.74027   0.53277   0.46229   0.00000  Uiso   1.00
C390   C     0.88203   0.33635   0.17472   0.00000  Uiso   1.00
C391   C     0.82021   0.50735   0.41991   0.00000  Uiso   1.00
C392   C     0.92678   0.34399   0.14626   0.00000  Uiso   1.00
C393   C     0.84059   0.40571   0.41584   0.00000  Uiso   1.00
C394   C     0.84626   0.39055   0.37240   0.00000  Uiso   1.00
C395   C     0.80405   0.50056   0.46007   0.00000  Uiso   1.00
C396   C     0.76430   0.51565   0.48186   0.00000  Uiso   1.00
C397   C     0.82737   0.48102   0.47947   0.00000  Uiso   1.00
C398   C     0.81486   0.48434   0.02151   0.00000  Uiso   1.00
C399   C     0.77496   0.49925   0.04218   0.00000  Uiso   1.00
C400   C     0.74954   0.51370   0.02281   0.00000  Uiso   1.00
H401   H     0.93970   0.43277   0.02043   0.00000  Uiso   1.00
H402   H     0.86181   0.35974   0.17186   0.00000  Uiso   1.00
H403   H     0.86755   0.63780   0.16584   0.00000  Uiso   1.00
H404   H     0.94688   0.65306   0.14730   0.00000  Uiso   1.00
H405   H     0.92414   0.34263   0.11571   0.00000  Uiso   1.00
H406   H     0.94272   0.37520   0.15454   0.00000  Uiso   1.00
H407   H     0.80620   0.41150   0.42931   0.00000  Uiso   1.00
H408   H     0.84788   0.38062   0.43032   0.00000  Uiso   1.00
H409   H     0.88021   0.38429   0.35792   0.00000  Uiso   1.00
H410   H     0.82441   0.36133   0.36940   0.00000  Uiso   1.00
H411   H     0.83821   0.41467   0.35749   0.00000  Uiso   1.00
H412   H     0.68350   0.52688   0.21484   0.00000  Uiso   1.00
H413   H     0.98465   0.47351   0.28505   0.00000  Uiso   1.00
H414   H     0.78899   0.66468   0.28136   0.00000  Uiso   1.00
H415   H     0.80697   0.49291   0.10191   0.00000  Uiso   1.00
H416   H     0.91672   0.43017   0.46148   0.00000  Uiso   1.00
H417   H     0.70947   0.54366   0.47810   0.00000  Uiso   1.00
H418   H     0.85274   0.50188   0.40349   0.00000  Uiso   1.00
H419   H     0.76182   0.49919   0.07363   0.00000  Uiso   1.00
O420   O     0.83333   0.50000   0.25000   0.00000  Uiso   1.00
O421   O     0.82360   0.45726   0.16625   0.00000  Uiso   1.00
O422   O     0.79354   0.53979   0.33749   0.00000  Uiso   1.00
O423   O     0.87755   0.50826   0.15877   0.00000  Uiso   1.00
O424   O     0.83865   0.49468   0.33749   0.00000  Uiso   1.00
O425   O     0.88592   0.34096   0.21361   0.00000  Uiso   1.00
O426   O     0.86907   0.44248   0.41913   0.00000  Uiso   1.00
O427   O     0.84515   0.41434   0.27821   0.00000  Uiso   1.00
O428   O     0.81247   0.59469   0.26767   0.00000  Uiso   1.00
O429   O     0.74119   0.46584   0.23607   0.00000  Uiso   1.00
O430   O     0.93452   0.52512   0.21806   0.00000  Uiso   1.00
O431   O     0.73656   0.52293   0.27820   0.00000  Uiso   1.00
O432   O     0.92106   0.48610   0.26768   0.00000  Uiso   1.00
O433   O     0.80467   0.40236   0.23607   0.00000  Uiso   1.00
O434   O     0.87104   0.58860   0.21806   0.00000  Uiso   1.00
Zn435  Zn    0.85910   0.47423   0.28278   0.00000  Uiso   1.00
Zn436  Zn    0.80125   0.45711   0.22258   0.00000  Uiso   1.00
Zn437  Zn    0.87833   0.52997   0.21188   0.00000  Uiso   1.00
Zn438  Zn    0.79465   0.53868   0.28277   0.00000  Uiso   1.00
Br439  Br    0.02891   0.86566   0.05490   0.00000  Uiso   1.00
Br440  Br    0.27827   0.77556   0.10203   0.00000  Uiso   1.00
Br441  Br    0.04960   0.88957   0.39897   0.00000  Uiso   1.00
C442   C     0.05248   0.82660   0.25869   0.00000  Uiso   1.00
C443   C     0.19533   0.79054   0.45861   0.00000  Uiso   1.00
C444   C     0.22252   0.77963   0.47833   0.00000  Uiso   1.00
C445   C     0.28108   0.84024   0.24117   0.00000  Uiso   1.00
C446   C     0.21421   0.78836   0.01907   0.00000  Uiso   1.00
C447   C     0.17600   0.80584   0.04145   0.00000  Uiso   1.00
C448   C     0.24367   0.77913   0.03767   0.00000  Uiso   1.00
C449   C     0.23596   0.78720   0.07845   0.00000  Uiso   1.00
C450   C     0.16814   0.81239   0.08288   0.00000  Uiso   1.00
C451   C     0.32708   0.84293   0.23754   0.00000  Uiso   1.00
C452   C     0.00710   0.82418   0.26208   0.00000  Uiso   1.00
C453   C     0.08820   0.86890   0.42176   0.00000  Uiso   1.00
C454   C     0.18176   0.98904   0.23811   0.00000  Uiso   1.00
C455   C     0.15157   0.67868   0.26156   0.00000  Uiso   1.00
C456   C     0.15562   0.72282   0.25909   0.00000  Uiso   1.00
C457   C     0.17698   0.94437   0.24133   0.00000  Uiso   1.00
C458   C     0.18830   0.81193   0.14392   0.00000  Uiso   1.00
C459   C     0.14440   0.85363   0.35642   0.00000  Uiso   1.00
C460   C     0.12882   0.85604   0.40003   0.00000  Uiso   1.00
C461   C     0.19767   0.80323   0.10112   0.00000  Uiso   1.00
C462   C     0.07360   0.86610   0.46229   0.00000  Uiso   1.00
C463   C     0.21536   0.66968   0.17472   0.00000  Uiso   1.00
C464   C     0.15354   0.84069   0.41991   0.00000  Uiso   1.00
C465   C     0.26011   0.67733   0.14626   0.00000  Uiso   1.00
C466   C     0.17392   0.73904   0.41584   0.00000  Uiso   1.00
C467   C     0.17960   0.72388   0.37240   0.00000  Uiso   1.00
C468   C     0.13738   0.83389   0.46007   0.00000  Uiso   1.00
C469   C     0.09763   0.84899   0.48186   0.00000  Uiso   1.00
C470   C     0.16070   0.81436   0.47947   0.00000  Uiso   1.00
C471   C     0.14819   0.81767   0.02151   0.00000  Uiso   1.00
C472   C     0.10830   0.83258   0.04218   0.00000  Uiso   1.00
C473   C     0.08287   0.84703   0.02281   0.00000  Uiso   1.00
H474   H     0.27303   0.76610   0.02043   0.00000  Uiso   1.00
H475   H     0.19514   0.69307   0.17186   0.00000  Uiso   1.00
H476   H     0.20088   0.97113   0.16584   0.00000  Uiso   1.00
H477   H     0.28021   0.98639   0.14730   0.00000  Uiso   1.00
H478   H     0.25747   0.67596   0.11571   0.00000  Uiso   1.00
H479   H     0.27605   0.70853   0.15454   0.00000  Uiso   1.00
H480   H     0.13954   0.74484   0.42931   0.00000  Uiso   1.00
H481   H     0.18121   0.71395   0.43032   0.00000  Uiso   1.00
H482   H     0.21354   0.71762   0.35792   0.00000  Uiso   1.00
H483   H     0.15775   0.69466   0.36940   0.00000  Uiso   1.00
H484   H     0.17154   0.74800   0.35749   0.00000  Uiso   1.00
H485   H     0.01683   0.86021   0.21484   0.00000  Uiso   1.00
H486   H     0.31798   0.80684   0.28505   0.00000  Uiso   1.00
H487   H     0.12232   0.99802   0.28136   0.00000  Uiso   1.00
H488   H     0.14030   0.82624   0.10191   0.00000  Uiso   1.00
H489   H     0.25005   0.76350   0.46148   0.00000  Uiso   1.00
H490   H     0.04280   0.87699   0.47810   0.00000  Uiso   1.00
H491   H     0.18608   0.83522   0.40349   0.00000  Uiso   1.00
H492   H     0.09515   0.83253   0.07363   0.00000  Uiso   1.00
O493   O     0.16667   0.83333   0.25000   0.00000  Uiso   1.00
O494   O     0.15693   0.79060   0.16625   0.00000  Uiso   1.00
O495   O     0.12687   0.87313   0.33749   0.00000  Uiso   1.00
O496   O     0.21088   0.84159   0.15877   0.00000  Uiso   1.00
O497   O     0.17198   0.82802   0.33749   0.00000  Uiso   1.00
O498   O     0.21925   0.67429   0.21361   0.00000  Uiso   1.00
O499   O     0.20241   0.77581   0.41913   0.00000  Uiso   1.00
O500   O     0.17849   0.74768   0.27821   0.00000  Uiso   1.00
O501   O     0.14581   0.92803   0.26767   0.00000  Uiso   1.00
O502   O     0.07452   0.79917   0.23607   0.00000  Uiso   1.00
O503   O     0.26785   0.85845   0.21806   0.00000  Uiso   1.00
O504   O     0.06990   0.85627   0.27820   0.00000  Uiso   1.00
O505   O     0.25440   0.81944   0.26768   0.00000  Uiso   1.00
O506   O     0.13800   0.73570   0.23607   0.00000  Uiso   1.00
O507   O     0.20437   0.92193   0.21806   0.00000  Uiso   1.00
Zn508  Zn    0.19244   0.80756   0.28278   0.00000  Uiso   1.00
Zn509  Zn    0.13459   0.79044   0.22258   0.00000  Uiso   1.00
Zn510  Zn    0.21166   0.86331   0.21188   0.00000  Uiso   1.00
Zn511  Zn    0.12798   0.87202   0.28277   0.00000  Uiso   1.00
Br512  Br    0.36224   0.86566   0.05490   0.00000  Uiso   1.00
Br513  Br    0.61160   0.77556   0.10203   0.00000  Uiso   1.00
Br514  Br    0.38293   0.88957   0.39897   0.00000  Uiso   1.00
C515   C     0.38581   0.82660   0.25869   0.00000  Uiso   1.00
C516   C     0.52867   0.79054   0.45861   0.00000  Uiso   1.00
C517   C     0.55586   0.77963   0.47833   0.00000  Uiso   1.00
C518   C     0.61441   0.84024   0.24117   0.00000  Uiso   1.00
C519   C     0.54754   0.78836   0.01907   0.00000  Uiso   1.00
C520   C     0.50934   0.80584   0.04145   0.00000  Uiso   1.00
C521   C     0.57700   0.77913   0.03767   0.00000  Uiso   1.00
C522   C     0.56929   0.78720   0.07845   0.00000  Uiso   1.00
C523   C     0.50147   0.81239   0.08288   0.00000  Uiso   1.00
C524   C     0.66041   0.84293   0.23754   0.00000  Uiso   1.00
C525   C     0.34043   0.82418   0.26208   0.00000  Uiso   1.00
C526   C     0.42153   0.86890   0.42176   0.00000  Uiso   1.00
C527   C     0.51509   0.98904   0.23811   0.00000  Uiso   1.00
C528   C     0.48491   0.67868   0.26156   0.00000  Uiso   1.00
C529   C     0.48895   0.72282   0.25909   0.00000  Uiso   1.00
C530   C     0.51031   0.94437   0.24133   0.00000  Uiso   1.00
C531   C     0.52164   0.81193   0.14392   0.00000  Uiso   1.00
C532   C     0.47773   0.85363   0.35642   0.00000  Uiso   1.00
C533   C     0.46215   0.85604   0.40003   0.00000  Uiso   1.00
C534   C     0.53101   0.80323   0.10112   0.00000  Uiso   1.00
C535   C     0.40694   0.86610   0.46229   0.00000  Uiso   1.00
C536   C     0.54870   0.66968   0.17472   0.00000  Uiso   1.00
C537   C     0.48688   0.84069   0.41991   0.00000  Uiso   1.00
C538   C     0.59344   0.67733   0.14626   0.00000  Uiso   1.00
C539   C     0.50725   0.73904   0.41584   0.00000  Uiso   1.00
C540   C     0.51293   0.72388   0.37240   0.00000  Uiso   1.00
C541   C     0.47071   0.83389   0.46007   0.00000  Uiso   1.00
C542   C     0.43096   0.84899   0.48186   0.00000  Uiso   1.00
C543   C     0.49403   0.81436   0.47947   0.00000  Uiso   1.00
C544   C     0.48152   0.81767   0.02151   0.00000  Uiso   1.00
C545   C     0.44163   0.83258   0.04218   0.00000  Uiso   1.00
C546   C     0.41620   0.84703   0.02281   0.00000  Uiso   1.00
H547   H     0.60636   0.76610   0.02043   0.00000  Uiso   1.00
H548   H     0.52847   0.69307   0.17186   0.00000  Uiso   1.00
H549   H     0.53422   0.97113   0.16584   0.00000  Uiso   1.00
H550   H     0.61355   0.98639   0.14730   0.00000  Uiso   1.00
H551   H     0.59080   0.67596   0.11571   0.00000  Uiso   1.00
H552   H     0.60939   0.70853   0.15454   0.00000  Uiso   1.00
H553   H     0.47287   0.74484   0.42931   0.00000  Uiso   1.00
H554   H     0.51455   0.71395   0.43032   0.00000  Uiso   1.00
H555   H     0.54687   0.71762   0.35792   0.00000  Uiso   1.00
H556   H     0.49108   0.69466   0.36940   0.00000  Uiso   1.00
H557   H     0.50487   0.74800   0.35749   0.00000  Uiso   1.00
H558   H     0.35017   0.86021   0.21484   0.00000  Uiso   1.00
H559   H     0.65132   0.80684   0.28505   0.00000  Uiso   1.00
H560   H     0.45565   0.99802   0.28136   0.00000  Uiso   1.00
H561   H     0.47364   0.82624   0.10191   0.00000  Uiso   1.00
H562   H     0.58338   0.76350   0.46148   0.00000  Uiso   1.00
H563   H     0.37614   0.87699   0.47810   0.00000  Uiso   1.00
H564   H     0.51941   0.83522   0.40349   0.00000  Uiso   1.00
H565   H     0.42849   0.83253   0.07363   0.00000  Uiso   1.00
O566   O     0.50000   0.83333   0.25000   0.00000  Uiso   1.00
O567   O     0.49027   0.79060   0.16625   0.00000  Uiso   1.00
O568   O     0.46020   0.87313   0.33749   0.00000  Uiso   1.00
O569   O     0.54421   0.84159   0.15877   0.00000  Uiso   1.00
O570   O     0.50532   0.82802   0.33749   0.00000  Uiso   1.00
O571   O     0.55258   0.67429   0.21361   0.00000  Uiso   1.00
O572   O     0.53574   0.77581   0.41913   0.00000  Uiso   1.00
O573   O     0.51182   0.74768   0.27821   0.00000  Uiso   1.00
O574   O     0.47914   0.92803   0.26767   0.00000  Uiso   1.00
O575   O     0.40785   0.79917   0.23607   0.00000  Uiso   1.00
O576   O     0.60119   0.85845   0.21806   0.00000  Uiso   1.00
O577   O     0.40323   0.85627   0.27820   0.00000  Uiso   1.00
O578   O     0.58773   0.81944   0.26768   0.00000  Uiso   1.00
O579   O     0.47133   0.73570   0.23607   0.00000  Uiso   1.00
O580   O     0.53771   0.92193   0.21806   0.00000  Uiso   1.00
Zn581  Zn    0.52577   0.80756   0.28278   0.00000  Uiso   1.00
Zn582  Zn    0.46792   0.79044   0.22258   0.00000  Uiso   1.00
Zn583  Zn    0.54500   0.86331   0.21188   0.00000  Uiso   1.00
Zn584  Zn    0.46131   0.87202   0.28277   0.00000  Uiso   1.00
Br585  Br    0.69557   0.86566   0.05490   0.00000  Uiso   1.00
Br586  Br    0.94494   0.77556   0.10203   0.00000  Uiso   1.00
Br587  Br    0.71627   0.88957   0.39897   0.00000  Uiso   1.00
C588   C     0.71915   0.82660   0.25869   0.00000  Uiso   1.00
C589   C     0.86200   0.79054   0.45861   0.00000  Uiso   1.00
C590   C     0.88919   0.77963   0.47833   0.00000  Uiso   1.00
C591   C     0.94775   0.84024   0.24117   0.00000  Uiso   1.00
C592   C     0.88088   0.78836   0.01907   0.00000  Uiso   1.00
C593   C     0.84267   0.80584   0.04145   0.00000  Uiso   1.00
C594   C     0.91033   0.77913   0.03767   0.00000  Uiso   1.00
C595   C     0.90263   0.78720   0.07845   0.00000  Uiso   1.00
C596   C     0.83480   0.81239   0.08288   0.00000  Uiso   1.00
C597   C     0.99374   0.84293   0.23754   0.00000  Uiso   1.00
C598   C     0.67376   0.82418   0.26208   0.00000  Uiso   1.00
C599   C     0.75487   0.86890   0.42176   0.00000  Uiso   1.00
C600   C     0.84843   0.98904   0.23811   0.00000  Uiso   1.00
C601   C     0.81824   0.67868   0.26156   0.00000  Uiso   1.00
C602   C     0.82229   0.72282   0.25909   0.00000  Uiso   1.00
C603   C     0.84364   0.94437   0.24133   0.00000  Uiso   1.00
C604   C     0.85497   0.81193   0.14392   0.00000  Uiso   1.00
C605   C     0.81106   0.85363   0.35642   0.00000  Uiso   1.00
C606   C     0.79548   0.85604   0.40003   0.00000  Uiso   1.00
C607   C     0.86434   0.80323   0.10112   0.00000  Uiso   1.00
C608   C     0.74027   0.86610   0.46229   0.00000  Uiso   1.00
C609   C     0.88203   0.66968   0.17472   0.00000  Uiso   1.00
C610   C     0.82021   0.84069   0.41991   0.00000  Uiso   1.00
C611   C     0.92678   0.67733   0.14626   0.00000  Uiso   1.00
C612   C     0.84059   0.73904   0.41584   0.00000  Uiso   1.00
C613   C     0.84626   0.72388   0.37240   0.00000  Uiso   1.00
C614   C     0.80405   0.83389   0.46007   0.00000  Uiso   1.00
C615   C     0.76430   0.84899   0.48186   0.00000  Uiso   1.00
C616   C     0.82737   0.81436   0.47947   0.00000  Uiso   1.00
C617   C     0.81486   0.81767   0.02151   0.00000  Uiso   1.00
C618   C     0.77496   0.83258   0.04218   0.00000  Uiso   1.00
C619   C     0.74954   0.84703   0.02281   0.00000  Uiso   1.00
H620   H     0.93970   0.76610   0.02043   0.00000  Uiso   1.00
H621   H     0.86181   0.69307   0.17186   0.00000  Uiso   1.00
H622   H     0.86755   0.97113   0.16584   0.00000  Uiso   1.00
H623   H     0.94688   0.98639   0.14730   0.00000  Uiso   1.00
H624   H     0.92414   0.67596   0.11571   0.00000  Uiso   1.00
H625   H     0.94272   0.70853   0.15454   0.00000  Uiso   1.00
H626   H     0.80620   0.74484   0.42931   0.00000  Uiso   1.00
H627   H     0.84788   0.71395   0.43032   0.00000  Uiso   1.00
H628   H     0.88021   0.71762   0.35792   0.00000  Uiso   1.00
H629   H     0.82441   0.69466   0.36940   0.00000  Uiso   1.00
H630   H     0.83821   0.74800   0.35749   0.00000  Uiso   1.00
H631   H     0.68350   0.86021   0.21484   0.00000  Uiso   1.00
H632   H     0.98465   0.80684   0.28505   0.00000  Uiso   1.00
H633   H     0.78899   0.99802   0.28136   0.00000  Uiso   1.00
H634   H     0.80697   0.82624   0.10191   0.00000  Uiso   1.00
H635   H     0.91672   0.76350   0.46148   0.00000  Uiso   1.00
H636   H     0.70947   0.87699   0.47810   0.00000  Uiso   1.00
H637   H     0.85274   0.83522   0.40349   0.00000  Uiso   1.00
H638   H     0.76182   0.83253   0.07363   0.00000  Uiso   1.00
O639   O     0.83333   0.83333   0.25000   0.00000  Uiso   1.00
O640   O     0.82360   0.79060   0.16625   0.00000  Uiso   1.00
O641   O     0.79354   0.87313   0.33749   0.00000  Uiso   1.00
O642   O     0.87755   0.84159   0.15877   0.00000  Uiso   1.00
O643   O     0.83865   0.82802   0.33749   0.00000  Uiso   1.00
O644   O     0.88592   0.67429   0.21361   0.00000  Uiso   1.00
O645   O     0.86907   0.77581   0.41913   0.00000  Uiso   1.00
O646   O     0.84515   0.74768   0.27821   0.00000  Uiso   1.00
O647   O     0.81247   0.92803   0.26767   0.00000  Uiso   1.00
O648   O     0.74119   0.79917   0.23607   0.00000  Uiso   1.00
O649   O     0.93452   0.85845   0.21806   0.00000  Uiso   1.00
O650   O     0.73656   0.85627   0.27820   0.00000  Uiso   1.00
O651   O     0.92106   0.81944   0.26768   0.00000  Uiso   1.00
O652   O     0.80467   0.73570   0.23607   0.00000  Uiso   1.00
O653   O     0.87104   0.92193   0.21806   0.00000  Uiso   1.00
Zn654  Zn    0.85910   0.80756   0.28278   0.00000  Uiso   1.00
Zn655  Zn    0.80125   0.79044   0.22258   0.00000  Uiso   1.00
Zn656  Zn    0.87833   0.86331   0.21188   0.00000  Uiso   1.00
Zn657  Zn    0.79465   0.87202   0.28277   0.00000  Uiso   1.00
Br658  Br    0.02891   0.19900   0.55490   0.00000  Uiso   1.00
Br659  Br    0.27827   0.10889   0.60203   0.00000  Uiso   1.00
Br660  Br    0.04960   0.22290   0.89897   0.00000  Uiso   1.00
C661   C     0.05248   0.15994   0.75869   0.00000  Uiso   1.00
C662   C     0.19533   0.12387   0.95861   0.00000  Uiso   1.00
C663   C     0.22252   0.11296   0.97833   0.00000  Uiso   1.00
C664   C     0.28108   0.17357   0.74117   0.00000  Uiso   1.00
C665   C     0.21421   0.12169   0.51907   0.00000  Uiso   1.00
C666   C     0.17600   0.13917   0.54145   0.00000  Uiso   1.00
C667   C     0.24367   0.11246   0.53767   0.00000  Uiso   1.00
C668   C     0.23596   0.12053   0.57845   0.00000  Uiso   1.00
C669   C     0.16814   0.14572   0.58288   0.00000  Uiso   1.00
C670   C     0.32708   0.17627   0.73754   0.00000  Uiso   1.00
C671   C     0.00710   0.15752   0.76208   0.00000  Uiso   1.00
C672   C     0.08820   0.20223   0.92176   0.00000  Uiso   1.00
C673   C     0.18176   0.32237   0.73811   0.00000  Uiso   1.00
C674   C     0.15157   0.01201   0.76156   0.00000  Uiso   1.00
C675   C     0.15562   0.05615   0.75909   0.00000  Uiso   1.00
C676   C     0.17698   0.27770   0.74133   0.00000  Uiso   1.00
C677   C     0.18830   0.14527   0.64392   0.00000  Uiso   1.00
C678   C     0.14440   0.18696   0.85642   0.00000  Uiso   1.00
C679   C     0.12882   0.18937   0.90003   0.00000  Uiso   1.00
C680   C     0.19767   0.13656   0.60112   0.00000  Uiso   1.00
C681   C     0.07360   0.19943   0.96229   0.00000  Uiso   1.00
C682   C     0.21536   0.00301   0.67472   0.00000  Uiso   1.00
C683   C     0.15354   0.17402   0.91991   0.00000  Uiso   1.00
C684   C     0.26011   0.01066   0.64626   0.00000  Uiso   1.00
C685   C     0.17392   0.07238   0.91584   0.00000  Uiso   1.00
C686   C     0.17960   0.05722   0.87240   0.00000  Uiso   1.00
C687   C     0.13738   0.16723   0.96007   0.00000  Uiso   1.00
C688   C     0.09763   0.18232   0.98186   0.00000  Uiso   1.00
C689   C     0.16070   0.14769   0.97947   0.00000  Uiso   1.00
C690   C     0.14819   0.15100   0.52151   0.00000  Uiso   1.00
C691   C     0.10830   0.16592   0.54218   0.00000  Uiso   1.00
C692   C     0.08287   0.18036   0.52281   0.00000  Uiso   1.00
H693   H     0.27303   0.09944   0.52043   0.00000  Uiso   1.00
H694   H     0.19514   0.02640   0.67186   0.00000  Uiso   1.00
H695   H     0.20088   0.30447   0.66584   0.00000  Uiso   1.00
H696   H     0.28021   0.31973   0.64730   0.00000  Uiso   1.00
H697   H     0.25747   0.00929   0.61571   0.00000  Uiso   1.00
H698   H     0.27605   0.04187   0.65454   0.00000  Uiso   1.00
H699   H     0.13954   0.07817   0.92931   0.00000  Uiso   1.00
H700   H     0.18121   0.04729   0.93032   0.00000  Uiso   1.00
H701   H     0.21354   0.05095   0.85792   0.00000  Uiso   1.00
H702   H     0.15775   0.02800   0.86940   0.00000  Uiso   1.00
H703   H     0.17154   0.08133   0.85749   0.00000  Uiso   1.00
H704   H     0.01683   0.19355   0.71484   0.00000  Uiso   1.00
H705   H     0.31798   0.14018   0.78505   0.00000  Uiso   1.00
H706   H     0.12232   0.33135   0.78136   0.00000  Uiso   1.00
H707   H     0.14030   0.15958   0.60191   0.00000  Uiso   1.00
H708   H     0.25005   0.09683   0.96148   0.00000  Uiso   1.00
H709   H     0.04280   0.21033   0.97810   0.00000  Uiso   1.00
H710   H     0.18608   0.16855   0.90349   0.00000  Uiso   1.00
H711   H     0.09515   0.16586   0.57363   0.00000  Uiso   1.00
O712   O     0.16667   0.16667   0.75000   0.00000  Uiso   1.00
O713   O     0.15693   0.12393   0.66625   0.00000  Uiso   1.00
O714   O     0.12687   0.20646   0.83749   0.00000  Uiso   1.00
O715   O     0.21088   0.17493   0.65877   0.00000  Uiso   1.00
O716   O     0.17198   0.16135   0.83749   0.00000  Uiso   1.00
O717   O     0.21925   0.00763   0.71361   0.00000  Uiso   1.00
O718   O     0.20241   0.10915   0.91913   0.00000  Uiso   1.00
O719   O     0.17849   0.08101   0.77821   0.00000  Uiso   1.00
O720   O     0.14581   0.26136   0.76767   0.00000  Uiso   1.00
O721   O     0.07452   0.13251   0.73607   0.00000  Uiso   1.00
O722   O     0.26785   0.19179   0.71806   0.00000  Uiso   1.00
O723   O     0.06990   0.18960   0.77820   0.00000  Uiso   1.00
O724   O     0.25440   0.15277   0.76768   0.00000  Uiso   1.00
O725   O     0.13800   0.06903   0.73607   0.00000  Uiso   1.00
O726   O     0.20437   0.25527   0.71806   0.00000  Uiso   1.00
Zn727  Zn    0.19244   0.14090   0.78278   0.00000  Uiso   1.00
Zn728  Zn    0.13459   0.12378   0.72258   0.00000  Uiso   1.00
Zn729  Zn    0.21166   0.19664   0.71188   0.00000  Uiso   1.00
Zn730  Zn    0.12798   0.20535   0.78277   0.00000  Uiso   1.00
Br731  Br    0.36224   0.19900   0.55490   0.00000  Uiso   1.00
Br732  Br    0.61160   0.10889   0.60203   0.00000  Uiso   1.00
Br733  Br    0.38293   0.22290   0.89897   0.00000  Uiso   1.00
C734   C     0.38581   0.15994   0.75869   0.00000  Uiso   1.00
C735   C     0.52867   0.12387   0.95861   0.00000  Uiso   1.00
C736   C     0.55586   0.11296   0.97833   0.00000  Uiso   1.00
C737   C     0.61441   0.17357   0.74117   0.00000  Uiso   1.00
C738   C     0.54754   0.12169   0.51907   0.00000  Uiso   1.00
C739   C     0.50934   0.13917   0.54145   0.00000  Uiso   1.00
C740   C     0.57700   0.11246   0.53767   0.00000  Uiso   1.00
C741   C     0.56929   0.12053   0.57845   0.00000  Uiso   1.00
C742   C     0.50147   0.14572   0.58288   0.00000  Uiso   1.00
C743   C     0.66041   0.17627   0.73754   0.00000  Uiso   1.00
C744   C     0.34043   0.15752   0.76208   0.00000  Uiso   1.00
C745   C     0.42153   0.20223   0.92176   0.00000  Uiso   1.00
C746   C     0.51509   0.32237   0.73811   0.00000  Uiso   1.00
C747   C     0.48491   0.01201   0.76156   0.00000  Uiso   1.00
C748   C     0.48895   0.05615   0.75909   0.00000  Uiso   1.00
C749   C     0.51031   0.27770   0.74133   0.00000  Uiso   1.00
C750   C     0.52164   0.14527   0.64392   0.00000  Uiso   1.00
C751   C     0.47773   0.18696   0.85642   0.00000  Uiso   1.00
C752   C     0.46215   0.18937   0.90003   0.00000  Uiso   1.00
C753   C     0.53101   0.13656   0.60112   0.00000  Uiso   1.00
C754   C     0.40694   0.19943   0.96229   0.00000  Uiso   1.00
C755   C     0.54870   0.00301   0.67472   0.00000  Uiso   1.00
C756   C     0.48688   0.17402   0.91991   0.00000  Uiso   1.00
C757   C     0.59344   0.01066   0.64626   0.00000  Uiso   1.00
C758   C     0.50725   0.07238   0.91584   0.00000  Uiso   1.00
C759   C     0.51293   0.05722   0.87240   0.00000  Uiso   1.00
C760   C     0.47071   0.16723   0.96007   0.00000  Uiso   1.00
C761   C     0.43096   0.18232   0.98186   0.00000  Uiso   1.00
C762   C     0.49403   0.14769   0.97947   0.00000  Uiso   1.00
C763   C     0.48152   0.15100   0.52151   0.00000  Uiso   1.00
C764   C     0.44163   0.16592   0.54218   0.00000  Uiso   1.00
C765   C     0.41620   0.18036   0.52281   0.00000  Uiso   1.00
H766   H     0.60636   0.09944   0.52043   0.00000  Uiso   1.00
H767   H     0.52847   0.02640   0.67186   0.00000  Uiso   1.00
H768   H     0.53422   0.30447   0.66584   0.00000  Uiso   1.00
H769   H     0.61355   0.31973   0.64730   0.00000  Uiso   1.00
H770   H     0.59080   0.00929   0.61571   0.00000  Uiso   1.00
H771   H     0.60939   0.04187   0.65454   0.00000  Uiso   1.00
H772   H     0.47287   0.07817   0.92931   0.00000  Uiso   1.00
H773   H     0.51455   0.04729   0.93032   0.00000  Uiso   1.00
H774   H     0.54687   0.05095   0.85792   0.00000  Uiso   1.00
H775   H     0.49108   0.02800   0.86940   0.00000  Uiso   1.00
H776   H     0.50487   0.08133   0.85749   0.00000  Uiso   1.00
H777   H     0.35017   0.19355   0.71484   0.00000  Uiso   1.00
H778   H     0.65132   0.14018   0.78505   0.00000  Uiso   1.00
H779   H     0.45565   0.33135   0.78136   0.00000  Uiso   1.00
H780   H     0.47364   0.15958   0.60191   0.00000  Uiso   1.00
H781   H     0.58338   0.09683   0.96148   0.00000  Uiso   1.00
H782   H     0.37614   0.21033   0.97810   0.00000  Uiso   1.00
H783   H     0.51941   0.16855   0.90349   0.00000  Uiso   1.00
H784   H     0.42849   0.16586   0.57363   0.00000  Uiso   1.00
O785   O     0.50000   0.16667   0.75000   0.00000  Uiso   1.00
O786   O     0.49027   0.12393   0.66625   0.00000  Uiso   1.00
O787   O     0.46020   0.20646   0.83749   0.00000  Uiso   1.00
O788   O     0.54421   0.17493   0.65877   0.00000  Uiso   1.00
O789   O     0.50532   0.16135   0.83749   0.00000  Uiso   1.00
O790   O     0.55258   0.00763   0.71361   0.00000  Uiso   1.00
O791   O     0.53574   0.10915   0.91913   0.00000  Uiso   1.00
O792   O     0.51182   0.08101   0.77821   0.00000  Uiso   1.00
O793   O     0.47914   0.26136   0.76767   0.00000  Uiso   1.00
O794   O     0.40785   0.13251   0.73607   0.00000  Uiso   1.00
O795   O     0.60119   0.19179   0.71806   0.00000  Uiso   1.00
O796   O     0.40323   0.18960   0.77820   0.00000  Uiso   1.00
O797   O     0.58773   0.15277   0.76768   0.00000  Uiso   1.00
O798   O     0.47133   0.06903   0.73607   0.00000  Uiso   1.00
O799   O     0.53771   0.25527   0.71806   0.00000  Uiso   1.00
Zn800  Zn    0.52577   0.14090   0.78278   0.00000  Uiso   1.00
Zn801  Zn    0.46792   0.12378   0.72258   0.00000  Uiso   1.00
Zn802  Zn    0.54500   0.19664   0.71188   0.00000  Uiso   1.00
Zn803  Zn    0.46131   0.20535   0.78277   0.00000  Uiso   1.00
Br804  Br    0.69557   0.19900   0.55490   0.00000  Uiso   1.00
Br805  Br    0.94494   0.10889   0.60203   0.00000  Uiso   1.00
Br806  Br    0.71627   0.22290   0.89897   0.00000  Uiso   1.00
C807   C     0.71915   0.15994   0.75869   0.00000  Uiso   1.00
C808   C     0.86200   0.12387   0.95861   0.00000  Uiso   1.00
C809   C     0.88919   0.11296   0.97833   0.00000  Uiso   1.00
C810   C     0.94775   0.17357   0.74117   0.00000  Uiso   1.00
C811   C     0.88088   0.12169   0.51907   0.00000  Uiso   1.00
C812   C     0.84267   0.13917   0.54145   0.00000  Uiso   1.00
C813   C     0.91033   0.11246   0.53767   0.00000  Uiso   1.00
C814   C     0.90263   0.12053   0.57845   0.00000  Uiso   1.00
C815   C     0.83480   0.14572   0.58288   0.00000  Uiso   1.00
C816   C     0.99374   0.17627   0.73754   0.00000  Uiso   1.00
C817   C     0.67376   0.15752   0.76208   0.00000  Uiso   1.00
C818   C     0.75487   0.20223   0.92176   0.00000  Uiso   1.00
C819   C     0.84843   0.32237   0.73811   0.00000  Uiso   1.00
C820   C     0.81824   0.01201   0.76156   0.00000  Uiso   1.00
C821   C     0.82229   0.05615   0.75909   0.00000  Uiso   1.00
C822   C     0.84364   0.27770   0.74133   0.00000  Uiso   1.00
C823   C     0.85497   0.14527   0.64392   0.00000  Uiso   1.00
C824   C     0.81106   0.18696   0.85642   0.00000  Uiso   1.00
C825   C     0.79548   0.18937   0.90003   0.00000  Uiso   1.00
C826   C     0.86434   0.13656   0.60112   0.00000  Uiso   1.00
C827   C     0.74027   0.19943   0.96229   0.00000  Uiso   1.00
C828   C     0.88203   0.00301   0.67472   0.00000  Uiso   1.00
C829   C     0.82021   0.17402   0.91991   0.00000  Uiso   1.00
C830   C     0.92678   0.01066   0.64626   0.00000  Uiso   1.00
C831   C     0.84059   0.07238   0.91584   0.00000  Uiso   1.00
C832   C     0.84626   0.05722   0.87240   0.00000  Uiso   1.00
C833   C     0.80405   0.16723   0.96007   0.00000  Uiso   1.00
C834   C     0.76430   0.18232   0.98186   0.00000  Uiso   1.00
C835   C     0.82737   0.14769   0.97947   0.00000  Uiso   1.00
C836   C     0.81486   0.15100   0.52151   0.00000  Uiso   1.00
C837   C     0.77496   0.16592   0.54218   0.00000  Uiso   1.00
C838   C     0.74954   0.18036   0.52281   0.00000  Uiso   1.00
H839   H     0.93970   0.09944   0.52043   0.00000  Uiso   1.00
H840   H     0.86181   0.02640   0.67186   0.00000  Uiso   1.00
H841   H     0.86755   0.30447   0.66584   0.00000  Uiso   1.00
H842   H     0.94688   0.31973   0.64730   0.00000  Uiso   1.00
H843   H     0.92414   0.00929   0.61571   0.00000  Uiso   1.00
H844   H     0.94272   0.04187   0.65454   0.00000  Uiso   1.00
H845   H     0.80620   0.07817   0.92931   0.00000  Uiso   1.00
H846   H     0.84788   0.04729   0.93032   0.00000  Uiso   1.00
H847   H     0.88021   0.05095   0.85792   0.00000  Uiso   1.00
H848   H     0.82441   0.02800   0.86940   0.00000  Uiso   1.00
H849   H     0.83821   0.08133   0.85749   0.00000  Uiso   1.00
H850   H     0.68350   0.19355   0.71484   0.00000  Uiso   1.00
H851   H     0.98465   0.14018   0.78505   0.00000  Uiso   1.00
H852   H     0.78899   0.33135   0.78136   0.00000  Uiso   1.00
H853   H     0.80697   0.15958   0.60191   0.00000  Uiso   1.00
H854   H     0.91672   0.09683   0.96148   0.00000  Uiso   1.00
H855   H     0.70947   0.21033   0.97810   0.00000  Uiso   1.00
H856   H     0.85274   0.16855   0.90349   0.00000  Uiso   1.00
H857   H     0.76182   0.16586   0.57363   0.00000  Uiso   1.00
O858   O     0.83333   0.16667   0.75000   0.00000  Uiso   1.00
O859   O     0.82360   0.12393   0.66625   0.00000  Uiso   1.00
O860   O     0.79354   0.20646   0.83749   0.00000  Uiso   1.00
O861   O     0.87755   0.17493   0.65877   0.00000  Uiso   1.00
O862   O     0.83865   0.16135   0.83749   0.00000  Uiso   1.00
O863   O     0.88592   0.00763   0.71361   0.00000  Uiso   1.00
O864   O     0.86907   0.10915   0.91913   0.00000  Uiso   1.00
O865   O     0.84515   0.08101   0.77821   0.00000  Uiso   1.00
O866   O     0.81247   0.26136   0.76767   0.00000  Uiso   1.00
O867   O     0.74119   0.13251   0.73607   0.00000  Uiso   1.00
O868   O     0.93452   0.19179   0.71806   0.00000  Uiso   1.00
O869   O     0.73656   0.18960   0.77820   0.00000  Uiso   1.00
O870   O     0.92106   0.15277   0.76768   0.00000  Uiso   1.00
O871   O     0.80467   0.06903   0.73607   0.00000  Uiso   1.00
O872   O     0.87104   0.25527   0.71806   0.00000  Uiso   1.00
Zn873  Zn    0.85910   0.14090   0.78278   0.00000  Uiso   1.00
Zn874  Zn    0.80125   0.12378   0.72258   0.00000  Uiso   1.00
Zn875  Zn    0.87833   0.19664   0.71188   0.00000  Uiso   1.00
Zn876  Zn    0.79465   0.20535   0.78277   0.00000  Uiso   1.00
Br877  Br    0.02891   0.53233   0.55490   0.00000  Uiso   1.00
Br878  Br    0.27827   0.44222   0.60203   0.00000  Uiso   1.00
Br879  Br    0.04960   0.55623   0.89897   0.00000  Uiso   1.00
C880   C     0.05248   0.49327   0.75869   0.00000  Uiso   1.00
C881   C     0.19533   0.45721   0.95861   0.00000  Uiso   1.00
C882   C     0.22252   0.44630   0.97833   0.00000  Uiso   1.00
C883   C     0.28108   0.50691   0.74117   0.00000  Uiso   1.00
C884   C     0.21421   0.45503   0.51907   0.00000  Uiso   1.00
C885   C     0.17600   0.47250   0.54145   0.00000  Uiso   1.00
C886   C     0.24367   0.44580   0.53767   0.00000  Uiso   1.00
C887   C     0.23596   0.45386   0.57845   0.00000  Uiso   1.00
C888   C     0.16814   0.47906   0.58288   0.00000  Uiso   1.00
C889   C     0.32708   0.50960   0.73754   0.00000  Uiso   1.00
C890   C     0.00710   0.49085   0.76208   0.00000  Uiso   1.00
C891   C     0.08820   0.53556   0.92176   0.00000  Uiso   1.00
C892   C     0.18176   0.65571   0.73811   0.00000  Uiso   1.00
C893   C     0.15157   0.34534   0.76156   0.00000  Uiso   1.00
C894   C     0.15562   0.38949   0.75909   0.00000  Uiso   1.00
C895   C     0.17698   0.61103   0.74133   0.00000  Uiso   1.00
C896   C     0.18830   0.47860   0.64392   0.00000  Uiso   1.00
C897   C     0.14440   0.52029   0.85642   0.00000  Uiso   1.00
C898   C     0.12882   0.52270   0.90003   0.00000  Uiso   1.00
C899   C     0.19767   0.46990   0.60112   0.00000  Uiso   1.00
C900   C     0.07360   0.53277   0.96229   0.00000  Uiso   1.00
C901   C     0.21536   0.33635   0.67472   0.00000  Uiso   1.00
C902   C     0.15354   0.50735   0.91991   0.00000  Uiso   1.00
C903   C     0.26011   0.34399   0.64626   0.00000  Uiso   1.00
C904   C     0.17392   0.40571   0.91584   0.00000  Uiso   1.00
C905   C     0.17960   0.39055   0.87240   0.00000  Uiso   1.00
C906   C     0.13738   0.50056   0.96007   0.00000  Uiso   1.00
C907   C     0.09763   0.51565   0.98186   0.00000  Uiso   1.00
C908   C     0.16070   0.48102   0.97947   0.00000  Uiso   1.00
C909   C     0.14819   0.48434   0.52151   0.00000  Uiso   1.00
C910   C     0.10830   0.49925   0.54218   0.00000  Uiso   1.00
C911   C     0.08287   0.51370   0.52281   0.00000  Uiso   1.00
H912   H     0.27303   0.43277   0.52043   0.00000  Uiso   1.00
H913   H     0.19514   0.35974   0.67186   0.00000  Uiso   1.00
H914   H     0.20088   0.63780   0.66584   0.00000  Uiso   1.00
H915   H     0.28021   0.65306   0.64730   0.00000  Uiso   1.00
H916   H     0.25747   0.34263   0.61571   0.00000  Uiso   1.00
H917   H     0.27605   0.37520   0.65454   0.00000  Uiso   1.00
H918   H     0.13954   0.41150   0.92931   0.00000  Uiso   1.00
H919   H     0.18121   0.38062   0.93032   0.00000  Uiso   1.00
H920   H     0.21354   0.38429   0.85792   0.00000  Uiso   1.00
H921   H     0.15775   0.36133   0.86940   0.00000  Uiso   1.00
H922   H     0.17154   0.41467   0.85749   0.00000  Uiso   1.00
H923   H     0.01683   0.52688   0.71484   0.00000  Uiso   1.00
H924   H     0.31798   0.47351   0.78505   0.00000  Uiso   1.00
H925   H     0.12232   0.66468   0.78136   0.00000  Uiso   1.00
H926   H     0.14030   0.49291   0.60191   0.00000  Uiso   1.00
H927   H     0.25005   0.43017   0.96148   0.00000  Uiso   1.00
H928   H     0.04280   0.54366   0.97810   0.00000  Uiso   1.00
H929   H     0.18608   0.50188   0.90349   0.00000  Uiso   1.00
H930   H     0.09515   0.49919   0.57363   0.00000  Uiso   1.00
O931   O     0.16667   0.50000   0.75000   0.00000  Uiso   1.00
O932   O     0.15693   0.45726   0.66625   0.00000  Uiso   1.00
O933   O     0.12687   0.53979   0.83749   0.00000  Uiso   1.00
O934   O     0.21088   0.50826   0.65877   0.00000  Uiso   1.00
O935   O     0.17198   0.49468   0.83749   0.00000  Uiso   1.00
O936   O     0.21925   0.34096   0.71361   0.00000  Uiso   1.00
O937   O     0.20241   0.44248   0.91913   0.00000  Uiso   1.00
O938   O     0.17849   0.41434   0.77821   0.00000  Uiso   1.00
O939   O     0.14581   0.59469   0.76767   0.00000  Uiso   1.00
O940   O     0.07452   0.46584   0.73607   0.00000  Uiso   1.00
O941   O     0.26785   0.52512   0.71806   0.00000  Uiso   1.00
O942   O     0.06990   0.52293   0.77820   0.00000  Uiso   1.00
O943   O     0.25440   0.48610   0.76768   0.00000  Uiso   1.00
O944   O     0.13800   0.40236   0.73607   0.00000  Uiso   1.00
O945   O     0.20437   0.58860   0.71806   0.00000  Uiso   1.00
Zn946  Zn    0.19244   0.47423   0.78278   0.00000  Uiso   1.00
Zn947  Zn    0.13459   0.45711   0.72258   0.00000  Uiso   1.00
Zn948  Zn    0.21166   0.52997   0.71188   0.00000  Uiso   1.00
Zn949  Zn    0.12798   0.53868   0.78277   0.00000  Uiso   1.00
Br950  Br    0.36224   0.53233   0.55490   0.00000  Uiso   1.00
Br951  Br    0.61160   0.44222   0.60203   0.00000  Uiso   1.00
Br952  Br    0.38293   0.55623   0.89897   0.00000  Uiso   1.00
C953   C     0.38581   0.49327   0.75869   0.00000  Uiso   1.00
C954   C     0.52867   0.45721   0.95861   0.00000  Uiso   1.00
C955   C     0.55586   0.44630   0.97833   0.00000  Uiso   1.00
C956   C     0.61441   0.50691   0.74117   0.00000  Uiso   1.00
C957   C     0.54754   0.45503   0.51907   0.00000  Uiso   1.00
C958   C     0.50934   0.47250   0.54145   0.00000  Uiso   1.00
C959   C     0.57700   0.44580   0.53767   0.00000  Uiso   1.00
C960   C     0.56929   0.45386   0.57845   0.00000  Uiso   1.00
C961   C     0.50147   0.47906   0.58288   0.00000  Uiso   1.00
C962   C     0.66041   0.50960   0.73754   0.00000  Uiso   1.00
C963   C     0.34043   0.49085   0.76208   0.00000  Uiso   1.00
C964   C     0.42153   0.53556   0.92176   0.00000  Uiso   1.00
C965   C     0.51509   0.65571   0.73811   0.00000  Uiso   1.00
C966   C     0.48491   0.34534   0.76156   0.00000  Uiso   1.00
C967   C     0.48895   0.38949   0.75909   0.00000  Uiso   1.00
C968   C     0.51031   0.61103   0.74133   0.00000  Uiso   1.00
C969   C     0.52164   0.47860   0.64392   0.00000  Uiso   1.00
C970   C     0.47773   0.52029   0.85642   0.00000  Uiso   1.00
C971   C     0.46215   0.52270   0.90003   0.00000  Uiso   1.00
C972   C     0.53101   0.46990   0.60112   0.00000  Uiso   1.00
C973   C     0.40694   0.53277   0.96229   0.00000  Uiso   1.00
C974   C     0.54870   0.33635   0.67472   0.00000  Uiso   1.00
C975   C     0.48688   0.50735   0.91991   0.00000  Uiso   1.00
C976   C     0.59344   0.34399   0.64626   0.00000  Uiso   1.00
C977   C     0.50725   0.40571   0.91584   0.00000  Uiso   1.00
C978   C     0.51293   0.39055   0.87240   0.00000  Uiso   1.00
C979   C     0.47071   0.50056   0.96007   0.00000  Uiso   1.00
C980   C     0.43096   0.51565   0.98186   0.00000  Uiso   1.00
C981   C     0.49403   0.48102   0.97947   0.00000  Uiso   1.00
C982   C     0.48152   0.48434   0.52151   0.00000  Uiso   1.00
C983   C     0.44163   0.49925   0.54218   0.00000  Uiso   1.00
C984   C     0.41620   0.51370   0.52281   0.00000  Uiso   1.00
H985   H     0.60636   0.43277   0.52043   0.00000  Uiso   1.00
H986   H     0.52847   0.35974   0.67186   0.00000  Uiso   1.00
H987   H     0.53422   0.63780   0.66584   0.00000  Uiso   1.00
H988   H     0.61355   0.65306   0.64730   0.00000  Uiso   1.00
H989   H     0.59080   0.34263   0.61571   0.00000  Uiso   1.00
H990   H     0.60939   0.37520   0.65454   0.00000  Uiso   1.00
H991   H     0.47287   0.41150   0.92931   0.00000  Uiso   1.00
H992   H     0.51455   0.38062   0.93032   0.00000  Uiso   1.00
H993   H     0.54687   0.38429   0.85792   0.00000  Uiso   1.00
H994   H     0.49108   0.36133   0.86940   0.00000  Uiso   1.00
H995   H     0.50487   0.41467   0.85749   0.00000  Uiso   1.00
H996   H     0.35017   0.52688   0.71484   0.00000  Uiso   1.00
H997   H     0.65132   0.47351   0.78505   0.00000  Uiso   1.00
H998   H     0.45565   0.66468   0.78136   0.00000  Uiso   1.00
H999   H     0.47364   0.49291   0.60191   0.00000  Uiso   1.00
H1000  H     0.58338   0.43017   0.96148   0.00000  Uiso   1.00
H1001  H     0.37614   0.54366   0.97810   0.00000  Uiso   1.00
H1002  H     0.51941   0.50188   0.90349   0.00000  Uiso   1.00
H1003  H     0.42849   0.49919   0.57363   0.00000  Uiso   1.00
O1004  O     0.50000   0.50000   0.75000   0.00000  Uiso   1.00
O1005  O     0.49027   0.45726   0.66625   0.00000  Uiso   1.00
O1006  O     0.46020   0.53979   0.83749   0.00000  Uiso   1.00
O1007  O     0.54421   0.50826   0.65877   0.00000  Uiso   1.00
O1008  O     0.50532   0.49468   0.83749   0.00000  Uiso   1.00
O1009  O     0.55258   0.34096   0.71361   0.00000  Uiso   1.00
O1010  O     0.53574   0.44248   0.91913   0.00000  Uiso   1.00
O1011  O     0.51182   0.41434   0.77821   0.00000  Uiso   1.00
O1012  O     0.47914   0.59469   0.76767   0.00000  Uiso   1.00
O1013  O     0.40785   0.46584   0.73607   0.00000  Uiso   1.00
O1014  O     0.60119   0.52512   0.71806   0.00000  Uiso   1.00
O1015  O     0.40323   0.52293   0.77820   0.00000  Uiso   1.00
O1016  O     0.58773   0.48610   0.76768   0.00000  Uiso   1.00
O1017  O     0.47133   0.40236   0.73607   0.00000  Uiso   1.00
O1018  O     0.53771   0.58860   0.71806   0.00000  Uiso   1.00
Zn1019 Zn    0.52577   0.47423   0.78278   0.00000  Uiso   1.00
Zn1020 Zn    0.46792   0.45711   0.72258   0.00000  Uiso   1.00
Zn1021 Zn    0.54500   0.52997   0.71188   0.00000  Uiso   1.00
Zn1022 Zn    0.46131   0.53868   0.78277   0.00000  Uiso   1.00
Br1023 Br    0.69557   0.53233   0.55490   0.00000  Uiso   1.00
Br1024 Br    0.94494   0.44222   0.60203   0.00000  Uiso   1.00
Br1025 Br    0.71627   0.55623   0.89897   0.00000  Uiso   1.00
C1026  C     0.71915   0.49327   0.75869   0.00000  Uiso   1.00
C1027  C     0.86200   0.45721   0.95861   0.00000  Uiso   1.00
C1028  C     0.88919   0.44630   0.97833   0.00000  Uiso   1.00
C1029  C     0.94775   0.50691   0.74117   0.00000  Uiso   1.00
C1030  C     0.88088   0.45503   0.51907   0.00000  Uiso   1.00
C1031  C     0.84267   0.47250   0.54145   0.00000  Uiso   1.00
C1032  C     0.91033   0.44580   0.53767   0.00000  Uiso   1.00
C1033  C     0.90263   0.45386   0.57845   0.00000  Uiso   1.00
C1034  C     0.83480   0.47906   0.58288   0.00000  Uiso   1.00
C1035  C     0.99374   0.50960   0.73754   0.00000  Uiso   1.00
C1036  C     0.67376   0.49085   0.76208   0.00000  Uiso   1.00
C1037  C     0.75487   0.53556   0.92176   0.00000  Uiso   1.00
C1038  C     0.84843   0.65571   0.73811   0.00000  Uiso   1.00
C1039  C     0.81824   0.34534   0.76156   0.00000  Uiso   1.00
C1040  C     0.82229   0.38949   0.75909   0.00000  Uiso   1.00
C1041  C     0.84364   0.61103   0.74133   0.00000  Uiso   1.00
C1042  C     0.85497   0.47860   0.64392   0.00000  Uiso   1.00
C1043  C     0.81106   0.52029   0.85642   0.00000  Uiso   1.00
C1044  C     0.79548   0.52270   0.90003   0.00000  Uiso   1.00
C1045  C     0.86434   0.46990   0.60112   0.00000  Uiso   1.00
C1046  C     0.74027   0.53277   0.96229   0.00000  Uiso   1.00
C1047  C     0.88203   0.33635   0.67472   0.00000  Uiso   1.00
C1048  C     0.82021   0.50735   0.91991   0.00000  Uiso   1.00
C1049  C     0.92678   0.34399   0.64626   0.00000  Uiso   1.00
C1050  C     0.84059   0.40571   0.91584   0.00000  Uiso   1.00
C1051  C     0.84626   0.39055   0.87240   0.00000  Uiso   1.00
C1052  C     0.80405   0.50056   0.96007   0.00000  Uiso   1.00
C1053  C     0.76430   0.51565   0.98186   0.00000  Uiso   1.00
C1054  C     0.82737   0.48102   0.97947   0.00000  Uiso   1.00
C1055  C     0.81486   0.48434   0.52151   0.00000  Uiso   1.00
C1056  C     0.77496   0.49925   0.54218   0.00000  Uiso   1.00
C1057  C     0.74954   0.51370   0.52281   0.00000  Uiso   1.00
H1058  H     0.93970   0.43277   0.52043   0.00000  Uiso   1.00
H1059  H     0.86181   0.35974   0.67186   0.00000  Uiso   1.00
H1060  H     0.86755   0.63780   0.66584   0.00000  Uiso   1.00
H1061  H     0.94688   0.65306   0.64730   0.00000  Uiso   1.00
H1062  H     0.92414   0.34263   0.61571   0.00000  Uiso   1.00
H1063  H     0.94272   0.37520   0.65454   0.00000  Uiso   1.00
H1064  H     0.80620   0.41150   0.92931   0.00000  Uiso   1.00
H1065  H     0.84788   0.38062   0.93032   0.00000  Uiso   1.00
H1066  H     0.88021   0.38429   0.85792   0.00000  Uiso   1.00
H1067  H     0.82441   0.36133   0.86940   0.00000  Uiso   1.00
H1068  H     0.83821   0.41467   0.85749   0.00000  Uiso   1.00
H1069  H     0.68350   0.52688   0.71484   0.00000  Uiso   1.00
H1070  H     0.98465   0.47351   0.78505   0.00000  Uiso   1.00
H1071  H     0.78899   0.66468   0.78136   0.00000  Uiso   1.00
H1072  H     0.80697   0.49291   0.60191   0.00000  Uiso   1.00
H1073  H     0.91672   0.43017   0.96148   0.00000  Uiso   1.00
H1074  H     0.70947   0.54366   0.97810   0.00000  Uiso   1.00
H1075  H     0.85274   0.50188   0.90349   0.00000  Uiso   1.00
H1076  H     0.76182   0.49919   0.57363   0.00000  Uiso   1.00
O1077  O     0.83333   0.50000   0.75000   0.00000  Uiso   1.00
O1078  O     0.82360   0.45726   0.66625   0.00000  Uiso   1.00
O1079  O     0.79354   0.53979   0.83749   0.00000  Uiso   1.00
O1080  O     0.87755   0.50826   0.65877   0.00000  Uiso   1.00
O1081  O     0.83865   0.49468   0.83749   0.00000  Uiso   1.00
O1082  O     0.88592   0.34096   0.71361   0.00000  Uiso   1.00
O1083  O     0.86907   0.44248   0.91913   0.00000  Uiso   1.00
O1084  O     0.84515   0.41434   0.77821   0.00000  Uiso   1.00
O1085  O     0.81247   0.59469   0.76767   0.00000  Uiso   1.00
O1086  O     0.74119   0.46584   0.73607   0.00000  Uiso   1.00
O1087  O     0.93452   0.52512   0.71806   0.00000  Uiso   1.00
O1088  O     0.73656   0.52293   0.77820   0.00000  Uiso   1.00
O1089  O     0.92106   0.48610   0.76768   0.00000  Uiso   1.00
O1090  O     0.80467   0.40236   0.73607   0.00000  Uiso   1.00
O1091  O     0.87104   0.58860   0.71806   0.00000  Uiso   1.00
Zn1092 Zn    0.85910   0.47423   0.78278   0.00000  Uiso   1.00
Zn1093 Zn    0.80125   0.45711   0.72258   0.00000  Uiso   1.00
Zn1094 Zn    0.87833   0.52997   0.71188   0.00000  Uiso   1.00
Zn1095 Zn    0.79465   0.53868   0.78277   0.00000  Uiso   1.00
Br1096 Br    0.02891   0.86566   0.55490   0.00000  Uiso   1.00
Br1097 Br    0.27827   0.77556   0.60203   0.00000  Uiso   1.00
Br1098 Br    0.04960   0.88957   0.89897   0.00000  Uiso   1.00
C1099  C     0.05248   0.82660   0.75869   0.00000  Uiso   1.00
C1100  C     0.19533   0.79054   0.95861   0.00000  Uiso   1.00
C1101  C     0.22252   0.77963   0.97833   0.00000  Uiso   1.00
C1102  C     0.28108   0.84024   0.74117   0.00000  Uiso   1.00
C1103  C     0.21421   0.78836   0.51907   0.00000  Uiso   1.00
C1104  C     0.17600   0.80584   0.54145   0.00000  Uiso   1.00
C1105  C     0.24367   0.77913   0.53767   0.00000  Uiso   1.00
C1106  C     0.23596   0.78720   0.57845   0.00000  Uiso   1.00
C1107  C     0.16814   0.81239   0.58288   0.00000  Uiso   1.00
C1108  C     0.32708   0.84293   0.73754   0.00000  Uiso   1.00
C1109  C     0.00710   0.82418   0.76208   0.00000  Uiso   1.00
C1110  C     0.08820   0.86890   0.92176   0.00000  Uiso   1.00
C1111  C     0.18176   0.98904   0.73811   0.00000  Uiso   1.00
C1112  C     0.15157   0.67868   0.76156   0.00000  Uiso   1.00
C1113  C     0.15562   0.72282   0.75909   0.00000  Uiso   1.00
C1114  C     0.17698   0.94437   0.74133   0.00000  Uiso   1.00
C1115  C     0.18830   0.81193   0.64392   0.00000  Uiso   1.00
C1116  C     0.14440   0.85363   0.85642   0.00000  Uiso   1.00
C1117  C     0.12882   0.85604   0.90003   0.00000  Uiso   1.00
C1118  C     0.19767   0.80323   0.60112   0.00000  Uiso   1.00
C1119  C     0.07360   0.86610   0.96229   0.00000  Uiso   1.00
C1120  C     0.21536   0.66968   0.67472   0.00000  Uiso   1.00
C1121  C     0.15354   0.84069   0.91991   0.00000  Uiso   1.00
C1122  C     0.26011   0.67733   0.64626   0.00000  Uiso   1.00
C1123  C     0.17392   0.73904   0.91584   0.00000  Uiso   1.00
C1124  C     0.17960   0.72388   0.87240   0.00000  Uiso   1.00
C1125  C     0.13738   0.83389   0.96007   0.00000  Uiso   1.00
C1126  C     0.09763   0.84899   0.98186   0.00000  Uiso   1.00
C1127  C     0.16070   0.81436   0.97947   0.00000  Uiso   1.00
C1128  C     0.14819   0.81767   0.52151   0.00000  Uiso   1.00
C1129  C     0.10830   0.83258   0.54218   0.00000  Uiso   1.00
C1130  C     0.08287   0.84703   0.52281   0.00000  Uiso   1.00
H1131  H     0.27303   0.76610   0.52043   0.00000  Uiso   1.00
H1132  H     0.19514   0.69307   0.67186   0.00000  Uiso   1.00
H1133  H     0.20088   0.97113   0.66584   0.00000  Uiso   1.00
H1134  H     0.28021   0.98639   0.64730   0.00000  Uiso   1.00
H1135  H     0.25747   0.67596   0.61571   0.00000  Uiso   1.00
H1136  H     0.27605   0.70853   0.65454   0.00000  Uiso   1.00
H1137  H     0.13954   0.74484   0.92931   0.00000  Uiso   1.00
H1138  H     0.18121   0.71395   0.93032   0.00000  Uiso   1.00
H1139  H     0.21354   0.71762   0.85792   0.00000  Uiso   1.00
H1140  H     0.15775   0.69466   0.86940   0.00000  Uiso   1.00
H1141  H     0.17154   0.74800   0.85749   0.00000  Uiso   1.00
H1142  H     0.01683   0.86021   0.71484   0.00000  Uiso   1.00
H1143  H     0.31798   0.80684   0.78505   0.00000  Uiso   1.00
H1144  H     0.12232   0.99802   0.78136   0.00000  Uiso   1.00
H1145  H     0.14030   0.82624   0.60191   0.00000  Uiso   1.00
H1146  H     0.25005   0.76350   0.96148   0.00000  Uiso   1.00
H1147  H     0.04280   0.87699   0.97810   0.00000  Uiso   1.00
H1148  H     0.18608   0.83522   0.90349   0.00000  Uiso   1.00
H1149  H     0.09515   0.83253   0.57363   0.00000  Uiso   1.00
O1150  O     0.16667   0.83333   0.75000   0.00000  Uiso   1.00
O1151  O     0.15693   0.79060   0.66625   0.00000  Uiso   1.00
O1152  O     0.12687   0.87313   0.83749   0.00000  Uiso   1.00
O1153  O     0.21088   0.84159   0.65877   0.00000  Uiso   1.00
O1154  O     0.17198   0.82802   0.83749   0.00000  Uiso   1.00
O1155  O     0.21925   0.67429   0.71361   0.00000  Uiso   1.00
O1156  O     0.20241   0.77581   0.91913   0.00000  Uiso   1.00
O1157  O     0.17849   0.74768   0.77821   0.00000  Uiso   1.00
O1158  O     0.14581   0.92803   0.76767   0.00000  Uiso   1.00
O1159  O     0.07452   0.79917   0.73607   0.00000  Uiso   1.00
O1160  O     0.26785   0.85845   0.71806   0.00000  Uiso   1.00
O1161  O     0.06990   0.85627   0.77820   0.00000  Uiso   1.00
O1162  O     0.25440   0.81944   0.76768   0.00000  Uiso   1.00
O1163  O     0.13800   0.73570   0.73607   0.00000  Uiso   1.00
O1164  O     0.20437   0.92193   0.71806   0.00000  Uiso   1.00
Zn1165 Zn    0.19244   0.80756   0.78278   0.00000  Uiso   1.00
Zn1166 Zn    0.13459   0.79044   0.72258   0.00000  Uiso   1.00
Zn1167 Zn    0.21166   0.86331   0.71188   0.00000  Uiso   1.00
Zn1168 Zn    0.12798   0.87202   0.78277   0.00000  Uiso   1.00
Br1169 Br    0.36224   0.86566   0.55490   0.00000  Uiso   1.00
Br1170 Br    0.61160   0.77556   0.60203   0.00000  Uiso   1.00
Br1171 Br    0.38293   0.88957   0.89897   0.00000  Uiso   1.00
C1172  C     0.38581   0.82660   0.75869   0.00000  Uiso   1.00
C1173  C     0.52867   0.79054   0.95861   0.00000  Uiso   1.00
C1174  C     0.55586   0.77963   0.97833   0.00000  Uiso   1.00
C1175  C     0.61441   0.84024   0.74117   0.00000  Uiso   1.00
C1176  C     0.54754   0.78836   0.51907   0.00000  Uiso   1.00
C1177  C     0.50934   0.80584   0.54145   0.00000  Uiso   1.00
C1178  C     0.57700   0.77913   0.53767   0.00000  Uiso   1.00
C1179  C     0.56929   0.78720   0.57845   0.00000  Uiso   1.00
C1180  C     0.50147   0.81239   0.58288   0.00000  Uiso   1.00
C1181  C     0.66041   0.84293   0.73754   0.00000  Uiso   1.00
C1182  C     0.34043   0.82418   0.76208   0.00000  Uiso   1.00
C1183  C     0.42153   0.86890   0.92176   0.00000  Uiso   1.00
C1184  C     0.51509   0.98904   0.73811   0.00000  Uiso   1.00
C1185  C     0.48491   0.67868   0.76156   0.00000  Uiso   1.00
C1186  C     0.48895   0.72282   0.75909   0.00000  Uiso   1.00
C1187  C     0.51031   0.94437   0.74133   0.00000  Uiso   1.00
C1188  C     0.52164   0.81193   0.64392   0.00000  Uiso   1.00
C1189  C     0.47773   0.85363   0.85642   0.00000  Uiso   1.00
C1190  C     0.46215   0.85604   0.90003   0.00000  Uiso   1.00
C1191  C     0.53101   0.80323   0.60112   0.00000  Uiso   1.00
C1192  C     0.40694   0.86610   0.96229   0.00000  Uiso   1.00
C1193  C     0.54870   0.66968   0.67472   0.00000  Uiso   1.00
C1194  C     0.48688   0.84069   0.91991   0.00000  Uiso   1.00
C1195  C     0.59344   0.67733   0.64626   0.00000  Uiso   1.00
C1196  C     0.50725   0.73904   0.91584   0.00000  Uiso   1.00
C1197  C     0.51293   0.72388   0.87240   0.00000  Uiso   1.00
C1198  C     0.47071   0.83389   0.96007   0.00000  Uiso   1.00
C1199  C     0.43096   0.84899   0.98186   0.00000  Uiso   1.00
C1200  C     0.49403   0.81436   0.97947   0.00000  Uiso   1.00
C1201  C     0.48152   0.81767   0.52151   0.00000  Uiso   1.00
C1202  C     0.44163   0.83258   0.54218   0.00000  Uiso   1.00
C1203  C     0.41620   0.84703   0.52281   0.00000  Uiso   1.00
H1204  H     0.60636   0.76610   0.52043   0.00000  Uiso   1.00
H1205  H     0.52847   0.69307   0.67186   0.00000  Uiso   1.00
H1206  H     0.53422   0.97113   0.66584   0.00000  Uiso   1.00
H1207  H     0.61355   0.98639   0.64730   0.00000  Uiso   1.00
H1208  H     0.59080   0.67596   0.61571   0.00000  Uiso   1.00
H1209  H     0.60939   0.70853   0.65454   0.00000  Uiso   1.00
H1210  H     0.47287   0.74484   0.92931   0.00000  Uiso   1.00
H1211  H     0.51455   0.71395   0.93032   0.00000  Uiso   1.00
H1212  H     0.54687   0.71762   0.85792   0.00000  Uiso   1.00
H1213  H     0.49108   0.69466   0.86940   0.00000  Uiso   1.00
H1214  H     0.50487   0.74800   0.85749   0.00000  Uiso   1.00
H1215  H     0.35017   0.86021   0.71484   0.00000  Uiso   1.00
H1216  H     0.65132   0.80684   0.78505   0.00000  Uiso   1.00
H1217  H     0.45565   0.99802   0.78136   0.00000  Uiso   1.00
H1218  H     0.47364   0.82624   0.60191   0.00000  Uiso   1.00
H1219  H     0.58338   0.76350   0.96148   0.00000  Uiso   1.00
H1220  H     0.37614   0.87699   0.97810   0.00000  Uiso   1.00
H1221  H     0.51941   0.83522   0.90349   0.00000  Uiso   1.00
H1222  H     0.42849   0.83253   0.57363   0.00000  Uiso   1.00
O1223  O     0.50000   0.83333   0.75000   0.00000  Uiso   1.00
O1224  O     0.49027   0.79060   0.66625   0.00000  Uiso   1.00
O1225  O     0.46020   0.87313   0.83749   0.00000  Uiso   1.00
O1226  O     0.54421   0.84159   0.65877   0.00000  Uiso   1.00
O1227  O     0.50532   0.82802   0.83749   0.00000  Uiso   1.00
O1228  O     0.55258   0.67429   0.71361   0.00000  Uiso   1.00
O1229  O     0.53574   0.77581   0.91913   0.00000  Uiso   1.00
O1230  O     0.51182   0.74768   0.77821   0.00000  Uiso   1.00
O1231  O     0.47914   0.92803   0.76767   0.00000  Uiso   1.00
O1232  O     0.40785   0.79917   0.73607   0.00000  Uiso   1.00
O1233  O     0.60119   0.85845   0.71806   0.00000  Uiso   1.00
O1234  O     0.40323   0.85627   0.77820   0.00000  Uiso   1.00
O1235  O     0.58773   0.81944   0.76768   0.00000  Uiso   1.00
O1236  O     0.47133   0.73570   0.73607   0.00000  Uiso   1.00
O1237  O     0.53771   0.92193   0.71806   0.00000  Uiso   1.00
Zn1238 Zn    0.52577   0.80756   0.78278   0.00000  Uiso   1.00
Zn1239 Zn    0.46792   0.79044   0.72258   0.00000  Uiso   1.00
Zn1240 Zn    0.54500   0.86331   0.71188   0.00000  Uiso   1.00
Zn1241 Zn    0.46131   0.87202   0.78277   0.00000  Uiso   1.00
Br1242 Br    0.69557   0.86566   0.55490   0.00000  Uiso   1.00
Br1243 Br    0.94494   0.77556   0.60203   0.00000  Uiso   1.00
Br1244 Br    0.71627   0.88957   0.89897   0.00000  Uiso   1.00
C1245  C     0.71915   0.82660   0.75869   0.00000  Uiso   1.00
C1246  C     0.86200   0.79054   0.95861   0.00000  Uiso   1.00
C1247  C     0.88919   0.77963   0.97833   0.00000  Uiso   1.00
C1248  C     0.94775   0.84024   0.74117   0.00000  Uiso   1.00
C1249  C     0.88088   0.78836   0.51907   0.00000  Uiso   1.00
C1250  C     0.84267   0.80584   0.54145   0.00000  Uiso   1.00
C1251  C     0.91033   0.77913   0.53767   0.00000  Uiso   1.00
C1252  C     0.90263   0.78720   0.57845   0.00000  Uiso   1.00
C1253  C     0.83480   0.81239   0.58288   0.00000  Uiso   1.00
C1254  C     0.99374   0.84293   0.73754   0.00000  Uiso   1.00
C1255  C     0.67376   0.82418   0.76208   0.00000  Uiso   1.00
C1256  C     0.75487   0.86890   0.92176   0.00000  Uiso   1.00
C1257  C     0.84843   0.98904   0.73811   0.00000  Uiso   1.00
C1258  C     0.81824   0.67868   0.76156   0.00000  Uiso   1.00
C1259  C     0.82229   0.72282   0.75909   0.00000  Uiso   1.00
C1260  C     0.84364   0.94437   0.74133   0.00000  Uiso   1.00
C1261  C     0.85497   0.81193   0.64392   0.00000  Uiso   1.00
C1262  C     0.81106   0.85363   0.85642   0.00000  Uiso   1.00
C1263  C     0.79548   0.85604   0.90003   0.00000  Uiso   1.00
C1264  C     0.86434   0.80323   0.60112   0.00000  Uiso   1.00
C1265  C     0.74027   0.86610   0.96229   0.00000  Uiso   1.00
C1266  C     0.88203   0.66968   0.67472   0.00000  Uiso   1.00
C1267  C     0.82021   0.84069   0.91991   0.00000  Uiso   1.00
C1268  C     0.92678   0.67733   0.64626   0.00000  Uiso   1.00
C1269  C     0.84059   0.73904   0.91584   0.00000  Uiso   1.00
C1270  C     0.84626   0.72388   0.87240   0.00000  Uiso   1.00
C1271  C     0.80405   0.83389   0.96007   0.00000  Uiso   1.00
C1272  C     0.76430   0.84899   0.98186   0.00000  Uiso   1.00
C1273  C     0.82737   0.81436   0.97947   0.00000  Uiso   1.00
C1274  C     0.81486   0.81767   0.52151   0.00000  Uiso   1.00
C1275  C     0.77496   0.83258   0.54218   0.00000  Uiso   1.00
C1276  C     0.74954   0.84703   0.52281   0.00000  Uiso   1.00
H1277  H     0.93970   0.76610   0.52043   0.00000  Uiso   1.00
H1278  H     0.86181   0.69307   0.67186   0.00000  Uiso   1.00
H1279  H     0.86755   0.97113   0.66584   0.00000  Uiso   1.00
H1280  H     0.94688   0.98639   0.64730   0.00000  Uiso   1.00
H1281  H     0.92414   0.67596   0.61571   0.00000  Uiso   1.00
H1282  H     0.94272   0.70853   0.65454   0.00000  Uiso   1.00
H1283  H     0.80620   0.74484   0.92931   0.00000  Uiso   1.00
H1284  H     0.84788   0.71395   0.93032   0.00000  Uiso   1.00
H1285  H     0.88021   0.71762   0.85792   0.00000  Uiso   1.00
H1286  H     0.82441   0.69466   0.86940   0.00000  Uiso   1.00
H1287  H     0.83821   0.74800   0.85749   0.00000  Uiso   1.00
H1288  H     0.68350   0.86021   0.71484   0.00000  Uiso   1.00
H1289  H     0.98465   0.80684   0.78505   0.00000  Uiso   1.00
H1290  H     0.78899   0.99802   0.78136   0.00000  Uiso   1.00
H1291  H     0.80697   0.82624   0.60191   0.00000  Uiso   1.00
H1292  H     0.91672   0.76350   0.96148   0.00000  Uiso   1.00
H1293  H     0.70947   0.87699   0.97810   0.00000  Uiso   1.00
H1294  H     0.85274   0.83522   0.90349   0.00000  Uiso   1.00
H1295  H     0.76182   0.83253   0.57363   0.00000  Uiso   1.00
O1296  O     0.83333   0.83333   0.75000   0.00000  Uiso   1.00
O1297  O     0.82360   0.79060   0.66625   0.00000  Uiso   1.00
O1298  O     0.79354   0.87313   0.83749   0.00000  Uiso   1.00
O1299  O     0.87755   0.84159   0.65877   0.00000  Uiso   1.00
O1300  O     0.83865   0.82802   0.83749   0.00000  Uiso   1.00
O1301  O     0.88592   0.67429   0.71361   0.00000  Uiso   1.00
O1302  O     0.86907   0.77581   0.91913   0.00000  Uiso   1.00
O1303  O     0.84515   0.74768   0.77821   0.00000  Uiso   1.00
O1304  O     0.81247   0.92803   0.76767   0.00000  Uiso   1.00
O1305  O     0.74119   0.79917   0.73607   0.00000  Uiso   1.00
O1306  O     0.93452   0.85845   0.71806   0.00000  Uiso   1.00
O1307  O     0.73656   0.85627   0.77820   0.00000  Uiso   1.00
O1308  O     0.92106   0.81944   0.76768   0.00000  Uiso   1.00
O1309  O     0.80467   0.73570   0.73607   0.00000  Uiso   1.00
O1310  O     0.87104   0.92193   0.71806   0.00000  Uiso   1.00
Zn1311 Zn    0.85910   0.80756   0.78278   0.00000  Uiso   1.00
Zn1312 Zn    0.80125   0.79044   0.72258   0.00000  Uiso   1.00
Zn1313 Zn    0.87833   0.86331   0.71188   0.00000  Uiso   1.00
Zn1314 Zn    0.79465   0.87202   0.78277   0.00000  Uiso   1.00
loop_
_geom_bond_atom_site_label_1
_geom_bond_atom_site_label_2
_geom_bond_distance
_geom_bond_site_symmetry_2
_ccdc_geom_bond_type
Br1    C35     1.926   .     S
Br2    C11     1.917   .     S
Br3    C15     1.925   .     S
C4     O64     1.269   .     A
C4     C14     1.438   .     S
C4     O66     1.269   .     A
C5     O61     1.382   .     S
C5     C6      1.391   .     A
C5     C32     1.426   .     A
C6     H51     1.085   .     S
C6     C665    1.391   .     S
C7     O65     1.281   .     A
C7     C13     1.455   .     S
C7     O67     1.277   .     A
C8     C10     1.402   .     A
C8     C9      1.418   .     A
C8     C663    1.391   1_554 S
C9     C33     1.426   .     A
C9     C12     1.412   .     A
C10    H36     1.084   .     S
C10    C11     1.392   .     A
C11    C23     1.402   .     A
C12    H50     1.077   .     S
C12    C23     1.395   .     A
C13    C87     1.335   .     S
C13    H120    1.088   .     S
C14    C159    1.335   1_455 S
C14    H194    1.086   1_455 S
C15    C24     1.393   .     A
C15    C22     1.414   .     A
C16    C19     1.457   .     S
C16    C236    1.336   .     S
C16    O279    1.387   .     S
C17    C18     1.436   .     S
C17    C454    1.336   1_545 S
C17    H487    1.086   1_545 S
C18    O62     1.276   .     A
C18    O68     1.275   .     A
C19    O63     1.271   .     A
C19    O69     1.268   .     A
C20    C23     1.458   .     S
C20    O56     1.276   .     A
C20    O58     1.272   .     A
C21    O57     1.281   .     A
C21    O59     1.291   .     A
C21    C22     1.480   .     S
C22    C26     1.399   .     A
C24    H52     1.081   .     S
C24    C31     1.405   .     A
C25    O60     1.413   .     S
C25    C27     1.520   .     S
C25    H37     1.112   .     S
C25    H476    1.116   1_545 S
C26    H53     1.077   .     S
C26    C30     1.409   .     A
C27    H40     1.111   .     S
C27    H41     1.110   .     S
C27    H477    1.111   1_545 S
C28    H43     1.114   .     S
C28    O61     1.412   .     S
C28    H42     1.115   .     S
C28    C29     1.521   .     S
C29    H45     1.111   .     S
C29    H46     1.110   .     S
C29    H44     1.111   .     S
C30    C32     1.428   .     A
C30    C31     1.419   .     A
C31    C692    1.403   .     S
C32    C690    1.425   .     S
C33    C34     1.412   .     A
C33    C689    1.425   1_554 S
C34    C35     1.389   .     A
C34    H54     1.076   .     S
C35    C688    1.403   1_554 S
H38    C244    1.116   .     S
H39    C246    1.111   .     S
H47    C159    1.088   1_455 S
H48    C87     1.086   .     S
H49    C236    1.086   .     S
O55    Zn72    1.930   .     S
O55    Zn70    1.960   .     S
O55    Zn73    1.932   .     S
O55    Zn71    1.939   .     S
O56    Zn71    1.924   .     S
O57    Zn73    1.934   .     S
O58    Zn72    1.928   .     S
O59    Zn70    1.920   .     S
O60    C454    1.387   1_545 S
O62    Zn70    1.928   .     S
O63    Zn73    1.932   .     S
O64    Zn71    1.928   .     S
O65    Zn72    1.938   .     S
O66    Zn73    1.931   .     S
O67    Zn70    1.923   .     S
O68    Zn71    1.939   .     S
O69    Zn72    1.932   .     S
Br74   C108    1.926   .     S
Br75   C84     1.917   .     S
Br76   C88     1.925   .     S
C77    O137    1.269   .     A
C77    C87     1.438   .     S
C77    O139    1.269   .     A
C78    O134    1.382   .     S
C78    C79     1.391   .     A
C78    C105    1.426   .     A
C79    H124    1.085   .     S
C79    C738    1.391   .     S
C80    O138    1.281   .     A
C80    C86     1.455   .     S
C80    O140    1.277   .     A
C81    C83     1.402   .     A
C81    C82     1.418   .     A
C81    C736    1.391   1_554 S
C82    C106    1.426   .     A
C82    C85     1.412   .     A
C83    H109    1.084   .     S
C83    C84     1.392   .     A
C84    C96     1.402   .     A
C85    H123    1.077   .     S
C85    C96     1.395   .     A
C86    C160    1.335   .     S
C86    H193    1.088   .     S
C88    C97     1.393   .     A
C88    C95     1.414   .     A
C89    C92     1.457   .     S
C89    C309    1.336   .     S
C89    O352    1.387   .     S
C90    C91     1.436   .     S
C90    C527    1.336   1_545 S
C90    H560    1.086   1_545 S
C91    O135    1.276   .     A
C91    O141    1.275   .     A
C92    O136    1.271   .     A
C92    O142    1.268   .     A
C93    C96     1.458   .     S
C93    O129    1.276   .     A
C93    O131    1.272   .     A
C94    O130    1.281   .     A
C94    O132    1.291   .     A
C94    C95     1.480   .     S
C95    C99     1.399   .     A
C97    H125    1.081   .     S
C97    C104    1.405   .     A
C98    O133    1.413   .     S
C98    C100    1.520   .     S
C98    H110    1.112   .     S
C98    H549    1.116   1_545 S
C99    H126    1.077   .     S
C99    C103    1.409   .     A
C100   H113    1.111   .     S
C100   H114    1.110   .     S
C100   H550    1.111   1_545 S
C101   H116    1.114   .     S
C101   O134    1.412   .     S
C101   H115    1.115   .     S
C101   C102    1.521   .     S
C102   H118    1.111   .     S
C102   H119    1.110   .     S
C102   H117    1.111   .     S
C103   C105    1.428   .     A
C103   C104    1.419   .     A
C104   C765    1.403   .     S
C105   C763    1.425   .     S
C106   C107    1.412   .     A
C106   C762    1.425   1_554 S
C107   C108    1.389   .     A
C107   H127    1.076   .     S
C108   C761    1.403   1_554 S
H111   C317    1.116   .     S
H112   C319    1.111   .     S
H121   C160    1.086   .     S
H122   C309    1.086   .     S
O128   Zn145   1.930   .     S
O128   Zn143   1.960   .     S
O128   Zn146   1.932   .     S
O128   Zn144   1.939   .     S
O129   Zn144   1.924   .     S
O130   Zn146   1.934   .     S
O131   Zn145   1.928   .     S
O132   Zn143   1.920   .     S
O133   C527    1.387   1_545 S
O135   Zn143   1.928   .     S
O136   Zn146   1.932   .     S
O137   Zn144   1.928   .     S
O138   Zn145   1.938   .     S
O139   Zn146   1.931   .     S
O140   Zn143   1.923   .     S
O141   Zn144   1.939   .     S
O142   Zn145   1.932   .     S
Br147  C181    1.926   .     S
Br148  C157    1.917   .     S
Br149  C161    1.925   .     S
C150   O210    1.269   .     A
C150   C160    1.438   .     S
C150   O212    1.269   .     A
C151   O207    1.382   .     S
C151   C152    1.391   .     A
C151   C178    1.426   .     A
C152   H197    1.085   .     S
C152   C811    1.391   .     S
C153   O211    1.281   .     A
C153   C159    1.455   .     S
C153   O213    1.277   .     A
C154   C156    1.402   .     A
C154   C155    1.418   .     A
C154   C809    1.391   1_554 S
C155   C179    1.426   .     A
C155   C158    1.412   .     A
C156   H182    1.084   .     S
C156   C157    1.392   .     A
C157   C169    1.402   .     A
C158   H196    1.077   .     S
C158   C169    1.395   .     A
C159   C14     1.335   1_655 S
C159   H47     1.088   1_655 S
C161   C170    1.393   .     A
C161   C168    1.414   .     A
C162   C165    1.457   .     S
C162   C382    1.336   .     S
C162   O425    1.387   .     S
C163   C164    1.436   .     S
C163   C600    1.336   1_545 S
C163   H633    1.086   1_545 S
C164   O208    1.276   .     A
C164   O214    1.275   .     A
C165   O209    1.271   .     A
C165   O215    1.268   .     A
C166   C169    1.458   .     S
C166   O202    1.276   .     A
C166   O204    1.272   .     A
C167   O203    1.281   .     A
C167   O205    1.291   .     A
C167   C168    1.480   .     S
C168   C172    1.399   .     A
C170   H198    1.081   .     S
C170   C177    1.405   .     A
C171   O206    1.413   .     S
C171   C173    1.520   .     S
C171   H183    1.112   .     S
C171   H622    1.116   1_545 S
C172   H199    1.077   .     S
C172   C176    1.409   .     A
C173   H186    1.111   .     S
C173   H187    1.110   .     S
C173   H623    1.111   1_545 S
C174   H189    1.114   .     S
C174   O207    1.412   .     S
C174   H188    1.115   .     S
C174   C175    1.521   .     S
C175   H191    1.111   .     S
C175   H192    1.110   .     S
C175   H190    1.111   .     S
C176   C178    1.428   .     A
C176   C177    1.419   .     A
C177   C838    1.403   .     S
C178   C836    1.425   .     S
C179   C180    1.412   .     A
C179   C835    1.425   1_554 S
C180   C181    1.389   .     A
C180   H200    1.076   .     S
C181   C834    1.403   1_554 S
H184   C390    1.116   .     S
H185   C392    1.111   .     S
H194   C14     1.086   1_655 S
H195   C382    1.086   .     S
O201   Zn218   1.930   .     S
O201   Zn216   1.960   .     S
O201   Zn219   1.932   .     S
O201   Zn217   1.939   .     S
O202   Zn217   1.924   .     S
O203   Zn219   1.934   .     S
O204   Zn218   1.928   .     S
O205   Zn216   1.920   .     S
O206   C600    1.387   1_545 S
O208   Zn216   1.928   .     S
O209   Zn219   1.932   .     S
O210   Zn217   1.928   .     S
O211   Zn218   1.938   .     S
O212   Zn219   1.931   .     S
O213   Zn216   1.923   .     S
O214   Zn217   1.939   .     S
O215   Zn218   1.932   .     S
Br220  C254    1.926   .     S
Br221  C230    1.917   .     S
Br222  C234    1.925   .     S
C223   O283    1.269   .     A
C223   C233    1.438   .     S
C223   O285    1.269   .     A
C224   O280    1.382   .     S
C224   C225    1.391   .     A
C224   C251    1.426   .     A
C225   H270    1.085   .     S
C225   C884    1.391   .     S
C226   O284    1.281   .     A
C226   C232    1.455   .     S
C226   O286    1.277   .     A
C227   C229    1.402   .     A
C227   C228    1.418   .     A
C227   C882    1.391   1_554 S
C228   C252    1.426   .     A
C228   C231    1.412   .     A
C229   H255    1.084   .     S
C229   C230    1.392   .     A
C230   C242    1.402   .     A
C231   H269    1.077   .     S
C231   C242    1.395   .     A
C232   C306    1.335   .     S
C232   H339    1.088   .     S
C233   C378    1.335   1_455 S
C233   H413    1.086   1_455 S
C234   C243    1.393   .     A
C234   C241    1.414   .     A
C235   C238    1.457   .     S
C235   C455    1.336   .     S
C235   O498    1.387   .     S
C236   C237    1.436   .     S
C237   O281    1.276   .     A
C237   O287    1.275   .     A
C238   O282    1.271   .     A
C238   O288    1.268   .     A
C239   C242    1.458   .     S
C239   O275    1.276   .     A
C239   O277    1.272   .     A
C240   O276    1.281   .     A
C240   O278    1.291   .     A
C240   C241    1.480   .     S
C241   C245    1.399   .     A
C243   H271    1.081   .     S
C243   C250    1.405   .     A
C244   O279    1.413   .     S
C244   C246    1.520   .     S
C244   H256    1.112   .     S
C245   H272    1.077   .     S
C245   C249    1.409   .     A
C246   H259    1.111   .     S
C246   H260    1.110   .     S
C247   H262    1.114   .     S
C247   O280    1.412   .     S
C247   H261    1.115   .     S
C247   C248    1.521   .     S
C248   H264    1.111   .     S
C248   H265    1.110   .     S
C248   H263    1.111   .     S
C249   C251    1.428   .     A
C249   C250    1.419   .     A
C250   C911    1.403   .     S
C251   C909    1.425   .     S
C252   C253    1.412   .     A
C252   C908    1.425   1_554 S
C253   C254    1.389   .     A
C253   H273    1.076   .     S
C254   C907    1.403   1_554 S
H257   C463    1.116   .     S
H258   C465    1.111   .     S
H266   C378    1.088   1_455 S
H267   C306    1.086   .     S
H268   C455    1.086   .     S
O274   Zn291   1.930   .     S
O274   Zn289   1.960   .     S
O274   Zn292   1.932   .     S
O274   Zn290   1.939   .     S
O275   Zn290   1.924   .     S
O276   Zn292   1.934   .     S
O277   Zn291   1.928   .     S
O278   Zn289   1.920   .     S
O281   Zn289   1.928   .     S
O282   Zn292   1.932   .     S
O283   Zn290   1.928   .     S
O284   Zn291   1.938   .     S
O285   Zn292   1.931   .     S
O286   Zn289   1.923   .     S
O287   Zn290   1.939   .     S
O288   Zn291   1.932   .     S
Br293  C327    1.926   .     S
Br294  C303    1.917   .     S
Br295  C307    1.925   .     S
C296   O356    1.269   .     A
C296   C306    1.438   .     S
C296   O358    1.269   .     A
C297   O353    1.382   .     S
C297   C298    1.391   .     A
C297   C324    1.426   .     A
C298   H343    1.085   .     S
C298   C957    1.391   .     S
C299   O357    1.281   .     A
C299   C305    1.455   .     S
C299   O359    1.277   .     A
C300   C302    1.402   .     A
C300   C301    1.418   .     A
C300   C955    1.391   1_554 S
C301   C325    1.426   .     A
C301   C304    1.412   .     A
C302   H328    1.084   .     S
C302   C303    1.392   .     A
C303   C315    1.402   .     A
C304   H342    1.077   .     S
C304   C315    1.395   .     A
C305   C379    1.335   .     S
C305   H412    1.088   .     S
C307   C316    1.393   .     A
C307   C314    1.414   .     A
C308   C311    1.457   .     S
C308   C528    1.336   .     S
C308   O571    1.387   .     S
C309   C310    1.436   .     S
C310   O354    1.276   .     A
C310   O360    1.275   .     A
C311   O355    1.271   .     A
C311   O361    1.268   .     A
C312   C315    1.458   .     S
C312   O348    1.276   .     A
C312   O350    1.272   .     A
C313   O349    1.281   .     A
C313   O351    1.291   .     A
C313   C314    1.480   .     S
C314   C318    1.399   .     A
C316   H344    1.081   .     S
C316   C323    1.405   .     A
C317   O352    1.413   .     S
C317   C319    1.520   .     S
C317   H329    1.112   .     S
C318   H345    1.077   .     S
C318   C322    1.409   .     A
C319   H332    1.111   .     S
C319   H333    1.110   .     S
C320   H335    1.114   .     S
C320   O353    1.412   .     S
C320   H334    1.115   .     S
C320   C321    1.521   .     S
C321   H337    1.111   .     S
C321   H338    1.110   .     S
C321   H336    1.111   .     S
C322   C324    1.428   .     A
C322   C323    1.419   .     A
C323   C984    1.403   .     S
C324   C982    1.425   .     S
C325   C326    1.412   .     A
C325   C981    1.425   1_554 S
C326   C327    1.389   .     A
C326   H346    1.076   .     S
C327   C980    1.403   1_554 S
H330   C536    1.116   .     S
H331   C538    1.111   .     S
H340   C379    1.086   .     S
H341   C528    1.086   .     S
O347   Zn364   1.930   .     S
O347   Zn362   1.960   .     S
O347   Zn365   1.932   .     S
O347   Zn363   1.939   .     S
O348   Zn363   1.924   .     S
O349   Zn365   1.934   .     S
O350   Zn364   1.928   .     S
O351   Zn362   1.920   .     S
O354   Zn362   1.928   .     S
O355   Zn365   1.932   .     S
O356   Zn363   1.928   .     S
O357   Zn364   1.938   .     S
O358   Zn365   1.931   .     S
O359   Zn362   1.923   .     S
O360   Zn363   1.939   .     S
O361   Zn364   1.932   .     S
Br366  C400    1.926   .     S
Br367  C376    1.917   .     S
Br368  C380    1.925   .     S
C369   O429    1.269   .     A
C369   C379    1.438   .     S
C369   O431    1.269   .     A
C370   O426    1.382   .     S
C370   C371    1.391   .     A
C370   C397    1.426   .     A
C371   H416    1.085   .     S
C371   C1030   1.391   .     S
C372   O430    1.281   .     A
C372   C378    1.455   .     S
C372   O432    1.277   .     A
C373   C375    1.402   .     A
C373   C374    1.418   .     A
C373   C1028   1.391   1_554 S
C374   C398    1.426   .     A
C374   C377    1.412   .     A
C375   H401    1.084   .     S
C375   C376    1.392   .     A
C376   C388    1.402   .     A
C377   H415    1.077   .     S
C377   C388    1.395   .     A
C378   C233    1.335   1_655 S
C378   H266    1.088   1_655 S
C380   C389    1.393   .     A
C380   C387    1.414   .     A
C381   C384    1.457   .     S
C381   C601    1.336   .     S
C381   O644    1.387   .     S
C382   C383    1.436   .     S
C383   O427    1.276   .     A
C383   O433    1.275   .     A
C384   O428    1.271   .     A
C384   O434    1.268   .     A
C385   C388    1.458   .     S
C385   O421    1.276   .     A
C385   O423    1.272   .     A
C386   O422    1.281   .     A
C386   O424    1.291   .     A
C386   C387    1.480   .     S
C387   C391    1.399   .     A
C389   H417    1.081   .     S
C389   C396    1.405   .     A
C390   O425    1.413   .     S
C390   C392    1.520   .     S
C390   H402    1.112   .     S
C391   H418    1.077   .     S
C391   C395    1.409   .     A
C392   H405    1.111   .     S
C392   H406    1.110   .     S
C393   H408    1.114   .     S
C393   O426    1.412   .     S
C393   H407    1.115   .     S
C393   C394    1.521   .     S
C394   H410    1.111   .     S
C394   H411    1.110   .     S
C394   H409    1.111   .     S
C395   C397    1.428   .     A
C395   C396    1.419   .     A
C396   C1057   1.403   .     S
C397   C1055   1.425   .     S
C398   C399    1.412   .     A
C398   C1054   1.425   1_554 S
C399   C400    1.389   .     A
C399   H419    1.076   .     S
C400   C1053   1.403   1_554 S
H403   C609    1.116   .     S
H404   C611    1.111   .     S
H413   C233    1.086   1_655 S
H414   C601    1.086   .     S
O420   Zn437   1.930   .     S
O420   Zn435   1.960   .     S
O420   Zn438   1.932   .     S
O420   Zn436   1.939   .     S
O421   Zn436   1.924   .     S
O422   Zn438   1.934   .     S
O423   Zn437   1.928   .     S
O424   Zn435   1.920   .     S
O427   Zn435   1.928   .     S
O428   Zn438   1.932   .     S
O429   Zn436   1.928   .     S
O430   Zn437   1.938   .     S
O431   Zn438   1.931   .     S
O432   Zn435   1.923   .     S
O433   Zn436   1.939   .     S
O434   Zn437   1.932   .     S
Br439  C473    1.926   .     S
Br440  C449    1.917   .     S
Br441  C453    1.925   .     S
C442   O502    1.269   .     A
C442   C452    1.438   .     S
C442   O504    1.269   .     A
C443   O499    1.382   .     S
C443   C444    1.391   .     A
C443   C470    1.426   .     A
C444   H489    1.085   .     S
C444   C1103   1.391   .     S
C445   O503    1.281   .     A
C445   C451    1.455   .     S
C445   O505    1.277   .     A
C446   C448    1.402   .     A
C446   C447    1.418   .     A
C446   C1101   1.391   1_554 S
C447   C471    1.426   .     A
C447   C450    1.412   .     A
C448   H474    1.084   .     S
C448   C449    1.392   .     A
C449   C461    1.402   .     A
C450   H488    1.077   .     S
C450   C461    1.395   .     A
C451   C525    1.335   .     S
C451   H558    1.088   .     S
C452   C597    1.335   1_455 S
C452   H632    1.086   1_455 S
C453   C462    1.393   .     A
C453   C460    1.414   .     A
C454   C457    1.457   .     S
C454   C17     1.336   1_565 S
C454   O60     1.387   1_565 S
C455   C456    1.436   .     S
C456   O500    1.276   .     A
C456   O506    1.275   .     A
C457   O501    1.271   .     A
C457   O507    1.268   .     A
C458   C461    1.458   .     S
C458   O494    1.276   .     A
C458   O496    1.272   .     A
C459   O495    1.281   .     A
C459   O497    1.291   .     A
C459   C460    1.480   .     S
C460   C464    1.399   .     A
C462   H490    1.081   .     S
C462   C469    1.405   .     A
C463   O498    1.413   .     S
C463   C465    1.520   .     S
C463   H475    1.112   .     S
C464   H491    1.077   .     S
C464   C468    1.409   .     A
C465   H478    1.111   .     S
C465   H479    1.110   .     S
C466   H481    1.114   .     S
C466   O499    1.412   .     S
C466   H480    1.115   .     S
C466   C467    1.521   .     S
C467   H483    1.111   .     S
C467   H484    1.110   .     S
C467   H482    1.111   .     S
C468   C470    1.428   .     A
C468   C469    1.419   .     A
C469   C1130   1.403   .     S
C470   C1128   1.425   .     S
C471   C472    1.412   .     A
C471   C1127   1.425   1_554 S
C472   C473    1.389   .     A
C472   H492    1.076   .     S
C473   C1126   1.403   1_554 S
H476   C25     1.116   1_565 S
H477   C27     1.111   1_565 S
H485   C597    1.088   1_455 S
H486   C525    1.086   .     S
H487   C17     1.086   1_565 S
O493   Zn510   1.930   .     S
O493   Zn508   1.960   .     S
O493   Zn511   1.932   .     S
O493   Zn509   1.939   .     S
O494   Zn509   1.924   .     S
O495   Zn511   1.934   .     S
O496   Zn510   1.928   .     S
O497   Zn508   1.920   .     S
O500   Zn508   1.928   .     S
O501   Zn511   1.932   .     S
O502   Zn509   1.928   .     S
O503   Zn510   1.938   .     S
O504   Zn511   1.931   .     S
O505   Zn508   1.923   .     S
O506   Zn509   1.939   .     S
O507   Zn510   1.932   .     S
Br512  C546    1.926   .     S
Br513  C522    1.917   .     S
Br514  C526    1.925   .     S
C515   O575    1.269   .     A
C515   C525    1.438   .     S
C515   O577    1.269   .     A
C516   O572    1.382   .     S
C516   C517    1.391   .     A
C516   C543    1.426   .     A
C517   H562    1.085   .     S
C517   C1176   1.391   .     S
C518   O576    1.281   .     A
C518   C524    1.455   .     S
C518   O578    1.277   .     A
C519   C521    1.402   .     A
C519   C520    1.418   .     A
C519   C1174   1.391   1_554 S
C520   C544    1.426   .     A
C520   C523    1.412   .     A
C521   H547    1.084   .     S
C521   C522    1.392   .     A
C522   C534    1.402   .     A
C523   H561    1.077   .     S
C523   C534    1.395   .     A
C524   C598    1.335   .     S
C524   H631    1.088   .     S
C526   C535    1.393   .     A
C526   C533    1.414   .     A
C527   C530    1.457   .     S
C527   C90     1.336   1_565 S
C527   O133    1.387   1_565 S
C528   C529    1.436   .     S
C529   O573    1.276   .     A
C529   O579    1.275   .     A
C530   O574    1.271   .     A
C530   O580    1.268   .     A
C531   C534    1.458   .     S
C531   O567    1.276   .     A
C531   O569    1.272   .     A
C532   O568    1.281   .     A
C532   O570    1.291   .     A
C532   C533    1.480   .     S
C533   C537    1.399   .     A
C535   H563    1.081   .     S
C535   C542    1.405   .     A
C536   O571    1.413   .     S
C536   C538    1.520   .     S
C536   H548    1.112   .     S
C537   H564    1.077   .     S
C537   C541    1.409   .     A
C538   H551    1.111   .     S
C538   H552    1.110   .     S
C539   H554    1.114   .     S
C539   O572    1.412   .     S
C539   H553    1.115   .     S
C539   C540    1.521   .     S
C540   H556    1.111   .     S
C540   H557    1.110   .     S
C540   H555    1.111   .     S
C541   C543    1.428   .     A
C541   C542    1.419   .     A
C542   C1203   1.403   .     S
C543   C1201   1.425   .     S
C544   C545    1.412   .     A
C544   C1200   1.425   1_554 S
C545   C546    1.389   .     A
C545   H565    1.076   .     S
C546   C1199   1.403   1_554 S
H549   C98     1.116   1_565 S
H550   C100    1.111   1_565 S
H559   C598    1.086   .     S
H560   C90     1.086   1_565 S
O566   Zn583   1.930   .     S
O566   Zn581   1.960   .     S
O566   Zn584   1.932   .     S
O566   Zn582   1.939   .     S
O567   Zn582   1.924   .     S
O568   Zn584   1.934   .     S
O569   Zn583   1.928   .     S
O570   Zn581   1.920   .     S
O573   Zn581   1.928   .     S
O574   Zn584   1.932   .     S
O575   Zn582   1.928   .     S
O576   Zn583   1.938   .     S
O577   Zn584   1.931   .     S
O578   Zn581   1.923   .     S
O579   Zn582   1.939   .     S
O580   Zn583   1.932   .     S
Br585  C619    1.926   .     S
Br586  C595    1.917   .     S
Br587  C599    1.925   .     S
C588   O648    1.269   .     A
C588   C598    1.438   .     S
C588   O650    1.269   .     A
C589   O645    1.382   .     S
C589   C590    1.391   .     A
C589   C616    1.426   .     A
C590   H635    1.085   .     S
C590   C1249   1.391   .     S
C591   O649    1.281   .     A
C591   C597    1.455   .     S
C591   O651    1.277   .     A
C592   C594    1.402   .     A
C592   C593    1.418   .     A
C592   C1247   1.391   1_554 S
C593   C617    1.426   .     A
C593   C596    1.412   .     A
C594   H620    1.084   .     S
C594   C595    1.392   .     A
C595   C607    1.402   .     A
C596   H634    1.077   .     S
C596   C607    1.395   .     A
C597   C452    1.335   1_655 S
C597   H485    1.088   1_655 S
C599   C608    1.393   .     A
C599   C606    1.414   .     A
C600   C603    1.457   .     S
C600   C163    1.336   1_565 S
C600   O206    1.387   1_565 S
C601   C602    1.436   .     S
C602   O646    1.276   .     A
C602   O652    1.275   .     A
C603   O647    1.271   .     A
C603   O653    1.268   .     A
C604   C607    1.458   .     S
C604   O640    1.276   .     A
C604   O642    1.272   .     A
C605   O641    1.281   .     A
C605   O643    1.291   .     A
C605   C606    1.480   .     S
C606   C610    1.399   .     A
C608   H636    1.081   .     S
C608   C615    1.405   .     A
C609   O644    1.413   .     S
C609   C611    1.520   .     S
C609   H621    1.112   .     S
C610   H637    1.077   .     S
C610   C614    1.409   .     A
C611   H624    1.111   .     S
C611   H625    1.110   .     S
C612   H627    1.114   .     S
C612   O645    1.412   .     S
C612   H626    1.115   .     S
C612   C613    1.521   .     S
C613   H629    1.111   .     S
C613   H630    1.110   .     S
C613   H628    1.111   .     S
C614   C616    1.428   .     A
C614   C615    1.419   .     A
C615   C1276   1.403   .     S
C616   C1274   1.425   .     S
C617   C618    1.412   .     A
C617   C1273   1.425   1_554 S
C618   C619    1.389   .     A
C618   H638    1.076   .     S
C619   C1272   1.403   1_554 S
H622   C171    1.116   1_565 S
H623   C173    1.111   1_565 S
H632   C452    1.086   1_655 S
H633   C163    1.086   1_565 S
O639   Zn656   1.930   .     S
O639   Zn654   1.960   .     S
O639   Zn657   1.932   .     S
O639   Zn655   1.939   .     S
O640   Zn655   1.924   .     S
O641   Zn657   1.934   .     S
O642   Zn656   1.928   .     S
O643   Zn654   1.920   .     S
O646   Zn654   1.928   .     S
O647   Zn657   1.932   .     S
O648   Zn655   1.928   .     S
O649   Zn656   1.938   .     S
O650   Zn657   1.931   .     S
O651   Zn654   1.923   .     S
O652   Zn655   1.939   .     S
O653   Zn656   1.932   .     S
Br658  C692    1.926   .     S
Br659  C668    1.917   .     S
Br660  C672    1.925   .     S
C661   O721    1.269   .     A
C661   C671    1.438   .     S
C661   O723    1.269   .     A
C662   O718    1.382   .     S
C662   C663    1.391   .     A
C662   C689    1.426   .     A
C663   H708    1.085   .     S
C663   C8      1.391   1_556 S
C664   O722    1.281   .     A
C664   C670    1.455   .     S
C664   O724    1.277   .     A
C665   C667    1.402   .     A
C665   C666    1.418   .     A
C666   C690    1.426   .     A
C666   C669    1.412   .     A
C667   H693    1.084   .     S
C667   C668    1.392   .     A
C668   C680    1.402   .     A
C669   H707    1.077   .     S
C669   C680    1.395   .     A
C670   C744    1.335   .     S
C670   H777    1.088   .     S
C671   C816    1.335   1_455 S
C671   H851    1.086   1_455 S
C672   C681    1.393   .     A
C672   C679    1.414   .     A
C673   C676    1.457   .     S
C673   C893    1.336   .     S
C673   O936    1.387   .     S
C674   C675    1.436   .     S
C674   C1111   1.336   1_545 S
C674   H1144   1.086   1_545 S
C675   O719    1.276   .     A
C675   O725    1.275   .     A
C676   O720    1.271   .     A
C676   O726    1.268   .     A
C677   C680    1.458   .     S
C677   O713    1.276   .     A
C677   O715    1.272   .     A
C678   O714    1.281   .     A
C678   O716    1.291   .     A
C678   C679    1.480   .     S
C679   C683    1.399   .     A
C681   H709    1.081   .     S
C681   C688    1.405   .     A
C682   O717    1.413   .     S
C682   C684    1.520   .     S
C682   H694    1.112   .     S
C682   H1133   1.116   1_545 S
C683   H710    1.077   .     S
C683   C687    1.409   .     A
C684   H697    1.111   .     S
C684   H698    1.110   .     S
C684   H1134   1.111   1_545 S
C685   H700    1.114   .     S
C685   O718    1.412   .     S
C685   H699    1.115   .     S
C685   C686    1.521   .     S
C686   H702    1.111   .     S
C686   H703    1.110   .     S
C686   H701    1.111   .     S
C687   C689    1.428   .     A
C687   C688    1.419   .     A
C688   C35     1.403   1_556 S
C689   C33     1.425   1_556 S
C690   C691    1.412   .     A
C691   C692    1.389   .     A
C691   H711    1.076   .     S
H695   C901    1.116   .     S
H696   C903    1.111   .     S
H704   C816    1.088   1_455 S
H705   C744    1.086   .     S
H706   C893    1.086   .     S
O712   Zn729   1.930   .     S
O712   Zn727   1.960   .     S
O712   Zn730   1.932   .     S
O712   Zn728   1.939   .     S
O713   Zn728   1.924   .     S
O714   Zn730   1.934   .     S
O715   Zn729   1.928   .     S
O716   Zn727   1.920   .     S
O717   C1111   1.387   1_545 S
O719   Zn727   1.928   .     S
O720   Zn730   1.932   .     S
O721   Zn728   1.928   .     S
O722   Zn729   1.938   .     S
O723   Zn730   1.931   .     S
O724   Zn727   1.923   .     S
O725   Zn728   1.939   .     S
O726   Zn729   1.932   .     S
Br731  C765    1.926   .     S
Br732  C741    1.917   .     S
Br733  C745    1.925   .     S
C734   O794    1.269   .     A
C734   C744    1.438   .     S
C734   O796    1.269   .     A
C735   O791    1.382   .     S
C735   C736    1.391   .     A
C735   C762    1.426   .     A
C736   H781    1.085   .     S
C736   C81     1.391   1_556 S
C737   O795    1.281   .     A
C737   C743    1.455   .     S
C737   O797    1.277   .     A
C738   C740    1.402   .     A
C738   C739    1.418   .     A
C739   C763    1.426   .     A
C739   C742    1.412   .     A
C740   H766    1.084   .     S
C740   C741    1.392   .     A
C741   C753    1.402   .     A
C742   H780    1.077   .     S
C742   C753    1.395   .     A
C743   C817    1.335   .     S
C743   H850    1.088   .     S
C745   C754    1.393   .     A
C745   C752    1.414   .     A
C746   C749    1.457   .     S
C746   C966    1.336   .     S
C746   O1009   1.387   .     S
C747   C748    1.436   .     S
C747   C1184   1.336   1_545 S
C747   H1217   1.086   1_545 S
C748   O792    1.276   .     A
C748   O798    1.275   .     A
C749   O793    1.271   .     A
C749   O799    1.268   .     A
C750   C753    1.458   .     S
C750   O786    1.276   .     A
C750   O788    1.272   .     A
C751   O787    1.281   .     A
C751   O789    1.291   .     A
C751   C752    1.480   .     S
C752   C756    1.399   .     A
C754   H782    1.081   .     S
C754   C761    1.405   .     A
C755   O790    1.413   .     S
C755   C757    1.520   .     S
C755   H767    1.112   .     S
C755   H1206   1.116   1_545 S
C756   H783    1.077   .     S
C756   C760    1.409   .     A
C757   H770    1.111   .     S
C757   H771    1.110   .     S
C757   H1207   1.111   1_545 S
C758   H773    1.114   .     S
C758   O791    1.412   .     S
C758   H772    1.115   .     S
C758   C759    1.521   .     S
C759   H775    1.111   .     S
C759   H776    1.110   .     S
C759   H774    1.111   .     S
C760   C762    1.428   .     A
C760   C761    1.419   .     A
C761   C108    1.403   1_556 S
C762   C106    1.425   1_556 S
C763   C764    1.412   .     A
C764   C765    1.389   .     A
C764   H784    1.076   .     S
H768   C974    1.116   .     S
H769   C976    1.111   .     S
H778   C817    1.086   .     S
H779   C966    1.086   .     S
O785   Zn802   1.930   .     S
O785   Zn800   1.960   .     S
O785   Zn803   1.932   .     S
O785   Zn801   1.939   .     S
O786   Zn801   1.924   .     S
O787   Zn803   1.934   .     S
O788   Zn802   1.928   .     S
O789   Zn800   1.920   .     S
O790   C1184   1.387   1_545 S
O792   Zn800   1.928   .     S
O793   Zn803   1.932   .     S
O794   Zn801   1.928   .     S
O795   Zn802   1.938   .     S
O796   Zn803   1.931   .     S
O797   Zn800   1.923   .     S
O798   Zn801   1.939   .     S
O799   Zn802   1.932   .     S
Br804  C838    1.926   .     S
Br805  C814    1.917   .     S
Br806  C818    1.925   .     S
C807   O867    1.269   .     A
C807   C817    1.438   .     S
C807   O869    1.269   .     A
C808   O864    1.382   .     S
C808   C809    1.391   .     A
C808   C835    1.426   .     A
C809   H854    1.085   .     S
C809   C154    1.391   1_556 S
C810   O868    1.281   .     A
C810   C816    1.455   .     S
C810   O870    1.277   .     A
C811   C813    1.402   .     A
C811   C812    1.418   .     A
C812   C836    1.426   .     A
C812   C815    1.412   .     A
C813   H839    1.084   .     S
C813   C814    1.392   .     A
C814   C826    1.402   .     A
C815   H853    1.077   .     S
C815   C826    1.395   .     A
C816   C671    1.335   1_655 S
C816   H704    1.088   1_655 S
C818   C827    1.393   .     A
C818   C825    1.414   .     A
C819   C822    1.457   .     S
C819   C1039   1.336   .     S
C819   O1082   1.387   .     S
C820   C821    1.436   .     S
C820   C1257   1.336   1_545 S
C820   H1290   1.086   1_545 S
C821   O865    1.276   .     A
C821   O871    1.275   .     A
C822   O866    1.271   .     A
C822   O872    1.268   .     A
C823   C826    1.458   .     S
C823   O859    1.276   .     A
C823   O861    1.272   .     A
C824   O860    1.281   .     A
C824   O862    1.291   .     A
C824   C825    1.480   .     S
C825   C829    1.399   .     A
C827   H855    1.081   .     S
C827   C834    1.405   .     A
C828   O863    1.413   .     S
C828   C830    1.520   .     S
C828   H840    1.112   .     S
C828   H1279   1.116   1_545 S
C829   H856    1.077   .     S
C829   C833    1.409   .     A
C830   H843    1.111   .     S
C830   H844    1.110   .     S
C830   H1280   1.111   1_545 S
C831   H846    1.114   .     S
C831   O864    1.412   .     S
C831   H845    1.115   .     S
C831   C832    1.521   .     S
C832   H848    1.111   .     S
C832   H849    1.110   .     S
C832   H847    1.111   .     S
C833   C835    1.428   .     A
C833   C834    1.419   .     A
C834   C181    1.403   1_556 S
C835   C179    1.425   1_556 S
C836   C837    1.412   .     A
C837   C838    1.389   .     A
C837   H857    1.076   .     S
H841   C1047   1.116   .     S
H842   C1049   1.111   .     S
H851   C671    1.086   1_655 S
H852   C1039   1.086   .     S
O858   Zn875   1.930   .     S
O858   Zn873   1.960   .     S
O858   Zn876   1.932   .     S
O858   Zn874   1.939   .     S
O859   Zn874   1.924   .     S
O860   Zn876   1.934   .     S
O861   Zn875   1.928   .     S
O862   Zn873   1.920   .     S
O863   C1257   1.387   1_545 S
O865   Zn873   1.928   .     S
O866   Zn876   1.932   .     S
O867   Zn874   1.928   .     S
O868   Zn875   1.938   .     S
O869   Zn876   1.931   .     S
O870   Zn873   1.923   .     S
O871   Zn874   1.939   .     S
O872   Zn875   1.932   .     S
Br877  C911    1.926   .     S
Br878  C887    1.917   .     S
Br879  C891    1.925   .     S
C880   O940    1.269   .     A
C880   C890    1.438   .     S
C880   O942    1.269   .     A
C881   O937    1.382   .     S
C881   C882    1.391   .     A
C881   C908    1.426   .     A
C882   H927    1.085   .     S
C882   C227    1.391   1_556 S
C883   O941    1.281   .     A
C883   C889    1.455   .     S
C883   O943    1.277   .     A
C884   C886    1.402   .     A
C884   C885    1.418   .     A
C885   C909    1.426   .     A
C885   C888    1.412   .     A
C886   H912    1.084   .     S
C886   C887    1.392   .     A
C887   C899    1.402   .     A
C888   H926    1.077   .     S
C888   C899    1.395   .     A
C889   C963    1.335   .     S
C889   H996    1.088   .     S
C890   C1035   1.335   1_455 S
C890   H1070   1.086   1_455 S
C891   C900    1.393   .     A
C891   C898    1.414   .     A
C892   C895    1.457   .     S
C892   C1112   1.336   .     S
C892   O1155   1.387   .     S
C893   C894    1.436   .     S
C894   O938    1.276   .     A
C894   O944    1.275   .     A
C895   O939    1.271   .     A
C895   O945    1.268   .     A
C896   C899    1.458   .     S
C896   O932    1.276   .     A
C896   O934    1.272   .     A
C897   O933    1.281   .     A
C897   O935    1.291   .     A
C897   C898    1.480   .     S
C898   C902    1.399   .     A
C900   H928    1.081   .     S
C900   C907    1.405   .     A
C901   O936    1.413   .     S
C901   C903    1.520   .     S
C901   H913    1.112   .     S
C902   H929    1.077   .     S
C902   C906    1.409   .     A
C903   H916    1.111   .     S
C903   H917    1.110   .     S
C904   H919    1.114   .     S
C904   O937    1.412   .     S
C904   H918    1.115   .     S
C904   C905    1.521   .     S
C905   H921    1.111   .     S
C905   H922    1.110   .     S
C905   H920    1.111   .     S
C906   C908    1.428   .     A
C906   C907    1.419   .     A
C907   C254    1.403   1_556 S
C908   C252    1.425   1_556 S
C909   C910    1.412   .     A
C910   C911    1.389   .     A
C910   H930    1.076   .     S
H914   C1120   1.116   .     S
H915   C1122   1.111   .     S
H923   C1035   1.088   1_455 S
H924   C963    1.086   .     S
H925   C1112   1.086   .     S
O931   Zn948   1.930   .     S
O931   Zn946   1.960   .     S
O931   Zn949   1.932   .     S
O931   Zn947   1.939   .     S
O932   Zn947   1.924   .     S
O933   Zn949   1.934   .     S
O934   Zn948   1.928   .     S
O935   Zn946   1.920   .     S
O938   Zn946   1.928   .     S
O939   Zn949   1.932   .     S
O940   Zn947   1.928   .     S
O941   Zn948   1.938   .     S
O942   Zn949   1.931   .     S
O943   Zn946   1.923   .     S
O944   Zn947   1.939   .     S
O945   Zn948   1.932   .     S
Br950  C984    1.926   .     S
Br951  C960    1.917   .     S
Br952  C964    1.925   .     S
C953   O1013   1.269   .     A
C953   C963    1.438   .     S
C953   O1015   1.269   .     A
C954   O1010   1.382   .     S
C954   C955    1.391   .     A
C954   C981    1.426   .     A
C955   H1000   1.085   .     S
C955   C300    1.391   1_556 S
C956   O1014   1.281   .     A
C956   C962    1.455   .     S
C956   O1016   1.277   .     A
C957   C959    1.402   .     A
C957   C958    1.418   .     A
C958   C982    1.426   .     A
C958   C961    1.412   .     A
C959   H985    1.084   .     S
C959   C960    1.392   .     A
C960   C972    1.402   .     A
C961   H999    1.077   .     S
C961   C972    1.395   .     A
C962   C1036   1.335   .     S
C962   H1069   1.088   .     S
C964   C973    1.393   .     A
C964   C971    1.414   .     A
C965   C968    1.457   .     S
C965   C1185   1.336   .     S
C965   O1228   1.387   .     S
C966   C967    1.436   .     S
C967   O1011   1.276   .     A
C967   O1017   1.275   .     A
C968   O1012   1.271   .     A
C968   O1018   1.268   .     A
C969   C972    1.458   .     S
C969   O1005   1.276   .     A
C969   O1007   1.272   .     A
C970   O1006   1.281   .     A
C970   O1008   1.291   .     A
C970   C971    1.480   .     S
C971   C975    1.399   .     A
C973   H1001   1.081   .     S
C973   C980    1.405   .     A
C974   O1009   1.413   .     S
C974   C976    1.520   .     S
C974   H986    1.112   .     S
C975   H1002   1.077   .     S
C975   C979    1.409   .     A
C976   H989    1.111   .     S
C976   H990    1.110   .     S
C977   H992    1.114   .     S
C977   O1010   1.412   .     S
C977   H991    1.115   .     S
C977   C978    1.521   .     S
C978   H994    1.111   .     S
C978   H995    1.110   .     S
C978   H993    1.111   .     S
C979   C981    1.428   .     A
C979   C980    1.419   .     A
C980   C327    1.403   1_556 S
C981   C325    1.425   1_556 S
C982   C983    1.412   .     A
C983   C984    1.389   .     A
C983   H1003   1.076   .     S
H987   C1193   1.116   .     S
H988   C1195   1.111   .     S
H997   C1036   1.086   .     S
H998   C1185   1.086   .     S
O1004  Zn1021  1.930   .     S
O1004  Zn1019  1.960   .     S
O1004  Zn1022  1.932   .     S
O1004  Zn1020  1.939   .     S
O1005  Zn1020  1.924   .     S
O1006  Zn1022  1.934   .     S
O1007  Zn1021  1.928   .     S
O1008  Zn1019  1.920   .     S
O1011  Zn1019  1.928   .     S
O1012  Zn1022  1.932   .     S
O1013  Zn1020  1.928   .     S
O1014  Zn1021  1.938   .     S
O1015  Zn1022  1.931   .     S
O1016  Zn1019  1.923   .     S
O1017  Zn1020  1.939   .     S
O1018  Zn1021  1.932   .     S
Br1023 C1057   1.926   .     S
Br1024 C1033   1.917   .     S
Br1025 C1037   1.925   .     S
C1026  O1086   1.269   .     A
C1026  C1036   1.438   .     S
C1026  O1088   1.269   .     A
C1027  O1083   1.382   .     S
C1027  C1028   1.391   .     A
C1027  C1054   1.426   .     A
C1028  H1073   1.085   .     S
C1028  C373    1.391   1_556 S
C1029  O1087   1.281   .     A
C1029  C1035   1.455   .     S
C1029  O1089   1.277   .     A
C1030  C1032   1.402   .     A
C1030  C1031   1.418   .     A
C1031  C1055   1.426   .     A
C1031  C1034   1.412   .     A
C1032  H1058   1.084   .     S
C1032  C1033   1.392   .     A
C1033  C1045   1.402   .     A
C1034  H1072   1.077   .     S
C1034  C1045   1.395   .     A
C1035  C890    1.335   1_655 S
C1035  H923    1.088   1_655 S
C1037  C1046   1.393   .     A
C1037  C1044   1.414   .     A
C1038  C1041   1.457   .     S
C1038  C1258   1.336   .     S
C1038  O1301   1.387   .     S
C1039  C1040   1.436   .     S
C1040  O1084   1.276   .     A
C1040  O1090   1.275   .     A
C1041  O1085   1.271   .     A
C1041  O1091   1.268   .     A
C1042  C1045   1.458   .     S
C1042  O1078   1.276   .     A
C1042  O1080   1.272   .     A
C1043  O1079   1.281   .     A
C1043  O1081   1.291   .     A
C1043  C1044   1.480   .     S
C1044  C1048   1.399   .     A
C1046  H1074   1.081   .     S
C1046  C1053   1.405   .     A
C1047  O1082   1.413   .     S
C1047  C1049   1.520   .     S
C1047  H1059   1.112   .     S
C1048  H1075   1.077   .     S
C1048  C1052   1.409   .     A
C1049  H1062   1.111   .     S
C1049  H1063   1.110   .     S
C1050  H1065   1.114   .     S
C1050  O1083   1.412   .     S
C1050  H1064   1.115   .     S
C1050  C1051   1.521   .     S
C1051  H1067   1.111   .     S
C1051  H1068   1.110   .     S
C1051  H1066   1.111   .     S
C1052  C1054   1.428   .     A
C1052  C1053   1.419   .     A
C1053  C400    1.403   1_556 S
C1054  C398    1.425   1_556 S
C1055  C1056   1.412   .     A
C1056  C1057   1.389   .     A
C1056  H1076   1.076   .     S
H1060  C1266   1.116   .     S
H1061  C1268   1.111   .     S
H1070  C890    1.086   1_655 S
H1071  C1258   1.086   .     S
O1077  Zn1094  1.930   .     S
O1077  Zn1092  1.960   .     S
O1077  Zn1095  1.932   .     S
O1077  Zn1093  1.939   .     S
O1078  Zn1093  1.924   .     S
O1079  Zn1095  1.934   .     S
O1080  Zn1094  1.928   .     S
O1081  Zn1092  1.920   .     S
O1084  Zn1092  1.928   .     S
O1085  Zn1095  1.932   .     S
O1086  Zn1093  1.928   .     S
O1087  Zn1094  1.938   .     S
O1088  Zn1095  1.931   .     S
O1089  Zn1092  1.923   .     S
O1090  Zn1093  1.939   .     S
O1091  Zn1094  1.932   .     S
Br1096 C1130   1.926   .     S
Br1097 C1106   1.917   .     S
Br1098 C1110   1.925   .     S
C1099  O1159   1.269   .     A
C1099  C1109   1.438   .     S
C1099  O1161   1.269   .     A
C1100  O1156   1.382   .     S
C1100  C1101   1.391   .     A
C1100  C1127   1.426   .     A
C1101  H1146   1.085   .     S
C1101  C446    1.391   1_556 S
C1102  O1160   1.281   .     A
C1102  C1108   1.455   .     S
C1102  O1162   1.277   .     A
C1103  C1105   1.402   .     A
C1103  C1104   1.418   .     A
C1104  C1128   1.426   .     A
C1104  C1107   1.412   .     A
C1105  H1131   1.084   .     S
C1105  C1106   1.392   .     A
C1106  C1118   1.402   .     A
C1107  H1145   1.077   .     S
C1107  C1118   1.395   .     A
C1108  C1182   1.335   .     S
C1108  H1215   1.088   .     S
C1109  C1254   1.335   1_455 S
C1109  H1289   1.086   1_455 S
C1110  C1119   1.393   .     A
C1110  C1117   1.414   .     A
C1111  C1114   1.457   .     S
C1111  C674    1.336   1_565 S
C1111  O717    1.387   1_565 S
C1112  C1113   1.436   .     S
C1113  O1157   1.276   .     A
C1113  O1163   1.275   .     A
C1114  O1158   1.271   .     A
C1114  O1164   1.268   .     A
C1115  C1118   1.458   .     S
C1115  O1151   1.276   .     A
C1115  O1153   1.272   .     A
C1116  O1152   1.281   .     A
C1116  O1154   1.291   .     A
C1116  C1117   1.480   .     S
C1117  C1121   1.399   .     A
C1119  H1147   1.081   .     S
C1119  C1126   1.405   .     A
C1120  O1155   1.413   .     S
C1120  C1122   1.520   .     S
C1120  H1132   1.112   .     S
C1121  H1148   1.077   .     S
C1121  C1125   1.409   .     A
C1122  H1135   1.111   .     S
C1122  H1136   1.110   .     S
C1123  H1138   1.114   .     S
C1123  O1156   1.412   .     S
C1123  H1137   1.115   .     S
C1123  C1124   1.521   .     S
C1124  H1140   1.111   .     S
C1124  H1141   1.110   .     S
C1124  H1139   1.111   .     S
C1125  C1127   1.428   .     A
C1125  C1126   1.419   .     A
C1126  C473    1.403   1_556 S
C1127  C471    1.425   1_556 S
C1128  C1129   1.412   .     A
C1129  C1130   1.389   .     A
C1129  H1149   1.076   .     S
H1133  C682    1.116   1_565 S
H1134  C684    1.111   1_565 S
H1142  C1254   1.088   1_455 S
H1143  C1182   1.086   .     S
H1144  C674    1.086   1_565 S
O1150  Zn1167  1.930   .     S
O1150  Zn1165  1.960   .     S
O1150  Zn1168  1.932   .     S
O1150  Zn1166  1.939   .     S
O1151  Zn1166  1.924   .     S
O1152  Zn1168  1.934   .     S
O1153  Zn1167  1.928   .     S
O1154  Zn1165  1.920   .     S
O1157  Zn1165  1.928   .     S
O1158  Zn1168  1.932   .     S
O1159  Zn1166  1.928   .     S
O1160  Zn1167  1.938   .     S
O1161  Zn1168  1.931   .     S
O1162  Zn1165  1.923   .     S
O1163  Zn1166  1.939   .     S
O1164  Zn1167  1.932   .     S
Br1169 C1203   1.926   .     S
Br1170 C1179   1.917   .     S
Br1171 C1183   1.925   .     S
C1172  O1232   1.269   .     A
C1172  C1182   1.438   .     S
C1172  O1234   1.269   .     A
C1173  O1229   1.382   .     S
C1173  C1174   1.391   .     A
C1173  C1200   1.426   .     A
C1174  H1219   1.085   .     S
C1174  C519    1.391   1_556 S
C1175  O1233   1.281   .     A
C1175  C1181   1.455   .     S
C1175  O1235   1.277   .     A
C1176  C1178   1.402   .     A
C1176  C1177   1.418   .     A
C1177  C1201   1.426   .     A
C1177  C1180   1.412   .     A
C1178  H1204   1.084   .     S
C1178  C1179   1.392   .     A
C1179  C1191   1.402   .     A
C1180  H1218   1.077   .     S
C1180  C1191   1.395   .     A
C1181  C1255   1.335   .     S
C1181  H1288   1.088   .     S
C1183  C1192   1.393   .     A
C1183  C1190   1.414   .     A
C1184  C1187   1.457   .     S
C1184  C747    1.336   1_565 S
C1184  O790    1.387   1_565 S
C1185  C1186   1.436   .     S
C1186  O1230   1.276   .     A
C1186  O1236   1.275   .     A
C1187  O1231   1.271   .     A
C1187  O1237   1.268   .     A
C1188  C1191   1.458   .     S
C1188  O1224   1.276   .     A
C1188  O1226   1.272   .     A
C1189  O1225   1.281   .     A
C1189  O1227   1.291   .     A
C1189  C1190   1.480   .     S
C1190  C1194   1.399   .     A
C1192  H1220   1.081   .     S
C1192  C1199   1.405   .     A
C1193  O1228   1.413   .     S
C1193  C1195   1.520   .     S
C1193  H1205   1.112   .     S
C1194  H1221   1.077   .     S
C1194  C1198   1.409   .     A
C1195  H1208   1.111   .     S
C1195  H1209   1.110   .     S
C1196  H1211   1.114   .     S
C1196  O1229   1.412   .     S
C1196  H1210   1.115   .     S
C1196  C1197   1.521   .     S
C1197  H1213   1.111   .     S
C1197  H1214   1.110   .     S
C1197  H1212   1.111   .     S
C1198  C1200   1.428   .     A
C1198  C1199   1.419   .     A
C1199  C546    1.403   1_556 S
C1200  C544    1.425   1_556 S
C1201  C1202   1.412   .     A
C1202  C1203   1.389   .     A
C1202  H1222   1.076   .     S
H1206  C755    1.116   1_565 S
H1207  C757    1.111   1_565 S
H1216  C1255   1.086   .     S
H1217  C747    1.086   1_565 S
O1223  Zn1240  1.930   .     S
O1223  Zn1238  1.960   .     S
O1223  Zn1241  1.932   .     S
O1223  Zn1239  1.939   .     S
O1224  Zn1239  1.924   .     S
O1225  Zn1241  1.934   .     S
O1226  Zn1240  1.928   .     S
O1227  Zn1238  1.920   .     S
O1230  Zn1238  1.928   .     S
O1231  Zn1241  1.932   .     S
O1232  Zn1239  1.928   .     S
O1233  Zn1240  1.938   .     S
O1234  Zn1241  1.931   .     S
O1235  Zn1238  1.923   .     S
O1236  Zn1239  1.939   .     S
O1237  Zn1240  1.932   .     S
Br1242 C1276   1.926   .     S
Br1243 C1252   1.917   .     S
Br1244 C1256   1.925   .     S
C1245  O1305   1.269   .     A
C1245  C1255   1.438   .     S
C1245  O1307   1.269   .     A
C1246  O1302   1.382   .     S
C1246  C1247   1.391   .     A
C1246  C1273   1.426   .     A
C1247  H1292   1.085   .     S
C1247  C592    1.391   1_556 S
C1248  O1306   1.281   .     A
C1248  C1254   1.455   .     S
C1248  O1308   1.277   .     A
C1249  C1251   1.402   .     A
C1249  C1250   1.418   .     A
C1250  C1274   1.426   .     A
C1250  C1253   1.412   .     A
C1251  H1277   1.084   .     S
C1251  C1252   1.392   .     A
C1252  C1264   1.402   .     A
C1253  H1291   1.077   .     S
C1253  C1264   1.395   .     A
C1254  C1109   1.335   1_655 S
C1254  H1142   1.088   1_655 S
C1256  C1265   1.393   .     A
C1256  C1263   1.414   .     A
C1257  C1260   1.457   .     S
C1257  C820    1.336   1_565 S
C1257  O863    1.387   1_565 S
C1258  C1259   1.436   .     S
C1259  O1303   1.276   .     A
C1259  O1309   1.275   .     A
C1260  O1304   1.271   .     A
C1260  O1310   1.268   .     A
C1261  C1264   1.458   .     S
C1261  O1297   1.276   .     A
C1261  O1299   1.272   .     A
C1262  O1298   1.281   .     A
C1262  O1300   1.291   .     A
C1262  C1263   1.480   .     S
C1263  C1267   1.399   .     A
C1265  H1293   1.081   .     S
C1265  C1272   1.405   .     A
C1266  O1301   1.413   .     S
C1266  C1268   1.520   .     S
C1266  H1278   1.112   .     S
C1267  H1294   1.077   .     S
C1267  C1271   1.409   .     A
C1268  H1281   1.111   .     S
C1268  H1282   1.110   .     S
C1269  H1284   1.114   .     S
C1269  O1302   1.412   .     S
C1269  H1283   1.115   .     S
C1269  C1270   1.521   .     S
C1270  H1286   1.111   .     S
C1270  H1287   1.110   .     S
C1270  H1285   1.111   .     S
C1271  C1273   1.428   .     A
C1271  C1272   1.419   .     A
C1272  C619    1.403   1_556 S
C1273  C617    1.425   1_556 S
C1274  C1275   1.412   .     A
C1275  C1276   1.389   .     A
C1275  H1295   1.076   .     S
H1279  C828    1.116   1_565 S
H1280  C830    1.111   1_565 S
H1289  C1109   1.086   1_655 S
H1290  C820    1.086   1_565 S
O1296  Zn1313  1.930   .     S
O1296  Zn1311  1.960   .     S
O1296  Zn1314  1.932   .     S
O1296  Zn1312  1.939   .     S
O1297  Zn1312  1.924   .     S
O1298  Zn1314  1.934   .     S
O1299  Zn1313  1.928   .     S
O1300  Zn1311  1.920   .     S
O1303  Zn1311  1.928   .     S
O1304  Zn1314  1.932   .     S
O1305  Zn1312  1.928   .     S
O1306  Zn1313  1.938   .     S
O1307  Zn1314  1.931   .     S
O1308  Zn1311  1.923   .     S
O1309  Zn1312  1.939   .     S
O1310  Zn1313  1.932   .     S
