data_str_m2_o1_o1_pcu_sym.20
_audit_creation_date              2020-01-03
_audit_creation_method            'Materials Studio'
_symmetry_space_group_name_H-M    'P1'
_symmetry_Int_Tables_number       1
_symmetry_cell_setting            triclinic
loop_
_symmetry_equiv_pos_as_xyz
  x,y,z
_cell_length_a                    31.3327
_cell_length_b                    29.9310
_cell_length_c                    28.8706
_cell_angle_alpha                 89.9949
_cell_angle_beta                  90.2359
_cell_angle_gamma                 89.9991
loop_
_atom_site_label
_atom_site_type_symbol
_atom_site_fract_x
_atom_site_fract_y
_atom_site_fract_z
_atom_site_U_iso_or_equiv
_atom_site_adp_type
_atom_site_occupancy
C1     C     0.06179   0.19334   0.16673   0.00000  Uiso   1.00
C2     C     0.49196   0.28838   0.30884   0.00000  Uiso   1.00
C3     C     0.49198   0.28838   0.02442   0.00000  Uiso   1.00
C4     C     0.00782   0.21154   0.30892   0.00000  Uiso   1.00
C5     C     0.24198   0.46162   0.02442   0.00000  Uiso   1.00
C6     C     0.25783   0.03845   0.30892   0.00000  Uiso   1.00
C7     C     0.25779   0.03846   0.02449   0.00000  Uiso   1.00
C8     C     0.24196   0.46161   0.30885   0.00000  Uiso   1.00
C9     C     0.38815   0.14290   0.12420   0.00000  Uiso   1.00
C10    C     0.08598   0.38308   0.18966   0.00000  Uiso   1.00
C11    C     0.13259   0.33346   0.14464   0.00000  Uiso   1.00
C12    C     0.44058   0.30922   0.16658   0.00000  Uiso   1.00
C13    C     0.38777   0.14364   0.20897   0.00000  Uiso   1.00
C14    C     0.11356   0.14495   0.20909   0.00000  Uiso   1.00
C15    C     0.41414   0.38319   0.14400   0.00000  Uiso   1.00
C16    C     0.36741   0.33345   0.18876   0.00000  Uiso   1.00
C17    C     0.11402   0.14583   0.12440   0.00000  Uiso   1.00
C18    C     0.16410   0.36684   0.14393   0.00000  Uiso   1.00
C19    C     0.36364   0.10495   0.20908   0.00000  Uiso   1.00
C20    C     0.36395   0.10425   0.12439   0.00000  Uiso   1.00
C21    C     0.11745   0.41651   0.18884   0.00000  Uiso   1.00
C22    C     0.33593   0.36687   0.18955   0.00000  Uiso   1.00
C23    C     0.43857   0.19282   0.16661   0.00000  Uiso   1.00
C24    C     0.13822   0.10719   0.12419   0.00000  Uiso   1.00
C25    C     0.13768   0.10625   0.20895   0.00000  Uiso   1.00
C26    C     0.38262   0.41658   0.14472   0.00000  Uiso   1.00
C27    C     0.09345   0.34222   0.16715   0.00000  Uiso   1.00
C28    C     0.40293   0.16113   0.16655   0.00000  Uiso   1.00
C29    C     0.40656   0.34222   0.16625   0.00000  Uiso   1.00
C30    C     0.09829   0.16274   0.16679   0.00000  Uiso   1.00
C31    C     0.34829   0.08726   0.16677   0.00000  Uiso   1.00
C32    C     0.15657   0.40777   0.16626   0.00000  Uiso   1.00
C33    C     0.15292   0.08886   0.16653   0.00000  Uiso   1.00
C34    C     0.05941   0.30924   0.16676   0.00000  Uiso   1.00
C35    C     0.34344   0.40778   0.16716   0.00000  Uiso   1.00
C36    C     0.30941   0.44076   0.16676   0.00000  Uiso   1.00
C37    C     0.18857   0.05718   0.16660   0.00000  Uiso   1.00
C38    C     0.19058   0.44078   0.16658   0.00000  Uiso   1.00
C39    C     0.31179   0.05665   0.16672   0.00000  Uiso   1.00
C40    C     0.00779   0.21154   0.02450   0.00000  Uiso   1.00
Cu41   Cu    0.00000   0.25000   0.21355   0.00000  Uiso   1.00
Cu42   Cu    0.00000   0.25000   0.11978   0.00000  Uiso   1.00
Cu43   Cu    0.25000  -0.00000   0.21355   0.00000  Uiso   1.00
Cu44   Cu    0.25000  -0.00000   0.11978   0.00000  Uiso   1.00
H45    H     0.49818   0.17027   0.07431   0.00000  Uiso   1.00
H46    H     0.04593   0.41921   0.22597   0.00000  Uiso   1.00
H47    H     0.12230   0.26941   0.13634   0.00000  Uiso   1.00
H48    H     0.39124   0.19549   0.24792   0.00000  Uiso   1.00
H49    H     0.10918   0.19674   0.24807   0.00000  Uiso   1.00
H50    H     0.45456   0.41971   0.10859   0.00000  Uiso   1.00
H51    H     0.37781   0.26940   0.19725   0.00000  Uiso   1.00
H52    H     0.10970   0.19839   0.08644   0.00000  Uiso   1.00
H53    H     0.20443   0.33042   0.10829   0.00000  Uiso   1.00
H54    H     0.35928   0.05306   0.24794   0.00000  Uiso   1.00
H55    H     0.35962   0.05177   0.08632   0.00000  Uiso   1.00
H56    H     0.00138   0.32967   0.25919   0.00000  Uiso   1.00
H57    H     0.12780   0.48057   0.19731   0.00000  Uiso   1.00
H58    H     0.29570   0.33056   0.22546   0.00000  Uiso   1.00
H59    H     0.14193   0.05621   0.08413   0.00000  Uiso   1.00
H60    H     0.14112   0.05431   0.24777   0.00000  Uiso   1.00
H61    H     0.37230   0.48064   0.13642   0.00000  Uiso   1.00
H62    H     0.00165   0.32978   0.07401   0.00000  Uiso   1.00
H63    H     0.49858   0.17030   0.25890   0.00000  Uiso   1.00
H64    H     0.25166   0.42022   0.07402   0.00000  Uiso   1.00
H65    H     0.24858   0.07971   0.25890   0.00000  Uiso   1.00
H66    H     0.24818   0.07972   0.07430   0.00000  Uiso   1.00
H67    H     0.25138   0.42033   0.25920   0.00000  Uiso   1.00
H68    H     0.39181   0.19398   0.08427   0.00000  Uiso   1.00
N69    N     0.00000   0.25000   0.28402   0.00000  Uiso   1.00
N70    N     0.00000   0.25000   0.04931   0.00000  Uiso   1.00
N71    N     0.25000  -0.00000   0.28402   0.00000  Uiso   1.00
N72    N     0.25000  -0.00000   0.04931   0.00000  Uiso   1.00
O73    O     0.04508   0.20491   0.20625   0.00000  Uiso   1.00
O74    O     0.20491   0.04509   0.12709   0.00000  Uiso   1.00
O75    O     0.20491   0.04509   0.20625   0.00000  Uiso   1.00
O76    O     0.29508   0.45491   0.12709   0.00000  Uiso   1.00
O77    O     0.20491   0.45491   0.12709   0.00000  Uiso   1.00
O78    O     0.29508   0.04509   0.20625   0.00000  Uiso   1.00
O79    O     0.29508   0.04509   0.12709   0.00000  Uiso   1.00
O80    O     0.20491   0.45491   0.20625   0.00000  Uiso   1.00
O81    O     0.01502   0.17113   0.04575   0.00000  Uiso   1.00
O82    O     0.48427   0.32867   0.28755   0.00000  Uiso   1.00
O83    O     0.48432   0.32866   0.04564   0.00000  Uiso   1.00
O84    O     0.45491   0.29509   0.12709   0.00000  Uiso   1.00
O85    O     0.01519   0.17114   0.28776   0.00000  Uiso   1.00
O86    O     0.23433   0.42134   0.04565   0.00000  Uiso   1.00
O87    O     0.26520   0.07885   0.28775   0.00000  Uiso   1.00
O88    O     0.26501   0.07887   0.04574   0.00000  Uiso   1.00
O89    O     0.23427   0.42133   0.28756   0.00000  Uiso   1.00
O90    O     0.39736   0.16146   0.08171   0.00000  Uiso   1.00
O91    O     0.04673   0.38975   0.21047   0.00000  Uiso   1.00
O92    O     0.14147   0.29276   0.12403   0.00000  Uiso   1.00
O93    O     0.39653   0.16299   0.25128   0.00000  Uiso   1.00
O94    O     0.10504   0.16406   0.25149   0.00000  Uiso   1.00
O95    O     0.45491   0.29509   0.20625   0.00000  Uiso   1.00
O96    O     0.45354   0.39003   0.12361   0.00000  Uiso   1.00
O97    O     0.35851   0.29273   0.20935   0.00000  Uiso   1.00
O98    O     0.10588   0.16576   0.08224   0.00000  Uiso   1.00
O99    O     0.20348   0.36003   0.12346   0.00000  Uiso   1.00
O100   O     0.35520   0.08574   0.25145   0.00000  Uiso   1.00
O101   O     0.35575   0.08440   0.08219   0.00000  Uiso   1.00
O102   O     0.10856   0.45721   0.20947   0.00000  Uiso   1.00
O103   O     0.29663   0.36015   0.21024   0.00000  Uiso   1.00
O104   O     0.14753   0.08874   0.08168   0.00000  Uiso   1.00
O105   O     0.14636   0.08681   0.25124   0.00000  Uiso   1.00
O106   O     0.04508   0.20491   0.12709   0.00000  Uiso   1.00
O107   O     0.39153   0.45731   0.12418   0.00000  Uiso   1.00
O108   O     0.45491   0.20491   0.12709   0.00000  Uiso   1.00
O109   O     0.04508   0.29509   0.20625   0.00000  Uiso   1.00
O110   O     0.04508   0.29509   0.12709   0.00000  Uiso   1.00
O111   O     0.45491   0.20491   0.20625   0.00000  Uiso   1.00
O112   O     0.29508   0.45491   0.20625   0.00000  Uiso   1.00
C113   C     0.56179   0.19334   0.16673   0.00000  Uiso   1.00
C114   C     0.99196   0.28838   0.30884   0.00000  Uiso   1.00
C115   C     0.99198   0.28838   0.02442   0.00000  Uiso   1.00
C116   C     0.50782   0.21154   0.30892   0.00000  Uiso   1.00
C117   C     0.74198   0.46162   0.02442   0.00000  Uiso   1.00
C118   C     0.75783   0.03845   0.30892   0.00000  Uiso   1.00
C119   C     0.75779   0.03846   0.02449   0.00000  Uiso   1.00
C120   C     0.74196   0.46161   0.30885   0.00000  Uiso   1.00
C121   C     0.88815   0.14290   0.12420   0.00000  Uiso   1.00
C122   C     0.58598   0.38308   0.18966   0.00000  Uiso   1.00
C123   C     0.63259   0.33346   0.14464   0.00000  Uiso   1.00
C124   C     0.94058   0.30922   0.16658   0.00000  Uiso   1.00
C125   C     0.88777   0.14364   0.20897   0.00000  Uiso   1.00
C126   C     0.61356   0.14495   0.20909   0.00000  Uiso   1.00
C127   C     0.91414   0.38319   0.14400   0.00000  Uiso   1.00
C128   C     0.86741   0.33345   0.18876   0.00000  Uiso   1.00
C129   C     0.61402   0.14583   0.12440   0.00000  Uiso   1.00
C130   C     0.66410   0.36684   0.14393   0.00000  Uiso   1.00
C131   C     0.86364   0.10495   0.20908   0.00000  Uiso   1.00
C132   C     0.86395   0.10425   0.12439   0.00000  Uiso   1.00
C133   C     0.61745   0.41651   0.18884   0.00000  Uiso   1.00
C134   C     0.83593   0.36687   0.18955   0.00000  Uiso   1.00
C135   C     0.93857   0.19282   0.16661   0.00000  Uiso   1.00
C136   C     0.63822   0.10719   0.12419   0.00000  Uiso   1.00
C137   C     0.63768   0.10625   0.20895   0.00000  Uiso   1.00
C138   C     0.88262   0.41658   0.14472   0.00000  Uiso   1.00
C139   C     0.59345   0.34222   0.16715   0.00000  Uiso   1.00
C140   C     0.90293   0.16113   0.16655   0.00000  Uiso   1.00
C141   C     0.90656   0.34222   0.16625   0.00000  Uiso   1.00
C142   C     0.59829   0.16274   0.16679   0.00000  Uiso   1.00
C143   C     0.84829   0.08726   0.16677   0.00000  Uiso   1.00
C144   C     0.65657   0.40777   0.16626   0.00000  Uiso   1.00
C145   C     0.65292   0.08886   0.16653   0.00000  Uiso   1.00
C146   C     0.55941   0.30924   0.16676   0.00000  Uiso   1.00
C147   C     0.84344   0.40778   0.16716   0.00000  Uiso   1.00
C148   C     0.80941   0.44076   0.16676   0.00000  Uiso   1.00
C149   C     0.68857   0.05718   0.16660   0.00000  Uiso   1.00
C150   C     0.69058   0.44078   0.16658   0.00000  Uiso   1.00
C151   C     0.81179   0.05665   0.16672   0.00000  Uiso   1.00
C152   C     0.50779   0.21154   0.02450   0.00000  Uiso   1.00
Cu153  Cu    0.50000   0.25000   0.21355   0.00000  Uiso   1.00
Cu154  Cu    0.50000   0.25000   0.11978   0.00000  Uiso   1.00
Cu155  Cu    0.75000  -0.00000   0.21355   0.00000  Uiso   1.00
Cu156  Cu    0.75000  -0.00000   0.11978   0.00000  Uiso   1.00
H157   H     0.99818   0.17027   0.07431   0.00000  Uiso   1.00
H158   H     0.54593   0.41921   0.22597   0.00000  Uiso   1.00
H159   H     0.62230   0.26941   0.13634   0.00000  Uiso   1.00
H160   H     0.89124   0.19549   0.24792   0.00000  Uiso   1.00
H161   H     0.60918   0.19674   0.24807   0.00000  Uiso   1.00
H162   H     0.95456   0.41971   0.10859   0.00000  Uiso   1.00
H163   H     0.87781   0.26940   0.19725   0.00000  Uiso   1.00
H164   H     0.60970   0.19839   0.08644   0.00000  Uiso   1.00
H165   H     0.70443   0.33042   0.10829   0.00000  Uiso   1.00
H166   H     0.85928   0.05306   0.24794   0.00000  Uiso   1.00
H167   H     0.85962   0.05177   0.08632   0.00000  Uiso   1.00
H168   H     0.50138   0.32967   0.25919   0.00000  Uiso   1.00
H169   H     0.62780   0.48057   0.19731   0.00000  Uiso   1.00
H170   H     0.79570   0.33056   0.22546   0.00000  Uiso   1.00
H171   H     0.64193   0.05621   0.08413   0.00000  Uiso   1.00
H172   H     0.64112   0.05431   0.24777   0.00000  Uiso   1.00
H173   H     0.87230   0.48064   0.13642   0.00000  Uiso   1.00
H174   H     0.50165   0.32978   0.07401   0.00000  Uiso   1.00
H175   H     0.99858   0.17030   0.25890   0.00000  Uiso   1.00
H176   H     0.75166   0.42022   0.07402   0.00000  Uiso   1.00
H177   H     0.74858   0.07971   0.25890   0.00000  Uiso   1.00
H178   H     0.74818   0.07972   0.07430   0.00000  Uiso   1.00
H179   H     0.75138   0.42033   0.25920   0.00000  Uiso   1.00
H180   H     0.89181   0.19398   0.08427   0.00000  Uiso   1.00
N181   N     0.50000   0.25000   0.28402   0.00000  Uiso   1.00
N182   N     0.50000   0.25000   0.04931   0.00000  Uiso   1.00
N183   N     0.75000  -0.00000   0.28402   0.00000  Uiso   1.00
N184   N     0.75000  -0.00000   0.04931   0.00000  Uiso   1.00
O185   O     0.54508   0.20491   0.20625   0.00000  Uiso   1.00
O186   O     0.70491   0.04509   0.12709   0.00000  Uiso   1.00
O187   O     0.70491   0.04509   0.20625   0.00000  Uiso   1.00
O188   O     0.79508   0.45491   0.12709   0.00000  Uiso   1.00
O189   O     0.70491   0.45491   0.12709   0.00000  Uiso   1.00
O190   O     0.79508   0.04509   0.20625   0.00000  Uiso   1.00
O191   O     0.79508   0.04509   0.12709   0.00000  Uiso   1.00
O192   O     0.70491   0.45491   0.20625   0.00000  Uiso   1.00
O193   O     0.51502   0.17113   0.04575   0.00000  Uiso   1.00
O194   O     0.98427   0.32867   0.28755   0.00000  Uiso   1.00
O195   O     0.98432   0.32866   0.04564   0.00000  Uiso   1.00
O196   O     0.95491   0.29509   0.12709   0.00000  Uiso   1.00
O197   O     0.51519   0.17114   0.28776   0.00000  Uiso   1.00
O198   O     0.73433   0.42134   0.04565   0.00000  Uiso   1.00
O199   O     0.76520   0.07885   0.28775   0.00000  Uiso   1.00
O200   O     0.76501   0.07887   0.04574   0.00000  Uiso   1.00
O201   O     0.73427   0.42133   0.28756   0.00000  Uiso   1.00
O202   O     0.89736   0.16146   0.08171   0.00000  Uiso   1.00
O203   O     0.54673   0.38975   0.21047   0.00000  Uiso   1.00
O204   O     0.64147   0.29276   0.12403   0.00000  Uiso   1.00
O205   O     0.89653   0.16299   0.25128   0.00000  Uiso   1.00
O206   O     0.60504   0.16406   0.25149   0.00000  Uiso   1.00
O207   O     0.95491   0.29509   0.20625   0.00000  Uiso   1.00
O208   O     0.95354   0.39003   0.12361   0.00000  Uiso   1.00
O209   O     0.85851   0.29273   0.20935   0.00000  Uiso   1.00
O210   O     0.60588   0.16576   0.08224   0.00000  Uiso   1.00
O211   O     0.70348   0.36003   0.12346   0.00000  Uiso   1.00
O212   O     0.85520   0.08574   0.25145   0.00000  Uiso   1.00
O213   O     0.85575   0.08440   0.08219   0.00000  Uiso   1.00
O214   O     0.60856   0.45721   0.20947   0.00000  Uiso   1.00
O215   O     0.79663   0.36015   0.21024   0.00000  Uiso   1.00
O216   O     0.64753   0.08874   0.08168   0.00000  Uiso   1.00
O217   O     0.64636   0.08681   0.25124   0.00000  Uiso   1.00
O218   O     0.54508   0.20491   0.12709   0.00000  Uiso   1.00
O219   O     0.89153   0.45731   0.12418   0.00000  Uiso   1.00
O220   O     0.95491   0.20491   0.12709   0.00000  Uiso   1.00
O221   O     0.54508   0.29509   0.20625   0.00000  Uiso   1.00
O222   O     0.54508   0.29509   0.12709   0.00000  Uiso   1.00
O223   O     0.95491   0.20491   0.20625   0.00000  Uiso   1.00
O224   O     0.79508   0.45491   0.20625   0.00000  Uiso   1.00
C225   C     0.06179   0.69334   0.16673   0.00000  Uiso   1.00
C226   C     0.49196   0.78838   0.30884   0.00000  Uiso   1.00
C227   C     0.49198   0.78838   0.02442   0.00000  Uiso   1.00
C228   C     0.00782   0.71154   0.30892   0.00000  Uiso   1.00
C229   C     0.24198   0.96162   0.02442   0.00000  Uiso   1.00
C230   C     0.25783   0.53845   0.30892   0.00000  Uiso   1.00
C231   C     0.25779   0.53846   0.02449   0.00000  Uiso   1.00
C232   C     0.24196   0.96161   0.30885   0.00000  Uiso   1.00
C233   C     0.38815   0.64290   0.12420   0.00000  Uiso   1.00
C234   C     0.08598   0.88308   0.18966   0.00000  Uiso   1.00
C235   C     0.13259   0.83346   0.14464   0.00000  Uiso   1.00
C236   C     0.44058   0.80922   0.16658   0.00000  Uiso   1.00
C237   C     0.38777   0.64364   0.20897   0.00000  Uiso   1.00
C238   C     0.11356   0.64495   0.20909   0.00000  Uiso   1.00
C239   C     0.41414   0.88319   0.14400   0.00000  Uiso   1.00
C240   C     0.36741   0.83345   0.18876   0.00000  Uiso   1.00
C241   C     0.11402   0.64583   0.12440   0.00000  Uiso   1.00
C242   C     0.16410   0.86684   0.14393   0.00000  Uiso   1.00
C243   C     0.36364   0.60495   0.20908   0.00000  Uiso   1.00
C244   C     0.36395   0.60425   0.12439   0.00000  Uiso   1.00
C245   C     0.11745   0.91651   0.18884   0.00000  Uiso   1.00
C246   C     0.33593   0.86687   0.18955   0.00000  Uiso   1.00
C247   C     0.43857   0.69282   0.16661   0.00000  Uiso   1.00
C248   C     0.13822   0.60719   0.12419   0.00000  Uiso   1.00
C249   C     0.13768   0.60625   0.20895   0.00000  Uiso   1.00
C250   C     0.38262   0.91658   0.14472   0.00000  Uiso   1.00
C251   C     0.09345   0.84222   0.16715   0.00000  Uiso   1.00
C252   C     0.40293   0.66113   0.16655   0.00000  Uiso   1.00
C253   C     0.40656   0.84222   0.16625   0.00000  Uiso   1.00
C254   C     0.09829   0.66274   0.16679   0.00000  Uiso   1.00
C255   C     0.34829   0.58726   0.16677   0.00000  Uiso   1.00
C256   C     0.15657   0.90777   0.16626   0.00000  Uiso   1.00
C257   C     0.15292   0.58886   0.16653   0.00000  Uiso   1.00
C258   C     0.05941   0.80924   0.16676   0.00000  Uiso   1.00
C259   C     0.34344   0.90778   0.16716   0.00000  Uiso   1.00
C260   C     0.30941   0.94076   0.16676   0.00000  Uiso   1.00
C261   C     0.18857   0.55718   0.16660   0.00000  Uiso   1.00
C262   C     0.19058   0.94078   0.16658   0.00000  Uiso   1.00
C263   C     0.31179   0.55665   0.16672   0.00000  Uiso   1.00
C264   C     0.00779   0.71154   0.02450   0.00000  Uiso   1.00
Cu265  Cu    0.00000   0.75000   0.21355   0.00000  Uiso   1.00
Cu266  Cu    0.00000   0.75000   0.11978   0.00000  Uiso   1.00
Cu267  Cu    0.25000   0.50000   0.21355   0.00000  Uiso   1.00
Cu268  Cu    0.25000   0.50000   0.11978   0.00000  Uiso   1.00
H269   H     0.49818   0.67027   0.07431   0.00000  Uiso   1.00
H270   H     0.04593   0.91921   0.22597   0.00000  Uiso   1.00
H271   H     0.12230   0.76941   0.13634   0.00000  Uiso   1.00
H272   H     0.39124   0.69549   0.24792   0.00000  Uiso   1.00
H273   H     0.10918   0.69674   0.24807   0.00000  Uiso   1.00
H274   H     0.45456   0.91971   0.10859   0.00000  Uiso   1.00
H275   H     0.37781   0.76940   0.19725   0.00000  Uiso   1.00
H276   H     0.10970   0.69839   0.08644   0.00000  Uiso   1.00
H277   H     0.20443   0.83042   0.10829   0.00000  Uiso   1.00
H278   H     0.35928   0.55306   0.24794   0.00000  Uiso   1.00
H279   H     0.35962   0.55177   0.08632   0.00000  Uiso   1.00
H280   H     0.00138   0.82967   0.25919   0.00000  Uiso   1.00
H281   H     0.12780   0.98057   0.19731   0.00000  Uiso   1.00
H282   H     0.29570   0.83056   0.22546   0.00000  Uiso   1.00
H283   H     0.14193   0.55621   0.08413   0.00000  Uiso   1.00
H284   H     0.14112   0.55431   0.24777   0.00000  Uiso   1.00
H285   H     0.37230   0.98064   0.13642   0.00000  Uiso   1.00
H286   H     0.00165   0.82978   0.07401   0.00000  Uiso   1.00
H287   H     0.49858   0.67030   0.25890   0.00000  Uiso   1.00
H288   H     0.25166   0.92022   0.07402   0.00000  Uiso   1.00
H289   H     0.24858   0.57971   0.25890   0.00000  Uiso   1.00
H290   H     0.24818   0.57972   0.07430   0.00000  Uiso   1.00
H291   H     0.25138   0.92033   0.25920   0.00000  Uiso   1.00
H292   H     0.39181   0.69398   0.08427   0.00000  Uiso   1.00
N293   N     0.00000   0.75000   0.28402   0.00000  Uiso   1.00
N294   N     0.00000   0.75000   0.04931   0.00000  Uiso   1.00
N295   N     0.25000   0.50000   0.28402   0.00000  Uiso   1.00
N296   N     0.25000   0.50000   0.04931   0.00000  Uiso   1.00
O297   O     0.04508   0.70491   0.20625   0.00000  Uiso   1.00
O298   O     0.20491   0.54509   0.12709   0.00000  Uiso   1.00
O299   O     0.20491   0.54509   0.20625   0.00000  Uiso   1.00
O300   O     0.29508   0.95491   0.12709   0.00000  Uiso   1.00
O301   O     0.20491   0.95491   0.12709   0.00000  Uiso   1.00
O302   O     0.29508   0.54509   0.20625   0.00000  Uiso   1.00
O303   O     0.29508   0.54509   0.12709   0.00000  Uiso   1.00
O304   O     0.20491   0.95491   0.20625   0.00000  Uiso   1.00
O305   O     0.01502   0.67113   0.04575   0.00000  Uiso   1.00
O306   O     0.48427   0.82867   0.28755   0.00000  Uiso   1.00
O307   O     0.48432   0.82866   0.04564   0.00000  Uiso   1.00
O308   O     0.45491   0.79509   0.12709   0.00000  Uiso   1.00
O309   O     0.01519   0.67114   0.28776   0.00000  Uiso   1.00
O310   O     0.23433   0.92134   0.04565   0.00000  Uiso   1.00
O311   O     0.26520   0.57885   0.28775   0.00000  Uiso   1.00
O312   O     0.26501   0.57887   0.04574   0.00000  Uiso   1.00
O313   O     0.23427   0.92133   0.28756   0.00000  Uiso   1.00
O314   O     0.39736   0.66146   0.08171   0.00000  Uiso   1.00
O315   O     0.04673   0.88975   0.21047   0.00000  Uiso   1.00
O316   O     0.14147   0.79276   0.12403   0.00000  Uiso   1.00
O317   O     0.39653   0.66299   0.25128   0.00000  Uiso   1.00
O318   O     0.10504   0.66406   0.25149   0.00000  Uiso   1.00
O319   O     0.45491   0.79509   0.20625   0.00000  Uiso   1.00
O320   O     0.45354   0.89003   0.12361   0.00000  Uiso   1.00
O321   O     0.35851   0.79273   0.20935   0.00000  Uiso   1.00
O322   O     0.10588   0.66576   0.08224   0.00000  Uiso   1.00
O323   O     0.20348   0.86003   0.12346   0.00000  Uiso   1.00
O324   O     0.35520   0.58574   0.25145   0.00000  Uiso   1.00
O325   O     0.35575   0.58440   0.08219   0.00000  Uiso   1.00
O326   O     0.10856   0.95721   0.20947   0.00000  Uiso   1.00
O327   O     0.29663   0.86015   0.21024   0.00000  Uiso   1.00
O328   O     0.14753   0.58874   0.08168   0.00000  Uiso   1.00
O329   O     0.14636   0.58681   0.25124   0.00000  Uiso   1.00
O330   O     0.04508   0.70491   0.12709   0.00000  Uiso   1.00
O331   O     0.39153   0.95731   0.12418   0.00000  Uiso   1.00
O332   O     0.45491   0.70491   0.12709   0.00000  Uiso   1.00
O333   O     0.04508   0.79509   0.20625   0.00000  Uiso   1.00
O334   O     0.04508   0.79509   0.12709   0.00000  Uiso   1.00
O335   O     0.45491   0.70491   0.20625   0.00000  Uiso   1.00
O336   O     0.29508   0.95491   0.20625   0.00000  Uiso   1.00
C337   C     0.56179   0.69334   0.16673   0.00000  Uiso   1.00
C338   C     0.99196   0.78838   0.30884   0.00000  Uiso   1.00
C339   C     0.99198   0.78838   0.02442   0.00000  Uiso   1.00
C340   C     0.50782   0.71154   0.30892   0.00000  Uiso   1.00
C341   C     0.74198   0.96162   0.02442   0.00000  Uiso   1.00
C342   C     0.75783   0.53845   0.30892   0.00000  Uiso   1.00
C343   C     0.75779   0.53846   0.02449   0.00000  Uiso   1.00
C344   C     0.74196   0.96161   0.30885   0.00000  Uiso   1.00
C345   C     0.88815   0.64290   0.12420   0.00000  Uiso   1.00
C346   C     0.58598   0.88308   0.18966   0.00000  Uiso   1.00
C347   C     0.63259   0.83346   0.14464   0.00000  Uiso   1.00
C348   C     0.94058   0.80922   0.16658   0.00000  Uiso   1.00
C349   C     0.88777   0.64364   0.20897   0.00000  Uiso   1.00
C350   C     0.61356   0.64495   0.20909   0.00000  Uiso   1.00
C351   C     0.91414   0.88319   0.14400   0.00000  Uiso   1.00
C352   C     0.86741   0.83345   0.18876   0.00000  Uiso   1.00
C353   C     0.61402   0.64583   0.12440   0.00000  Uiso   1.00
C354   C     0.66410   0.86684   0.14393   0.00000  Uiso   1.00
C355   C     0.86364   0.60495   0.20908   0.00000  Uiso   1.00
C356   C     0.86395   0.60425   0.12439   0.00000  Uiso   1.00
C357   C     0.61745   0.91651   0.18884   0.00000  Uiso   1.00
C358   C     0.83593   0.86687   0.18955   0.00000  Uiso   1.00
C359   C     0.93857   0.69282   0.16661   0.00000  Uiso   1.00
C360   C     0.63822   0.60719   0.12419   0.00000  Uiso   1.00
C361   C     0.63768   0.60625   0.20895   0.00000  Uiso   1.00
C362   C     0.88262   0.91658   0.14472   0.00000  Uiso   1.00
C363   C     0.59345   0.84222   0.16715   0.00000  Uiso   1.00
C364   C     0.90293   0.66113   0.16655   0.00000  Uiso   1.00
C365   C     0.90656   0.84222   0.16625   0.00000  Uiso   1.00
C366   C     0.59829   0.66274   0.16679   0.00000  Uiso   1.00
C367   C     0.84829   0.58726   0.16677   0.00000  Uiso   1.00
C368   C     0.65657   0.90777   0.16626   0.00000  Uiso   1.00
C369   C     0.65292   0.58886   0.16653   0.00000  Uiso   1.00
C370   C     0.55941   0.80924   0.16676   0.00000  Uiso   1.00
C371   C     0.84344   0.90778   0.16716   0.00000  Uiso   1.00
C372   C     0.80941   0.94076   0.16676   0.00000  Uiso   1.00
C373   C     0.68857   0.55718   0.16660   0.00000  Uiso   1.00
C374   C     0.69058   0.94078   0.16658   0.00000  Uiso   1.00
C375   C     0.81179   0.55665   0.16672   0.00000  Uiso   1.00
C376   C     0.50779   0.71154   0.02450   0.00000  Uiso   1.00
Cu377  Cu    0.50000   0.75000   0.21355   0.00000  Uiso   1.00
Cu378  Cu    0.50000   0.75000   0.11978   0.00000  Uiso   1.00
Cu379  Cu    0.75000   0.50000   0.21355   0.00000  Uiso   1.00
Cu380  Cu    0.75000   0.50000   0.11978   0.00000  Uiso   1.00
H381   H     0.99818   0.67027   0.07431   0.00000  Uiso   1.00
H382   H     0.54593   0.91921   0.22597   0.00000  Uiso   1.00
H383   H     0.62230   0.76941   0.13634   0.00000  Uiso   1.00
H384   H     0.89124   0.69549   0.24792   0.00000  Uiso   1.00
H385   H     0.60918   0.69674   0.24807   0.00000  Uiso   1.00
H386   H     0.95456   0.91971   0.10859   0.00000  Uiso   1.00
H387   H     0.87781   0.76940   0.19725   0.00000  Uiso   1.00
H388   H     0.60970   0.69839   0.08644   0.00000  Uiso   1.00
H389   H     0.70443   0.83042   0.10829   0.00000  Uiso   1.00
H390   H     0.85928   0.55306   0.24794   0.00000  Uiso   1.00
H391   H     0.85962   0.55177   0.08632   0.00000  Uiso   1.00
H392   H     0.50138   0.82967   0.25919   0.00000  Uiso   1.00
H393   H     0.62780   0.98057   0.19731   0.00000  Uiso   1.00
H394   H     0.79570   0.83056   0.22546   0.00000  Uiso   1.00
H395   H     0.64193   0.55621   0.08413   0.00000  Uiso   1.00
H396   H     0.64112   0.55431   0.24777   0.00000  Uiso   1.00
H397   H     0.87230   0.98064   0.13642   0.00000  Uiso   1.00
H398   H     0.50165   0.82978   0.07401   0.00000  Uiso   1.00
H399   H     0.99858   0.67030   0.25890   0.00000  Uiso   1.00
H400   H     0.75166   0.92022   0.07402   0.00000  Uiso   1.00
H401   H     0.74858   0.57971   0.25890   0.00000  Uiso   1.00
H402   H     0.74818   0.57972   0.07430   0.00000  Uiso   1.00
H403   H     0.75138   0.92033   0.25920   0.00000  Uiso   1.00
H404   H     0.89181   0.69398   0.08427   0.00000  Uiso   1.00
N405   N     0.50000   0.75000   0.28402   0.00000  Uiso   1.00
N406   N     0.50000   0.75000   0.04931   0.00000  Uiso   1.00
N407   N     0.75000   0.50000   0.28402   0.00000  Uiso   1.00
N408   N     0.75000   0.50000   0.04931   0.00000  Uiso   1.00
O409   O     0.54508   0.70491   0.20625   0.00000  Uiso   1.00
O410   O     0.70491   0.54509   0.12709   0.00000  Uiso   1.00
O411   O     0.70491   0.54509   0.20625   0.00000  Uiso   1.00
O412   O     0.79508   0.95491   0.12709   0.00000  Uiso   1.00
O413   O     0.70491   0.95491   0.12709   0.00000  Uiso   1.00
O414   O     0.79508   0.54509   0.20625   0.00000  Uiso   1.00
O415   O     0.79508   0.54509   0.12709   0.00000  Uiso   1.00
O416   O     0.70491   0.95491   0.20625   0.00000  Uiso   1.00
O417   O     0.51502   0.67113   0.04575   0.00000  Uiso   1.00
O418   O     0.98427   0.82867   0.28755   0.00000  Uiso   1.00
O419   O     0.98432   0.82866   0.04564   0.00000  Uiso   1.00
O420   O     0.95491   0.79509   0.12709   0.00000  Uiso   1.00
O421   O     0.51519   0.67114   0.28776   0.00000  Uiso   1.00
O422   O     0.73433   0.92134   0.04565   0.00000  Uiso   1.00
O423   O     0.76520   0.57885   0.28775   0.00000  Uiso   1.00
O424   O     0.76501   0.57887   0.04574   0.00000  Uiso   1.00
O425   O     0.73427   0.92133   0.28756   0.00000  Uiso   1.00
O426   O     0.89736   0.66146   0.08171   0.00000  Uiso   1.00
O427   O     0.54673   0.88975   0.21047   0.00000  Uiso   1.00
O428   O     0.64147   0.79276   0.12403   0.00000  Uiso   1.00
O429   O     0.89653   0.66299   0.25128   0.00000  Uiso   1.00
O430   O     0.60504   0.66406   0.25149   0.00000  Uiso   1.00
O431   O     0.95491   0.79509   0.20625   0.00000  Uiso   1.00
O432   O     0.95354   0.89003   0.12361   0.00000  Uiso   1.00
O433   O     0.85851   0.79273   0.20935   0.00000  Uiso   1.00
O434   O     0.60588   0.66576   0.08224   0.00000  Uiso   1.00
O435   O     0.70348   0.86003   0.12346   0.00000  Uiso   1.00
O436   O     0.85520   0.58574   0.25145   0.00000  Uiso   1.00
O437   O     0.85575   0.58440   0.08219   0.00000  Uiso   1.00
O438   O     0.60856   0.95721   0.20947   0.00000  Uiso   1.00
O439   O     0.79663   0.86015   0.21024   0.00000  Uiso   1.00
O440   O     0.64753   0.58874   0.08168   0.00000  Uiso   1.00
O441   O     0.64636   0.58681   0.25124   0.00000  Uiso   1.00
O442   O     0.54508   0.70491   0.12709   0.00000  Uiso   1.00
O443   O     0.89153   0.95731   0.12418   0.00000  Uiso   1.00
O444   O     0.95491   0.70491   0.12709   0.00000  Uiso   1.00
O445   O     0.54508   0.79509   0.20625   0.00000  Uiso   1.00
O446   O     0.54508   0.79509   0.12709   0.00000  Uiso   1.00
O447   O     0.95491   0.70491   0.20625   0.00000  Uiso   1.00
O448   O     0.79508   0.95491   0.20625   0.00000  Uiso   1.00
C449   C     0.06179   0.19334   0.50006   0.00000  Uiso   1.00
C450   C     0.49196   0.28838   0.64218   0.00000  Uiso   1.00
C451   C     0.49198   0.28838   0.35775   0.00000  Uiso   1.00
C452   C     0.00782   0.21154   0.64226   0.00000  Uiso   1.00
C453   C     0.24198   0.46162   0.35775   0.00000  Uiso   1.00
C454   C     0.25783   0.03845   0.64225   0.00000  Uiso   1.00
C455   C     0.25779   0.03846   0.35782   0.00000  Uiso   1.00
C456   C     0.24196   0.46161   0.64218   0.00000  Uiso   1.00
C457   C     0.38815   0.14290   0.45754   0.00000  Uiso   1.00
C458   C     0.08598   0.38308   0.52299   0.00000  Uiso   1.00
C459   C     0.13259   0.33346   0.47798   0.00000  Uiso   1.00
C460   C     0.44058   0.30922   0.49991   0.00000  Uiso   1.00
C461   C     0.38777   0.14364   0.54231   0.00000  Uiso   1.00
C462   C     0.11356   0.14495   0.54242   0.00000  Uiso   1.00
C463   C     0.41414   0.38319   0.47734   0.00000  Uiso   1.00
C464   C     0.36741   0.33345   0.52209   0.00000  Uiso   1.00
C465   C     0.11402   0.14583   0.45774   0.00000  Uiso   1.00
C466   C     0.16410   0.36684   0.47726   0.00000  Uiso   1.00
C467   C     0.36364   0.10495   0.54241   0.00000  Uiso   1.00
C468   C     0.36395   0.10425   0.45772   0.00000  Uiso   1.00
C469   C     0.11745   0.41651   0.52218   0.00000  Uiso   1.00
C470   C     0.33593   0.36687   0.52289   0.00000  Uiso   1.00
C471   C     0.43857   0.19282   0.49994   0.00000  Uiso   1.00
C472   C     0.13822   0.10719   0.45753   0.00000  Uiso   1.00
C473   C     0.13768   0.10625   0.54229   0.00000  Uiso   1.00
C474   C     0.38262   0.41658   0.47806   0.00000  Uiso   1.00
C475   C     0.09345   0.34222   0.50049   0.00000  Uiso   1.00
C476   C     0.40293   0.16113   0.49989   0.00000  Uiso   1.00
C477   C     0.40656   0.34222   0.49958   0.00000  Uiso   1.00
C478   C     0.09829   0.16274   0.50012   0.00000  Uiso   1.00
C479   C     0.34829   0.08726   0.50010   0.00000  Uiso   1.00
C480   C     0.15657   0.40777   0.49959   0.00000  Uiso   1.00
C481   C     0.15292   0.08886   0.49986   0.00000  Uiso   1.00
C482   C     0.05941   0.30924   0.50010   0.00000  Uiso   1.00
C483   C     0.34344   0.40778   0.50049   0.00000  Uiso   1.00
C484   C     0.30941   0.44076   0.50010   0.00000  Uiso   1.00
C485   C     0.18857   0.05718   0.49994   0.00000  Uiso   1.00
C486   C     0.19058   0.44078   0.49992   0.00000  Uiso   1.00
C487   C     0.31179   0.05665   0.50005   0.00000  Uiso   1.00
C488   C     0.00779   0.21154   0.35783   0.00000  Uiso   1.00
Cu489  Cu    0.00000   0.25000   0.54689   0.00000  Uiso   1.00
Cu490  Cu    0.00000   0.25000   0.45311   0.00000  Uiso   1.00
Cu491  Cu    0.25000  -0.00000   0.54689   0.00000  Uiso   1.00
Cu492  Cu    0.25000  -0.00000   0.45311   0.00000  Uiso   1.00
H493   H     0.49818   0.17027   0.40764   0.00000  Uiso   1.00
H494   H     0.04593   0.41921   0.55931   0.00000  Uiso   1.00
H495   H     0.12230   0.26941   0.46967   0.00000  Uiso   1.00
H496   H     0.39124   0.19549   0.58125   0.00000  Uiso   1.00
H497   H     0.10918   0.19674   0.58140   0.00000  Uiso   1.00
H498   H     0.45456   0.41971   0.44192   0.00000  Uiso   1.00
H499   H     0.37781   0.26940   0.53058   0.00000  Uiso   1.00
H500   H     0.10970   0.19839   0.41977   0.00000  Uiso   1.00
H501   H     0.20443   0.33042   0.44163   0.00000  Uiso   1.00
H502   H     0.35928   0.05306   0.58127   0.00000  Uiso   1.00
H503   H     0.35962   0.05177   0.41966   0.00000  Uiso   1.00
H504   H     0.00138   0.32967   0.59252   0.00000  Uiso   1.00
H505   H     0.12780   0.48057   0.53064   0.00000  Uiso   1.00
H506   H     0.29570   0.33056   0.55879   0.00000  Uiso   1.00
H507   H     0.14193   0.05621   0.41747   0.00000  Uiso   1.00
H508   H     0.14112   0.05431   0.58111   0.00000  Uiso   1.00
H509   H     0.37230   0.48064   0.46976   0.00000  Uiso   1.00
H510   H     0.00165   0.32978   0.40735   0.00000  Uiso   1.00
H511   H     0.49858   0.17030   0.59223   0.00000  Uiso   1.00
H512   H     0.25166   0.42022   0.40735   0.00000  Uiso   1.00
H513   H     0.24858   0.07971   0.59223   0.00000  Uiso   1.00
H514   H     0.24818   0.07972   0.40764   0.00000  Uiso   1.00
H515   H     0.25138   0.42033   0.59253   0.00000  Uiso   1.00
H516   H     0.39181   0.19398   0.41761   0.00000  Uiso   1.00
N517   N     0.00000   0.25000   0.61736   0.00000  Uiso   1.00
N518   N     0.00000   0.25000   0.38264   0.00000  Uiso   1.00
N519   N     0.25000  -0.00000   0.61736   0.00000  Uiso   1.00
N520   N     0.25000  -0.00000   0.38264   0.00000  Uiso   1.00
O521   O     0.04508   0.20491   0.53958   0.00000  Uiso   1.00
O522   O     0.20491   0.04509   0.46042   0.00000  Uiso   1.00
O523   O     0.20491   0.04509   0.53958   0.00000  Uiso   1.00
O524   O     0.29508   0.45491   0.46042   0.00000  Uiso   1.00
O525   O     0.20491   0.45491   0.46042   0.00000  Uiso   1.00
O526   O     0.29508   0.04509   0.53958   0.00000  Uiso   1.00
O527   O     0.29508   0.04509   0.46042   0.00000  Uiso   1.00
O528   O     0.20491   0.45491   0.53958   0.00000  Uiso   1.00
O529   O     0.01502   0.17113   0.37908   0.00000  Uiso   1.00
O530   O     0.48427   0.32867   0.62088   0.00000  Uiso   1.00
O531   O     0.48432   0.32866   0.37898   0.00000  Uiso   1.00
O532   O     0.45491   0.29509   0.46042   0.00000  Uiso   1.00
O533   O     0.01519   0.17114   0.62110   0.00000  Uiso   1.00
O534   O     0.23433   0.42134   0.37899   0.00000  Uiso   1.00
O535   O     0.26520   0.07885   0.62108   0.00000  Uiso   1.00
O536   O     0.26501   0.07887   0.37907   0.00000  Uiso   1.00
O537   O     0.23427   0.42133   0.62090   0.00000  Uiso   1.00
O538   O     0.39736   0.16146   0.41505   0.00000  Uiso   1.00
O539   O     0.04673   0.38975   0.54380   0.00000  Uiso   1.00
O540   O     0.14147   0.29276   0.45737   0.00000  Uiso   1.00
O541   O     0.39653   0.16299   0.58462   0.00000  Uiso   1.00
O542   O     0.10504   0.16406   0.58482   0.00000  Uiso   1.00
O543   O     0.45491   0.29509   0.53958   0.00000  Uiso   1.00
O544   O     0.45354   0.39003   0.45695   0.00000  Uiso   1.00
O545   O     0.35851   0.29273   0.54268   0.00000  Uiso   1.00
O546   O     0.10588   0.16576   0.41557   0.00000  Uiso   1.00
O547   O     0.20348   0.36003   0.45679   0.00000  Uiso   1.00
O548   O     0.35520   0.08574   0.58479   0.00000  Uiso   1.00
O549   O     0.35575   0.08440   0.41553   0.00000  Uiso   1.00
O550   O     0.10856   0.45721   0.54281   0.00000  Uiso   1.00
O551   O     0.29663   0.36015   0.54357   0.00000  Uiso   1.00
O552   O     0.14753   0.08874   0.41501   0.00000  Uiso   1.00
O553   O     0.14636   0.08681   0.58457   0.00000  Uiso   1.00
O554   O     0.04508   0.20491   0.46042   0.00000  Uiso   1.00
O555   O     0.39153   0.45731   0.45751   0.00000  Uiso   1.00
O556   O     0.45491   0.20491   0.46042   0.00000  Uiso   1.00
O557   O     0.04508   0.29509   0.53958   0.00000  Uiso   1.00
O558   O     0.04508   0.29509   0.46042   0.00000  Uiso   1.00
O559   O     0.45491   0.20491   0.53958   0.00000  Uiso   1.00
O560   O     0.29508   0.45491   0.53958   0.00000  Uiso   1.00
C561   C     0.56179   0.19334   0.50006   0.00000  Uiso   1.00
C562   C     0.99196   0.28838   0.64218   0.00000  Uiso   1.00
C563   C     0.99198   0.28838   0.35775   0.00000  Uiso   1.00
C564   C     0.50782   0.21154   0.64226   0.00000  Uiso   1.00
C565   C     0.74198   0.46162   0.35775   0.00000  Uiso   1.00
C566   C     0.75783   0.03845   0.64225   0.00000  Uiso   1.00
C567   C     0.75779   0.03846   0.35782   0.00000  Uiso   1.00
C568   C     0.74196   0.46161   0.64218   0.00000  Uiso   1.00
C569   C     0.88815   0.14290   0.45754   0.00000  Uiso   1.00
C570   C     0.58598   0.38308   0.52299   0.00000  Uiso   1.00
C571   C     0.63259   0.33346   0.47798   0.00000  Uiso   1.00
C572   C     0.94058   0.30922   0.49991   0.00000  Uiso   1.00
C573   C     0.88777   0.14364   0.54231   0.00000  Uiso   1.00
C574   C     0.61356   0.14495   0.54242   0.00000  Uiso   1.00
C575   C     0.91414   0.38319   0.47734   0.00000  Uiso   1.00
C576   C     0.86741   0.33345   0.52209   0.00000  Uiso   1.00
C577   C     0.61402   0.14583   0.45774   0.00000  Uiso   1.00
C578   C     0.66410   0.36684   0.47726   0.00000  Uiso   1.00
C579   C     0.86364   0.10495   0.54241   0.00000  Uiso   1.00
C580   C     0.86395   0.10425   0.45772   0.00000  Uiso   1.00
C581   C     0.61745   0.41651   0.52218   0.00000  Uiso   1.00
C582   C     0.83593   0.36687   0.52289   0.00000  Uiso   1.00
C583   C     0.93857   0.19282   0.49994   0.00000  Uiso   1.00
C584   C     0.63822   0.10719   0.45753   0.00000  Uiso   1.00
C585   C     0.63768   0.10625   0.54229   0.00000  Uiso   1.00
C586   C     0.88262   0.41658   0.47806   0.00000  Uiso   1.00
C587   C     0.59345   0.34222   0.50049   0.00000  Uiso   1.00
C588   C     0.90293   0.16113   0.49989   0.00000  Uiso   1.00
C589   C     0.90656   0.34222   0.49958   0.00000  Uiso   1.00
C590   C     0.59829   0.16274   0.50012   0.00000  Uiso   1.00
C591   C     0.84829   0.08726   0.50010   0.00000  Uiso   1.00
C592   C     0.65657   0.40777   0.49959   0.00000  Uiso   1.00
C593   C     0.65292   0.08886   0.49986   0.00000  Uiso   1.00
C594   C     0.55941   0.30924   0.50010   0.00000  Uiso   1.00
C595   C     0.84344   0.40778   0.50049   0.00000  Uiso   1.00
C596   C     0.80941   0.44076   0.50010   0.00000  Uiso   1.00
C597   C     0.68857   0.05718   0.49994   0.00000  Uiso   1.00
C598   C     0.69058   0.44078   0.49992   0.00000  Uiso   1.00
C599   C     0.81179   0.05665   0.50005   0.00000  Uiso   1.00
C600   C     0.50779   0.21154   0.35783   0.00000  Uiso   1.00
Cu601  Cu    0.50000   0.25000   0.54689   0.00000  Uiso   1.00
Cu602  Cu    0.50000   0.25000   0.45311   0.00000  Uiso   1.00
Cu603  Cu    0.75000  -0.00000   0.54689   0.00000  Uiso   1.00
Cu604  Cu    0.75000  -0.00000   0.45311   0.00000  Uiso   1.00
H605   H     0.99818   0.17027   0.40764   0.00000  Uiso   1.00
H606   H     0.54593   0.41921   0.55931   0.00000  Uiso   1.00
H607   H     0.62230   0.26941   0.46967   0.00000  Uiso   1.00
H608   H     0.89124   0.19549   0.58125   0.00000  Uiso   1.00
H609   H     0.60918   0.19674   0.58140   0.00000  Uiso   1.00
H610   H     0.95456   0.41971   0.44192   0.00000  Uiso   1.00
H611   H     0.87781   0.26940   0.53058   0.00000  Uiso   1.00
H612   H     0.60970   0.19839   0.41977   0.00000  Uiso   1.00
H613   H     0.70443   0.33042   0.44163   0.00000  Uiso   1.00
H614   H     0.85928   0.05306   0.58127   0.00000  Uiso   1.00
H615   H     0.85962   0.05177   0.41966   0.00000  Uiso   1.00
H616   H     0.50138   0.32967   0.59252   0.00000  Uiso   1.00
H617   H     0.62780   0.48057   0.53064   0.00000  Uiso   1.00
H618   H     0.79570   0.33056   0.55879   0.00000  Uiso   1.00
H619   H     0.64193   0.05621   0.41747   0.00000  Uiso   1.00
H620   H     0.64112   0.05431   0.58111   0.00000  Uiso   1.00
H621   H     0.87230   0.48064   0.46976   0.00000  Uiso   1.00
H622   H     0.50165   0.32978   0.40735   0.00000  Uiso   1.00
H623   H     0.99858   0.17030   0.59223   0.00000  Uiso   1.00
H624   H     0.75166   0.42022   0.40735   0.00000  Uiso   1.00
H625   H     0.74858   0.07971   0.59223   0.00000  Uiso   1.00
H626   H     0.74818   0.07972   0.40764   0.00000  Uiso   1.00
H627   H     0.75138   0.42033   0.59253   0.00000  Uiso   1.00
H628   H     0.89181   0.19398   0.41761   0.00000  Uiso   1.00
N629   N     0.50000   0.25000   0.61736   0.00000  Uiso   1.00
N630   N     0.50000   0.25000   0.38264   0.00000  Uiso   1.00
N631   N     0.75000  -0.00000   0.61736   0.00000  Uiso   1.00
N632   N     0.75000  -0.00000   0.38264   0.00000  Uiso   1.00
O633   O     0.54508   0.20491   0.53958   0.00000  Uiso   1.00
O634   O     0.70491   0.04509   0.46042   0.00000  Uiso   1.00
O635   O     0.70491   0.04509   0.53958   0.00000  Uiso   1.00
O636   O     0.79508   0.45491   0.46042   0.00000  Uiso   1.00
O637   O     0.70491   0.45491   0.46042   0.00000  Uiso   1.00
O638   O     0.79508   0.04509   0.53958   0.00000  Uiso   1.00
O639   O     0.79508   0.04509   0.46042   0.00000  Uiso   1.00
O640   O     0.70491   0.45491   0.53958   0.00000  Uiso   1.00
O641   O     0.51502   0.17113   0.37908   0.00000  Uiso   1.00
O642   O     0.98427   0.32867   0.62088   0.00000  Uiso   1.00
O643   O     0.98432   0.32866   0.37898   0.00000  Uiso   1.00
O644   O     0.95491   0.29509   0.46042   0.00000  Uiso   1.00
O645   O     0.51519   0.17114   0.62110   0.00000  Uiso   1.00
O646   O     0.73433   0.42134   0.37899   0.00000  Uiso   1.00
O647   O     0.76520   0.07885   0.62108   0.00000  Uiso   1.00
O648   O     0.76501   0.07887   0.37907   0.00000  Uiso   1.00
O649   O     0.73427   0.42133   0.62090   0.00000  Uiso   1.00
O650   O     0.89736   0.16146   0.41505   0.00000  Uiso   1.00
O651   O     0.54673   0.38975   0.54380   0.00000  Uiso   1.00
O652   O     0.64147   0.29276   0.45737   0.00000  Uiso   1.00
O653   O     0.89653   0.16299   0.58462   0.00000  Uiso   1.00
O654   O     0.60504   0.16406   0.58482   0.00000  Uiso   1.00
O655   O     0.95491   0.29509   0.53958   0.00000  Uiso   1.00
O656   O     0.95354   0.39003   0.45695   0.00000  Uiso   1.00
O657   O     0.85851   0.29273   0.54268   0.00000  Uiso   1.00
O658   O     0.60588   0.16576   0.41557   0.00000  Uiso   1.00
O659   O     0.70348   0.36003   0.45679   0.00000  Uiso   1.00
O660   O     0.85520   0.08574   0.58479   0.00000  Uiso   1.00
O661   O     0.85575   0.08440   0.41553   0.00000  Uiso   1.00
O662   O     0.60856   0.45721   0.54281   0.00000  Uiso   1.00
O663   O     0.79663   0.36015   0.54357   0.00000  Uiso   1.00
O664   O     0.64753   0.08874   0.41501   0.00000  Uiso   1.00
O665   O     0.64636   0.08681   0.58457   0.00000  Uiso   1.00
O666   O     0.54508   0.20491   0.46042   0.00000  Uiso   1.00
O667   O     0.89153   0.45731   0.45751   0.00000  Uiso   1.00
O668   O     0.95491   0.20491   0.46042   0.00000  Uiso   1.00
O669   O     0.54508   0.29509   0.53958   0.00000  Uiso   1.00
O670   O     0.54508   0.29509   0.46042   0.00000  Uiso   1.00
O671   O     0.95491   0.20491   0.53958   0.00000  Uiso   1.00
O672   O     0.79508   0.45491   0.53958   0.00000  Uiso   1.00
C673   C     0.06179   0.69334   0.50006   0.00000  Uiso   1.00
C674   C     0.49196   0.78838   0.64218   0.00000  Uiso   1.00
C675   C     0.49198   0.78838   0.35775   0.00000  Uiso   1.00
C676   C     0.00782   0.71154   0.64226   0.00000  Uiso   1.00
C677   C     0.24198   0.96162   0.35775   0.00000  Uiso   1.00
C678   C     0.25783   0.53845   0.64225   0.00000  Uiso   1.00
C679   C     0.25779   0.53846   0.35782   0.00000  Uiso   1.00
C680   C     0.24196   0.96161   0.64218   0.00000  Uiso   1.00
C681   C     0.38815   0.64290   0.45754   0.00000  Uiso   1.00
C682   C     0.08598   0.88308   0.52299   0.00000  Uiso   1.00
C683   C     0.13259   0.83346   0.47798   0.00000  Uiso   1.00
C684   C     0.44058   0.80922   0.49991   0.00000  Uiso   1.00
C685   C     0.38777   0.64364   0.54231   0.00000  Uiso   1.00
C686   C     0.11356   0.64495   0.54242   0.00000  Uiso   1.00
C687   C     0.41414   0.88319   0.47734   0.00000  Uiso   1.00
C688   C     0.36741   0.83345   0.52209   0.00000  Uiso   1.00
C689   C     0.11402   0.64583   0.45774   0.00000  Uiso   1.00
C690   C     0.16410   0.86684   0.47726   0.00000  Uiso   1.00
C691   C     0.36364   0.60495   0.54241   0.00000  Uiso   1.00
C692   C     0.36395   0.60425   0.45772   0.00000  Uiso   1.00
C693   C     0.11745   0.91651   0.52218   0.00000  Uiso   1.00
C694   C     0.33593   0.86687   0.52289   0.00000  Uiso   1.00
C695   C     0.43857   0.69282   0.49994   0.00000  Uiso   1.00
C696   C     0.13822   0.60719   0.45753   0.00000  Uiso   1.00
C697   C     0.13768   0.60625   0.54229   0.00000  Uiso   1.00
C698   C     0.38262   0.91658   0.47806   0.00000  Uiso   1.00
C699   C     0.09345   0.84222   0.50049   0.00000  Uiso   1.00
C700   C     0.40293   0.66113   0.49989   0.00000  Uiso   1.00
C701   C     0.40656   0.84222   0.49958   0.00000  Uiso   1.00
C702   C     0.09829   0.66274   0.50012   0.00000  Uiso   1.00
C703   C     0.34829   0.58726   0.50010   0.00000  Uiso   1.00
C704   C     0.15657   0.90777   0.49959   0.00000  Uiso   1.00
C705   C     0.15292   0.58886   0.49986   0.00000  Uiso   1.00
C706   C     0.05941   0.80924   0.50010   0.00000  Uiso   1.00
C707   C     0.34344   0.90778   0.50049   0.00000  Uiso   1.00
C708   C     0.30941   0.94076   0.50010   0.00000  Uiso   1.00
C709   C     0.18857   0.55718   0.49994   0.00000  Uiso   1.00
C710   C     0.19058   0.94078   0.49992   0.00000  Uiso   1.00
C711   C     0.31179   0.55665   0.50005   0.00000  Uiso   1.00
C712   C     0.00779   0.71154   0.35783   0.00000  Uiso   1.00
Cu713  Cu    0.00000   0.75000   0.54689   0.00000  Uiso   1.00
Cu714  Cu    0.00000   0.75000   0.45311   0.00000  Uiso   1.00
Cu715  Cu    0.25000   0.50000   0.54689   0.00000  Uiso   1.00
Cu716  Cu    0.25000   0.50000   0.45311   0.00000  Uiso   1.00
H717   H     0.49818   0.67027   0.40764   0.00000  Uiso   1.00
H718   H     0.04593   0.91921   0.55931   0.00000  Uiso   1.00
H719   H     0.12230   0.76941   0.46967   0.00000  Uiso   1.00
H720   H     0.39124   0.69549   0.58125   0.00000  Uiso   1.00
H721   H     0.10918   0.69674   0.58140   0.00000  Uiso   1.00
H722   H     0.45456   0.91971   0.44192   0.00000  Uiso   1.00
H723   H     0.37781   0.76940   0.53058   0.00000  Uiso   1.00
H724   H     0.10970   0.69839   0.41977   0.00000  Uiso   1.00
H725   H     0.20443   0.83042   0.44163   0.00000  Uiso   1.00
H726   H     0.35928   0.55306   0.58127   0.00000  Uiso   1.00
H727   H     0.35962   0.55177   0.41966   0.00000  Uiso   1.00
H728   H     0.00138   0.82967   0.59252   0.00000  Uiso   1.00
H729   H     0.12780   0.98057   0.53064   0.00000  Uiso   1.00
H730   H     0.29570   0.83056   0.55879   0.00000  Uiso   1.00
H731   H     0.14193   0.55621   0.41747   0.00000  Uiso   1.00
H732   H     0.14112   0.55431   0.58111   0.00000  Uiso   1.00
H733   H     0.37230   0.98064   0.46976   0.00000  Uiso   1.00
H734   H     0.00165   0.82978   0.40735   0.00000  Uiso   1.00
H735   H     0.49858   0.67030   0.59223   0.00000  Uiso   1.00
H736   H     0.25166   0.92022   0.40735   0.00000  Uiso   1.00
H737   H     0.24858   0.57971   0.59223   0.00000  Uiso   1.00
H738   H     0.24818   0.57972   0.40764   0.00000  Uiso   1.00
H739   H     0.25138   0.92033   0.59253   0.00000  Uiso   1.00
H740   H     0.39181   0.69398   0.41761   0.00000  Uiso   1.00
N741   N     0.00000   0.75000   0.61736   0.00000  Uiso   1.00
N742   N     0.00000   0.75000   0.38264   0.00000  Uiso   1.00
N743   N     0.25000   0.50000   0.61736   0.00000  Uiso   1.00
N744   N     0.25000   0.50000   0.38264   0.00000  Uiso   1.00
O745   O     0.04508   0.70491   0.53958   0.00000  Uiso   1.00
O746   O     0.20491   0.54509   0.46042   0.00000  Uiso   1.00
O747   O     0.20491   0.54509   0.53958   0.00000  Uiso   1.00
O748   O     0.29508   0.95491   0.46042   0.00000  Uiso   1.00
O749   O     0.20491   0.95491   0.46042   0.00000  Uiso   1.00
O750   O     0.29508   0.54509   0.53958   0.00000  Uiso   1.00
O751   O     0.29508   0.54509   0.46042   0.00000  Uiso   1.00
O752   O     0.20491   0.95491   0.53958   0.00000  Uiso   1.00
O753   O     0.01502   0.67113   0.37908   0.00000  Uiso   1.00
O754   O     0.48427   0.82867   0.62088   0.00000  Uiso   1.00
O755   O     0.48432   0.82866   0.37898   0.00000  Uiso   1.00
O756   O     0.45491   0.79509   0.46042   0.00000  Uiso   1.00
O757   O     0.01519   0.67114   0.62110   0.00000  Uiso   1.00
O758   O     0.23433   0.92134   0.37899   0.00000  Uiso   1.00
O759   O     0.26520   0.57885   0.62108   0.00000  Uiso   1.00
O760   O     0.26501   0.57887   0.37907   0.00000  Uiso   1.00
O761   O     0.23427   0.92133   0.62090   0.00000  Uiso   1.00
O762   O     0.39736   0.66146   0.41505   0.00000  Uiso   1.00
O763   O     0.04673   0.88975   0.54380   0.00000  Uiso   1.00
O764   O     0.14147   0.79276   0.45737   0.00000  Uiso   1.00
O765   O     0.39653   0.66299   0.58462   0.00000  Uiso   1.00
O766   O     0.10504   0.66406   0.58482   0.00000  Uiso   1.00
O767   O     0.45491   0.79509   0.53958   0.00000  Uiso   1.00
O768   O     0.45354   0.89003   0.45695   0.00000  Uiso   1.00
O769   O     0.35851   0.79273   0.54268   0.00000  Uiso   1.00
O770   O     0.10588   0.66576   0.41557   0.00000  Uiso   1.00
O771   O     0.20348   0.86003   0.45679   0.00000  Uiso   1.00
O772   O     0.35520   0.58574   0.58479   0.00000  Uiso   1.00
O773   O     0.35575   0.58440   0.41553   0.00000  Uiso   1.00
O774   O     0.10856   0.95721   0.54281   0.00000  Uiso   1.00
O775   O     0.29663   0.86015   0.54357   0.00000  Uiso   1.00
O776   O     0.14753   0.58874   0.41501   0.00000  Uiso   1.00
O777   O     0.14636   0.58681   0.58457   0.00000  Uiso   1.00
O778   O     0.04508   0.70491   0.46042   0.00000  Uiso   1.00
O779   O     0.39153   0.95731   0.45751   0.00000  Uiso   1.00
O780   O     0.45491   0.70491   0.46042   0.00000  Uiso   1.00
O781   O     0.04508   0.79509   0.53958   0.00000  Uiso   1.00
O782   O     0.04508   0.79509   0.46042   0.00000  Uiso   1.00
O783   O     0.45491   0.70491   0.53958   0.00000  Uiso   1.00
O784   O     0.29508   0.95491   0.53958   0.00000  Uiso   1.00
C785   C     0.56179   0.69334   0.50006   0.00000  Uiso   1.00
C786   C     0.99196   0.78838   0.64218   0.00000  Uiso   1.00
C787   C     0.99198   0.78838   0.35775   0.00000  Uiso   1.00
C788   C     0.50782   0.71154   0.64226   0.00000  Uiso   1.00
C789   C     0.74198   0.96162   0.35775   0.00000  Uiso   1.00
C790   C     0.75783   0.53845   0.64225   0.00000  Uiso   1.00
C791   C     0.75779   0.53846   0.35782   0.00000  Uiso   1.00
C792   C     0.74196   0.96161   0.64218   0.00000  Uiso   1.00
C793   C     0.88815   0.64290   0.45754   0.00000  Uiso   1.00
C794   C     0.58598   0.88308   0.52299   0.00000  Uiso   1.00
C795   C     0.63259   0.83346   0.47798   0.00000  Uiso   1.00
C796   C     0.94058   0.80922   0.49991   0.00000  Uiso   1.00
C797   C     0.88777   0.64364   0.54231   0.00000  Uiso   1.00
C798   C     0.61356   0.64495   0.54242   0.00000  Uiso   1.00
C799   C     0.91414   0.88319   0.47734   0.00000  Uiso   1.00
C800   C     0.86741   0.83345   0.52209   0.00000  Uiso   1.00
C801   C     0.61402   0.64583   0.45774   0.00000  Uiso   1.00
C802   C     0.66410   0.86684   0.47726   0.00000  Uiso   1.00
C803   C     0.86364   0.60495   0.54241   0.00000  Uiso   1.00
C804   C     0.86395   0.60425   0.45772   0.00000  Uiso   1.00
C805   C     0.61745   0.91651   0.52218   0.00000  Uiso   1.00
C806   C     0.83593   0.86687   0.52289   0.00000  Uiso   1.00
C807   C     0.93857   0.69282   0.49994   0.00000  Uiso   1.00
C808   C     0.63822   0.60719   0.45753   0.00000  Uiso   1.00
C809   C     0.63768   0.60625   0.54229   0.00000  Uiso   1.00
C810   C     0.88262   0.91658   0.47806   0.00000  Uiso   1.00
C811   C     0.59345   0.84222   0.50049   0.00000  Uiso   1.00
C812   C     0.90293   0.66113   0.49989   0.00000  Uiso   1.00
C813   C     0.90656   0.84222   0.49958   0.00000  Uiso   1.00
C814   C     0.59829   0.66274   0.50012   0.00000  Uiso   1.00
C815   C     0.84829   0.58726   0.50010   0.00000  Uiso   1.00
C816   C     0.65657   0.90777   0.49959   0.00000  Uiso   1.00
C817   C     0.65292   0.58886   0.49986   0.00000  Uiso   1.00
C818   C     0.55941   0.80924   0.50010   0.00000  Uiso   1.00
C819   C     0.84344   0.90778   0.50049   0.00000  Uiso   1.00
C820   C     0.80941   0.94076   0.50010   0.00000  Uiso   1.00
C821   C     0.68857   0.55718   0.49994   0.00000  Uiso   1.00
C822   C     0.69058   0.94078   0.49992   0.00000  Uiso   1.00
C823   C     0.81179   0.55665   0.50005   0.00000  Uiso   1.00
C824   C     0.50779   0.71154   0.35783   0.00000  Uiso   1.00
Cu825  Cu    0.50000   0.75000   0.54689   0.00000  Uiso   1.00
Cu826  Cu    0.50000   0.75000   0.45311   0.00000  Uiso   1.00
Cu827  Cu    0.75000   0.50000   0.54689   0.00000  Uiso   1.00
Cu828  Cu    0.75000   0.50000   0.45311   0.00000  Uiso   1.00
H829   H     0.99818   0.67027   0.40764   0.00000  Uiso   1.00
H830   H     0.54593   0.91921   0.55931   0.00000  Uiso   1.00
H831   H     0.62230   0.76941   0.46967   0.00000  Uiso   1.00
H832   H     0.89124   0.69549   0.58125   0.00000  Uiso   1.00
H833   H     0.60918   0.69674   0.58140   0.00000  Uiso   1.00
H834   H     0.95456   0.91971   0.44192   0.00000  Uiso   1.00
H835   H     0.87781   0.76940   0.53058   0.00000  Uiso   1.00
H836   H     0.60970   0.69839   0.41977   0.00000  Uiso   1.00
H837   H     0.70443   0.83042   0.44163   0.00000  Uiso   1.00
H838   H     0.85928   0.55306   0.58127   0.00000  Uiso   1.00
H839   H     0.85962   0.55177   0.41966   0.00000  Uiso   1.00
H840   H     0.50138   0.82967   0.59252   0.00000  Uiso   1.00
H841   H     0.62780   0.98057   0.53064   0.00000  Uiso   1.00
H842   H     0.79570   0.83056   0.55879   0.00000  Uiso   1.00
H843   H     0.64193   0.55621   0.41747   0.00000  Uiso   1.00
H844   H     0.64112   0.55431   0.58111   0.00000  Uiso   1.00
H845   H     0.87230   0.98064   0.46976   0.00000  Uiso   1.00
H846   H     0.50165   0.82978   0.40735   0.00000  Uiso   1.00
H847   H     0.99858   0.67030   0.59223   0.00000  Uiso   1.00
H848   H     0.75166   0.92022   0.40735   0.00000  Uiso   1.00
H849   H     0.74858   0.57971   0.59223   0.00000  Uiso   1.00
H850   H     0.74818   0.57972   0.40764   0.00000  Uiso   1.00
H851   H     0.75138   0.92033   0.59253   0.00000  Uiso   1.00
H852   H     0.89181   0.69398   0.41761   0.00000  Uiso   1.00
N853   N     0.50000   0.75000   0.61736   0.00000  Uiso   1.00
N854   N     0.50000   0.75000   0.38264   0.00000  Uiso   1.00
N855   N     0.75000   0.50000   0.61736   0.00000  Uiso   1.00
N856   N     0.75000   0.50000   0.38264   0.00000  Uiso   1.00
O857   O     0.54508   0.70491   0.53958   0.00000  Uiso   1.00
O858   O     0.70491   0.54509   0.46042   0.00000  Uiso   1.00
O859   O     0.70491   0.54509   0.53958   0.00000  Uiso   1.00
O860   O     0.79508   0.95491   0.46042   0.00000  Uiso   1.00
O861   O     0.70491   0.95491   0.46042   0.00000  Uiso   1.00
O862   O     0.79508   0.54509   0.53958   0.00000  Uiso   1.00
O863   O     0.79508   0.54509   0.46042   0.00000  Uiso   1.00
O864   O     0.70491   0.95491   0.53958   0.00000  Uiso   1.00
O865   O     0.51502   0.67113   0.37908   0.00000  Uiso   1.00
O866   O     0.98427   0.82867   0.62088   0.00000  Uiso   1.00
O867   O     0.98432   0.82866   0.37898   0.00000  Uiso   1.00
O868   O     0.95491   0.79509   0.46042   0.00000  Uiso   1.00
O869   O     0.51519   0.67114   0.62110   0.00000  Uiso   1.00
O870   O     0.73433   0.92134   0.37899   0.00000  Uiso   1.00
O871   O     0.76520   0.57885   0.62108   0.00000  Uiso   1.00
O872   O     0.76501   0.57887   0.37907   0.00000  Uiso   1.00
O873   O     0.73427   0.92133   0.62090   0.00000  Uiso   1.00
O874   O     0.89736   0.66146   0.41505   0.00000  Uiso   1.00
O875   O     0.54673   0.88975   0.54380   0.00000  Uiso   1.00
O876   O     0.64147   0.79276   0.45737   0.00000  Uiso   1.00
O877   O     0.89653   0.66299   0.58462   0.00000  Uiso   1.00
O878   O     0.60504   0.66406   0.58482   0.00000  Uiso   1.00
O879   O     0.95491   0.79509   0.53958   0.00000  Uiso   1.00
O880   O     0.95354   0.89003   0.45695   0.00000  Uiso   1.00
O881   O     0.85851   0.79273   0.54268   0.00000  Uiso   1.00
O882   O     0.60588   0.66576   0.41557   0.00000  Uiso   1.00
O883   O     0.70348   0.86003   0.45679   0.00000  Uiso   1.00
O884   O     0.85520   0.58574   0.58479   0.00000  Uiso   1.00
O885   O     0.85575   0.58440   0.41553   0.00000  Uiso   1.00
O886   O     0.60856   0.95721   0.54281   0.00000  Uiso   1.00
O887   O     0.79663   0.86015   0.54357   0.00000  Uiso   1.00
O888   O     0.64753   0.58874   0.41501   0.00000  Uiso   1.00
O889   O     0.64636   0.58681   0.58457   0.00000  Uiso   1.00
O890   O     0.54508   0.70491   0.46042   0.00000  Uiso   1.00
O891   O     0.89153   0.95731   0.45751   0.00000  Uiso   1.00
O892   O     0.95491   0.70491   0.46042   0.00000  Uiso   1.00
O893   O     0.54508   0.79509   0.53958   0.00000  Uiso   1.00
O894   O     0.54508   0.79509   0.46042   0.00000  Uiso   1.00
O895   O     0.95491   0.70491   0.53958   0.00000  Uiso   1.00
O896   O     0.79508   0.95491   0.53958   0.00000  Uiso   1.00
C897   C     0.06179   0.19334   0.83339   0.00000  Uiso   1.00
C898   C     0.49196   0.28838   0.97551   0.00000  Uiso   1.00
C899   C     0.49198   0.28838   0.69108   0.00000  Uiso   1.00
C900   C     0.00782   0.21154   0.97559   0.00000  Uiso   1.00
C901   C     0.24198   0.46162   0.69109   0.00000  Uiso   1.00
C902   C     0.25783   0.03845   0.97558   0.00000  Uiso   1.00
C903   C     0.25779   0.03846   0.69116   0.00000  Uiso   1.00
C904   C     0.24196   0.46161   0.97552   0.00000  Uiso   1.00
C905   C     0.38815   0.14290   0.79087   0.00000  Uiso   1.00
C906   C     0.08598   0.38308   0.85633   0.00000  Uiso   1.00
C907   C     0.13259   0.33346   0.81131   0.00000  Uiso   1.00
C908   C     0.44058   0.30922   0.83325   0.00000  Uiso   1.00
C909   C     0.38777   0.14364   0.87564   0.00000  Uiso   1.00
C910   C     0.11356   0.14495   0.87576   0.00000  Uiso   1.00
C911   C     0.41414   0.38319   0.81067   0.00000  Uiso   1.00
C912   C     0.36741   0.33345   0.85542   0.00000  Uiso   1.00
C913   C     0.11402   0.14583   0.79107   0.00000  Uiso   1.00
C914   C     0.16410   0.36684   0.81059   0.00000  Uiso   1.00
C915   C     0.36364   0.10495   0.87575   0.00000  Uiso   1.00
C916   C     0.36395   0.10425   0.79105   0.00000  Uiso   1.00
C917   C     0.11745   0.41651   0.85551   0.00000  Uiso   1.00
C918   C     0.33593   0.36687   0.85622   0.00000  Uiso   1.00
C919   C     0.43857   0.19282   0.83328   0.00000  Uiso   1.00
C920   C     0.13822   0.10719   0.79086   0.00000  Uiso   1.00
C921   C     0.13768   0.10625   0.87562   0.00000  Uiso   1.00
C922   C     0.38262   0.41658   0.81139   0.00000  Uiso   1.00
C923   C     0.09345   0.34222   0.83382   0.00000  Uiso   1.00
C924   C     0.40293   0.16113   0.83322   0.00000  Uiso   1.00
C925   C     0.40656   0.34222   0.83292   0.00000  Uiso   1.00
C926   C     0.09829   0.16274   0.83345   0.00000  Uiso   1.00
C927   C     0.34829   0.08726   0.83343   0.00000  Uiso   1.00
C928   C     0.15657   0.40777   0.83292   0.00000  Uiso   1.00
C929   C     0.15292   0.08886   0.83320   0.00000  Uiso   1.00
C930   C     0.05941   0.30924   0.83343   0.00000  Uiso   1.00
C931   C     0.34344   0.40778   0.83382   0.00000  Uiso   1.00
C932   C     0.30941   0.44076   0.83343   0.00000  Uiso   1.00
C933   C     0.18857   0.05718   0.83327   0.00000  Uiso   1.00
C934   C     0.19058   0.44078   0.83325   0.00000  Uiso   1.00
C935   C     0.31179   0.05665   0.83339   0.00000  Uiso   1.00
C936   C     0.00779   0.21154   0.69116   0.00000  Uiso   1.00
Cu937  Cu    0.00000   0.25000   0.88022   0.00000  Uiso   1.00
Cu938  Cu    0.00000   0.25000   0.78645   0.00000  Uiso   1.00
Cu939  Cu    0.25000  -0.00000   0.88022   0.00000  Uiso   1.00
Cu940  Cu    0.25000  -0.00000   0.78645   0.00000  Uiso   1.00
H941   H     0.49818   0.17027   0.74098   0.00000  Uiso   1.00
H942   H     0.04593   0.41921   0.89264   0.00000  Uiso   1.00
H943   H     0.12230   0.26941   0.80301   0.00000  Uiso   1.00
H944   H     0.39124   0.19549   0.91459   0.00000  Uiso   1.00
H945   H     0.10918   0.19674   0.91473   0.00000  Uiso   1.00
H946   H     0.45456   0.41971   0.77526   0.00000  Uiso   1.00
H947   H     0.37781   0.26940   0.86392   0.00000  Uiso   1.00
H948   H     0.10970   0.19839   0.75311   0.00000  Uiso   1.00
H949   H     0.20443   0.33042   0.77496   0.00000  Uiso   1.00
H950   H     0.35928   0.05306   0.91461   0.00000  Uiso   1.00
H951   H     0.35962   0.05177   0.75299   0.00000  Uiso   1.00
H952   H     0.00138   0.32967   0.92585   0.00000  Uiso   1.00
H953   H     0.12780   0.48057   0.86398   0.00000  Uiso   1.00
H954   H     0.29570   0.33056   0.89213   0.00000  Uiso   1.00
H955   H     0.14193   0.05621   0.75080   0.00000  Uiso   1.00
H956   H     0.14112   0.05431   0.91444   0.00000  Uiso   1.00
H957   H     0.37230   0.48064   0.80309   0.00000  Uiso   1.00
H958   H     0.00165   0.32978   0.74068   0.00000  Uiso   1.00
H959   H     0.49858   0.17030   0.92557   0.00000  Uiso   1.00
H960   H     0.25166   0.42022   0.74069   0.00000  Uiso   1.00
H961   H     0.24858   0.07971   0.92556   0.00000  Uiso   1.00
H962   H     0.24818   0.07972   0.74097   0.00000  Uiso   1.00
H963   H     0.25138   0.42033   0.92587   0.00000  Uiso   1.00
H964   H     0.39181   0.19398   0.75094   0.00000  Uiso   1.00
N965   N     0.00000   0.25000   0.95069   0.00000  Uiso   1.00
N966   N     0.00000   0.25000   0.71598   0.00000  Uiso   1.00
N967   N     0.25000  -0.00000   0.95069   0.00000  Uiso   1.00
N968   N     0.25000  -0.00000   0.71598   0.00000  Uiso   1.00
O969   O     0.04508   0.20491   0.87291   0.00000  Uiso   1.00
O970   O     0.20491   0.04509   0.79375   0.00000  Uiso   1.00
O971   O     0.20491   0.04509   0.87291   0.00000  Uiso   1.00
O972   O     0.29508   0.45491   0.79375   0.00000  Uiso   1.00
O973   O     0.20491   0.45491   0.79375   0.00000  Uiso   1.00
O974   O     0.29508   0.04509   0.87291   0.00000  Uiso   1.00
O975   O     0.29508   0.04509   0.79375   0.00000  Uiso   1.00
O976   O     0.20491   0.45491   0.87291   0.00000  Uiso   1.00
O977   O     0.01502   0.17113   0.71242   0.00000  Uiso   1.00
O978   O     0.48427   0.32867   0.95422   0.00000  Uiso   1.00
O979   O     0.48432   0.32866   0.71231   0.00000  Uiso   1.00
O980   O     0.45491   0.29509   0.79375   0.00000  Uiso   1.00
O981   O     0.01519   0.17114   0.95443   0.00000  Uiso   1.00
O982   O     0.23433   0.42134   0.71232   0.00000  Uiso   1.00
O983   O     0.26520   0.07885   0.95441   0.00000  Uiso   1.00
O984   O     0.26501   0.07887   0.71240   0.00000  Uiso   1.00
O985   O     0.23427   0.42133   0.95423   0.00000  Uiso   1.00
O986   O     0.39736   0.16146   0.74838   0.00000  Uiso   1.00
O987   O     0.04673   0.38975   0.87713   0.00000  Uiso   1.00
O988   O     0.14147   0.29276   0.79070   0.00000  Uiso   1.00
O989   O     0.39653   0.16299   0.91795   0.00000  Uiso   1.00
O990   O     0.10504   0.16406   0.91815   0.00000  Uiso   1.00
O991   O     0.45491   0.29509   0.87291   0.00000  Uiso   1.00
O992   O     0.45354   0.39003   0.79028   0.00000  Uiso   1.00
O993   O     0.35851   0.29273   0.87602   0.00000  Uiso   1.00
O994   O     0.10588   0.16576   0.74890   0.00000  Uiso   1.00
O995   O     0.20348   0.36003   0.79013   0.00000  Uiso   1.00
O996   O     0.35520   0.08574   0.91812   0.00000  Uiso   1.00
O997   O     0.35575   0.08440   0.74886   0.00000  Uiso   1.00
O998   O     0.10856   0.45721   0.87614   0.00000  Uiso   1.00
O999   O     0.29663   0.36015   0.87691   0.00000  Uiso   1.00
O1000  O     0.14753   0.08874   0.74835   0.00000  Uiso   1.00
O1001  O     0.14636   0.08681   0.91790   0.00000  Uiso   1.00
O1002  O     0.04508   0.20491   0.79375   0.00000  Uiso   1.00
O1003  O     0.39153   0.45731   0.79084   0.00000  Uiso   1.00
O1004  O     0.45491   0.20491   0.79375   0.00000  Uiso   1.00
O1005  O     0.04508   0.29509   0.87291   0.00000  Uiso   1.00
O1006  O     0.04508   0.29509   0.79375   0.00000  Uiso   1.00
O1007  O     0.45491   0.20491   0.87291   0.00000  Uiso   1.00
O1008  O     0.29508   0.45491   0.87291   0.00000  Uiso   1.00
C1009  C     0.56179   0.19334   0.83339   0.00000  Uiso   1.00
C1010  C     0.99196   0.28838   0.97551   0.00000  Uiso   1.00
C1011  C     0.99198   0.28838   0.69108   0.00000  Uiso   1.00
C1012  C     0.50782   0.21154   0.97559   0.00000  Uiso   1.00
C1013  C     0.74198   0.46162   0.69109   0.00000  Uiso   1.00
C1014  C     0.75783   0.03845   0.97558   0.00000  Uiso   1.00
C1015  C     0.75779   0.03846   0.69116   0.00000  Uiso   1.00
C1016  C     0.74196   0.46161   0.97552   0.00000  Uiso   1.00
C1017  C     0.88815   0.14290   0.79087   0.00000  Uiso   1.00
C1018  C     0.58598   0.38308   0.85633   0.00000  Uiso   1.00
C1019  C     0.63259   0.33346   0.81131   0.00000  Uiso   1.00
C1020  C     0.94058   0.30922   0.83325   0.00000  Uiso   1.00
C1021  C     0.88777   0.14364   0.87564   0.00000  Uiso   1.00
C1022  C     0.61356   0.14495   0.87576   0.00000  Uiso   1.00
C1023  C     0.91414   0.38319   0.81067   0.00000  Uiso   1.00
C1024  C     0.86741   0.33345   0.85542   0.00000  Uiso   1.00
C1025  C     0.61402   0.14583   0.79107   0.00000  Uiso   1.00
C1026  C     0.66410   0.36684   0.81059   0.00000  Uiso   1.00
C1027  C     0.86364   0.10495   0.87575   0.00000  Uiso   1.00
C1028  C     0.86395   0.10425   0.79105   0.00000  Uiso   1.00
C1029  C     0.61745   0.41651   0.85551   0.00000  Uiso   1.00
C1030  C     0.83593   0.36687   0.85622   0.00000  Uiso   1.00
C1031  C     0.93857   0.19282   0.83328   0.00000  Uiso   1.00
C1032  C     0.63822   0.10719   0.79086   0.00000  Uiso   1.00
C1033  C     0.63768   0.10625   0.87562   0.00000  Uiso   1.00
C1034  C     0.88262   0.41658   0.81139   0.00000  Uiso   1.00
C1035  C     0.59345   0.34222   0.83382   0.00000  Uiso   1.00
C1036  C     0.90293   0.16113   0.83322   0.00000  Uiso   1.00
C1037  C     0.90656   0.34222   0.83292   0.00000  Uiso   1.00
C1038  C     0.59829   0.16274   0.83345   0.00000  Uiso   1.00
C1039  C     0.84829   0.08726   0.83343   0.00000  Uiso   1.00
C1040  C     0.65657   0.40777   0.83292   0.00000  Uiso   1.00
C1041  C     0.65292   0.08886   0.83320   0.00000  Uiso   1.00
C1042  C     0.55941   0.30924   0.83343   0.00000  Uiso   1.00
C1043  C     0.84344   0.40778   0.83382   0.00000  Uiso   1.00
C1044  C     0.80941   0.44076   0.83343   0.00000  Uiso   1.00
C1045  C     0.68857   0.05718   0.83327   0.00000  Uiso   1.00
C1046  C     0.69058   0.44078   0.83325   0.00000  Uiso   1.00
C1047  C     0.81179   0.05665   0.83339   0.00000  Uiso   1.00
C1048  C     0.50779   0.21154   0.69116   0.00000  Uiso   1.00
Cu1049 Cu    0.50000   0.25000   0.88022   0.00000  Uiso   1.00
Cu1050 Cu    0.50000   0.25000   0.78645   0.00000  Uiso   1.00
Cu1051 Cu    0.75000  -0.00000   0.88022   0.00000  Uiso   1.00
Cu1052 Cu    0.75000  -0.00000   0.78645   0.00000  Uiso   1.00
H1053  H     0.99818   0.17027   0.74098   0.00000  Uiso   1.00
H1054  H     0.54593   0.41921   0.89264   0.00000  Uiso   1.00
H1055  H     0.62230   0.26941   0.80301   0.00000  Uiso   1.00
H1056  H     0.89124   0.19549   0.91459   0.00000  Uiso   1.00
H1057  H     0.60918   0.19674   0.91473   0.00000  Uiso   1.00
H1058  H     0.95456   0.41971   0.77526   0.00000  Uiso   1.00
H1059  H     0.87781   0.26940   0.86392   0.00000  Uiso   1.00
H1060  H     0.60970   0.19839   0.75311   0.00000  Uiso   1.00
H1061  H     0.70443   0.33042   0.77496   0.00000  Uiso   1.00
H1062  H     0.85928   0.05306   0.91461   0.00000  Uiso   1.00
H1063  H     0.85962   0.05177   0.75299   0.00000  Uiso   1.00
H1064  H     0.50138   0.32967   0.92585   0.00000  Uiso   1.00
H1065  H     0.62780   0.48057   0.86398   0.00000  Uiso   1.00
H1066  H     0.79570   0.33056   0.89213   0.00000  Uiso   1.00
H1067  H     0.64193   0.05621   0.75080   0.00000  Uiso   1.00
H1068  H     0.64112   0.05431   0.91444   0.00000  Uiso   1.00
H1069  H     0.87230   0.48064   0.80309   0.00000  Uiso   1.00
H1070  H     0.50165   0.32978   0.74068   0.00000  Uiso   1.00
H1071  H     0.99858   0.17030   0.92557   0.00000  Uiso   1.00
H1072  H     0.75166   0.42022   0.74069   0.00000  Uiso   1.00
H1073  H     0.74858   0.07971   0.92556   0.00000  Uiso   1.00
H1074  H     0.74818   0.07972   0.74097   0.00000  Uiso   1.00
H1075  H     0.75138   0.42033   0.92587   0.00000  Uiso   1.00
H1076  H     0.89181   0.19398   0.75094   0.00000  Uiso   1.00
N1077  N     0.50000   0.25000   0.95069   0.00000  Uiso   1.00
N1078  N     0.50000   0.25000   0.71598   0.00000  Uiso   1.00
N1079  N     0.75000  -0.00000   0.95069   0.00000  Uiso   1.00
N1080  N     0.75000  -0.00000   0.71598   0.00000  Uiso   1.00
O1081  O     0.54508   0.20491   0.87291   0.00000  Uiso   1.00
O1082  O     0.70491   0.04509   0.79375   0.00000  Uiso   1.00
O1083  O     0.70491   0.04509   0.87291   0.00000  Uiso   1.00
O1084  O     0.79508   0.45491   0.79375   0.00000  Uiso   1.00
O1085  O     0.70491   0.45491   0.79375   0.00000  Uiso   1.00
O1086  O     0.79508   0.04509   0.87291   0.00000  Uiso   1.00
O1087  O     0.79508   0.04509   0.79375   0.00000  Uiso   1.00
O1088  O     0.70491   0.45491   0.87291   0.00000  Uiso   1.00
O1089  O     0.51502   0.17113   0.71242   0.00000  Uiso   1.00
O1090  O     0.98427   0.32867   0.95422   0.00000  Uiso   1.00
O1091  O     0.98432   0.32866   0.71231   0.00000  Uiso   1.00
O1092  O     0.95491   0.29509   0.79375   0.00000  Uiso   1.00
O1093  O     0.51519   0.17114   0.95443   0.00000  Uiso   1.00
O1094  O     0.73433   0.42134   0.71232   0.00000  Uiso   1.00
O1095  O     0.76520   0.07885   0.95441   0.00000  Uiso   1.00
O1096  O     0.76501   0.07887   0.71240   0.00000  Uiso   1.00
O1097  O     0.73427   0.42133   0.95423   0.00000  Uiso   1.00
O1098  O     0.89736   0.16146   0.74838   0.00000  Uiso   1.00
O1099  O     0.54673   0.38975   0.87713   0.00000  Uiso   1.00
O1100  O     0.64147   0.29276   0.79070   0.00000  Uiso   1.00
O1101  O     0.89653   0.16299   0.91795   0.00000  Uiso   1.00
O1102  O     0.60504   0.16406   0.91815   0.00000  Uiso   1.00
O1103  O     0.95491   0.29509   0.87291   0.00000  Uiso   1.00
O1104  O     0.95354   0.39003   0.79028   0.00000  Uiso   1.00
O1105  O     0.85851   0.29273   0.87602   0.00000  Uiso   1.00
O1106  O     0.60588   0.16576   0.74890   0.00000  Uiso   1.00
O1107  O     0.70348   0.36003   0.79013   0.00000  Uiso   1.00
O1108  O     0.85520   0.08574   0.91812   0.00000  Uiso   1.00
O1109  O     0.85575   0.08440   0.74886   0.00000  Uiso   1.00
O1110  O     0.60856   0.45721   0.87614   0.00000  Uiso   1.00
O1111  O     0.79663   0.36015   0.87691   0.00000  Uiso   1.00
O1112  O     0.64753   0.08874   0.74835   0.00000  Uiso   1.00
O1113  O     0.64636   0.08681   0.91790   0.00000  Uiso   1.00
O1114  O     0.54508   0.20491   0.79375   0.00000  Uiso   1.00
O1115  O     0.89153   0.45731   0.79084   0.00000  Uiso   1.00
O1116  O     0.95491   0.20491   0.79375   0.00000  Uiso   1.00
O1117  O     0.54508   0.29509   0.87291   0.00000  Uiso   1.00
O1118  O     0.54508   0.29509   0.79375   0.00000  Uiso   1.00
O1119  O     0.95491   0.20491   0.87291   0.00000  Uiso   1.00
O1120  O     0.79508   0.45491   0.87291   0.00000  Uiso   1.00
C1121  C     0.06179   0.69334   0.83339   0.00000  Uiso   1.00
C1122  C     0.49196   0.78838   0.97551   0.00000  Uiso   1.00
C1123  C     0.49198   0.78838   0.69108   0.00000  Uiso   1.00
C1124  C     0.00782   0.71154   0.97559   0.00000  Uiso   1.00
C1125  C     0.24198   0.96162   0.69109   0.00000  Uiso   1.00
C1126  C     0.25783   0.53845   0.97558   0.00000  Uiso   1.00
C1127  C     0.25779   0.53846   0.69116   0.00000  Uiso   1.00
C1128  C     0.24196   0.96161   0.97552   0.00000  Uiso   1.00
C1129  C     0.38815   0.64290   0.79087   0.00000  Uiso   1.00
C1130  C     0.08598   0.88308   0.85633   0.00000  Uiso   1.00
C1131  C     0.13259   0.83346   0.81131   0.00000  Uiso   1.00
C1132  C     0.44058   0.80922   0.83325   0.00000  Uiso   1.00
C1133  C     0.38777   0.64364   0.87564   0.00000  Uiso   1.00
C1134  C     0.11356   0.64495   0.87576   0.00000  Uiso   1.00
C1135  C     0.41414   0.88319   0.81067   0.00000  Uiso   1.00
C1136  C     0.36741   0.83345   0.85542   0.00000  Uiso   1.00
C1137  C     0.11402   0.64583   0.79107   0.00000  Uiso   1.00
C1138  C     0.16410   0.86684   0.81059   0.00000  Uiso   1.00
C1139  C     0.36364   0.60495   0.87575   0.00000  Uiso   1.00
C1140  C     0.36395   0.60425   0.79105   0.00000  Uiso   1.00
C1141  C     0.11745   0.91651   0.85551   0.00000  Uiso   1.00
C1142  C     0.33593   0.86687   0.85622   0.00000  Uiso   1.00
C1143  C     0.43857   0.69282   0.83328   0.00000  Uiso   1.00
C1144  C     0.13822   0.60719   0.79086   0.00000  Uiso   1.00
C1145  C     0.13768   0.60625   0.87562   0.00000  Uiso   1.00
C1146  C     0.38262   0.91658   0.81139   0.00000  Uiso   1.00
C1147  C     0.09345   0.84222   0.83382   0.00000  Uiso   1.00
C1148  C     0.40293   0.66113   0.83322   0.00000  Uiso   1.00
C1149  C     0.40656   0.84222   0.83292   0.00000  Uiso   1.00
C1150  C     0.09829   0.66274   0.83345   0.00000  Uiso   1.00
C1151  C     0.34829   0.58726   0.83343   0.00000  Uiso   1.00
C1152  C     0.15657   0.90777   0.83292   0.00000  Uiso   1.00
C1153  C     0.15292   0.58886   0.83320   0.00000  Uiso   1.00
C1154  C     0.05941   0.80924   0.83343   0.00000  Uiso   1.00
C1155  C     0.34344   0.90778   0.83382   0.00000  Uiso   1.00
C1156  C     0.30941   0.94076   0.83343   0.00000  Uiso   1.00
C1157  C     0.18857   0.55718   0.83327   0.00000  Uiso   1.00
C1158  C     0.19058   0.94078   0.83325   0.00000  Uiso   1.00
C1159  C     0.31179   0.55665   0.83339   0.00000  Uiso   1.00
C1160  C     0.00779   0.71154   0.69116   0.00000  Uiso   1.00
Cu1161 Cu    0.00000   0.75000   0.88022   0.00000  Uiso   1.00
Cu1162 Cu    0.00000   0.75000   0.78645   0.00000  Uiso   1.00
Cu1163 Cu    0.25000   0.50000   0.88022   0.00000  Uiso   1.00
Cu1164 Cu    0.25000   0.50000   0.78645   0.00000  Uiso   1.00
H1165  H     0.49818   0.67027   0.74098   0.00000  Uiso   1.00
H1166  H     0.04593   0.91921   0.89264   0.00000  Uiso   1.00
H1167  H     0.12230   0.76941   0.80301   0.00000  Uiso   1.00
H1168  H     0.39124   0.69549   0.91459   0.00000  Uiso   1.00
H1169  H     0.10918   0.69674   0.91473   0.00000  Uiso   1.00
H1170  H     0.45456   0.91971   0.77526   0.00000  Uiso   1.00
H1171  H     0.37781   0.76940   0.86392   0.00000  Uiso   1.00
H1172  H     0.10970   0.69839   0.75311   0.00000  Uiso   1.00
H1173  H     0.20443   0.83042   0.77496   0.00000  Uiso   1.00
H1174  H     0.35928   0.55306   0.91461   0.00000  Uiso   1.00
H1175  H     0.35962   0.55177   0.75299   0.00000  Uiso   1.00
H1176  H     0.00138   0.82967   0.92585   0.00000  Uiso   1.00
H1177  H     0.12780   0.98057   0.86398   0.00000  Uiso   1.00
H1178  H     0.29570   0.83056   0.89213   0.00000  Uiso   1.00
H1179  H     0.14193   0.55621   0.75080   0.00000  Uiso   1.00
H1180  H     0.14112   0.55431   0.91444   0.00000  Uiso   1.00
H1181  H     0.37230   0.98064   0.80309   0.00000  Uiso   1.00
H1182  H     0.00165   0.82978   0.74068   0.00000  Uiso   1.00
H1183  H     0.49858   0.67030   0.92557   0.00000  Uiso   1.00
H1184  H     0.25166   0.92022   0.74069   0.00000  Uiso   1.00
H1185  H     0.24858   0.57971   0.92556   0.00000  Uiso   1.00
H1186  H     0.24818   0.57972   0.74097   0.00000  Uiso   1.00
H1187  H     0.25138   0.92033   0.92587   0.00000  Uiso   1.00
H1188  H     0.39181   0.69398   0.75094   0.00000  Uiso   1.00
N1189  N     0.00000   0.75000   0.95069   0.00000  Uiso   1.00
N1190  N     0.00000   0.75000   0.71598   0.00000  Uiso   1.00
N1191  N     0.25000   0.50000   0.95069   0.00000  Uiso   1.00
N1192  N     0.25000   0.50000   0.71598   0.00000  Uiso   1.00
O1193  O     0.04508   0.70491   0.87291   0.00000  Uiso   1.00
O1194  O     0.20491   0.54509   0.79375   0.00000  Uiso   1.00
O1195  O     0.20491   0.54509   0.87291   0.00000  Uiso   1.00
O1196  O     0.29508   0.95491   0.79375   0.00000  Uiso   1.00
O1197  O     0.20491   0.95491   0.79375   0.00000  Uiso   1.00
O1198  O     0.29508   0.54509   0.87291   0.00000  Uiso   1.00
O1199  O     0.29508   0.54509   0.79375   0.00000  Uiso   1.00
O1200  O     0.20491   0.95491   0.87291   0.00000  Uiso   1.00
O1201  O     0.01502   0.67113   0.71242   0.00000  Uiso   1.00
O1202  O     0.48427   0.82867   0.95422   0.00000  Uiso   1.00
O1203  O     0.48432   0.82866   0.71231   0.00000  Uiso   1.00
O1204  O     0.45491   0.79509   0.79375   0.00000  Uiso   1.00
O1205  O     0.01519   0.67114   0.95443   0.00000  Uiso   1.00
O1206  O     0.23433   0.92134   0.71232   0.00000  Uiso   1.00
O1207  O     0.26520   0.57885   0.95441   0.00000  Uiso   1.00
O1208  O     0.26501   0.57887   0.71240   0.00000  Uiso   1.00
O1209  O     0.23427   0.92133   0.95423   0.00000  Uiso   1.00
O1210  O     0.39736   0.66146   0.74838   0.00000  Uiso   1.00
O1211  O     0.04673   0.88975   0.87713   0.00000  Uiso   1.00
O1212  O     0.14147   0.79276   0.79070   0.00000  Uiso   1.00
O1213  O     0.39653   0.66299   0.91795   0.00000  Uiso   1.00
O1214  O     0.10504   0.66406   0.91815   0.00000  Uiso   1.00
O1215  O     0.45491   0.79509   0.87291   0.00000  Uiso   1.00
O1216  O     0.45354   0.89003   0.79028   0.00000  Uiso   1.00
O1217  O     0.35851   0.79273   0.87602   0.00000  Uiso   1.00
O1218  O     0.10588   0.66576   0.74890   0.00000  Uiso   1.00
O1219  O     0.20348   0.86003   0.79013   0.00000  Uiso   1.00
O1220  O     0.35520   0.58574   0.91812   0.00000  Uiso   1.00
O1221  O     0.35575   0.58440   0.74886   0.00000  Uiso   1.00
O1222  O     0.10856   0.95721   0.87614   0.00000  Uiso   1.00
O1223  O     0.29663   0.86015   0.87691   0.00000  Uiso   1.00
O1224  O     0.14753   0.58874   0.74835   0.00000  Uiso   1.00
O1225  O     0.14636   0.58681   0.91790   0.00000  Uiso   1.00
O1226  O     0.04508   0.70491   0.79375   0.00000  Uiso   1.00
O1227  O     0.39153   0.95731   0.79084   0.00000  Uiso   1.00
O1228  O     0.45491   0.70491   0.79375   0.00000  Uiso   1.00
O1229  O     0.04508   0.79509   0.87291   0.00000  Uiso   1.00
O1230  O     0.04508   0.79509   0.79375   0.00000  Uiso   1.00
O1231  O     0.45491   0.70491   0.87291   0.00000  Uiso   1.00
O1232  O     0.29508   0.95491   0.87291   0.00000  Uiso   1.00
C1233  C     0.56179   0.69334   0.83339   0.00000  Uiso   1.00
C1234  C     0.99196   0.78838   0.97551   0.00000  Uiso   1.00
C1235  C     0.99198   0.78838   0.69108   0.00000  Uiso   1.00
C1236  C     0.50782   0.71154   0.97559   0.00000  Uiso   1.00
C1237  C     0.74198   0.96162   0.69109   0.00000  Uiso   1.00
C1238  C     0.75783   0.53845   0.97558   0.00000  Uiso   1.00
C1239  C     0.75779   0.53846   0.69116   0.00000  Uiso   1.00
C1240  C     0.74196   0.96161   0.97552   0.00000  Uiso   1.00
C1241  C     0.88815   0.64290   0.79087   0.00000  Uiso   1.00
C1242  C     0.58598   0.88308   0.85633   0.00000  Uiso   1.00
C1243  C     0.63259   0.83346   0.81131   0.00000  Uiso   1.00
C1244  C     0.94058   0.80922   0.83325   0.00000  Uiso   1.00
C1245  C     0.88777   0.64364   0.87564   0.00000  Uiso   1.00
C1246  C     0.61356   0.64495   0.87576   0.00000  Uiso   1.00
C1247  C     0.91414   0.88319   0.81067   0.00000  Uiso   1.00
C1248  C     0.86741   0.83345   0.85542   0.00000  Uiso   1.00
C1249  C     0.61402   0.64583   0.79107   0.00000  Uiso   1.00
C1250  C     0.66410   0.86684   0.81059   0.00000  Uiso   1.00
C1251  C     0.86364   0.60495   0.87575   0.00000  Uiso   1.00
C1252  C     0.86395   0.60425   0.79105   0.00000  Uiso   1.00
C1253  C     0.61745   0.91651   0.85551   0.00000  Uiso   1.00
C1254  C     0.83593   0.86687   0.85622   0.00000  Uiso   1.00
C1255  C     0.93857   0.69282   0.83328   0.00000  Uiso   1.00
C1256  C     0.63822   0.60719   0.79086   0.00000  Uiso   1.00
C1257  C     0.63768   0.60625   0.87562   0.00000  Uiso   1.00
C1258  C     0.88262   0.91658   0.81139   0.00000  Uiso   1.00
C1259  C     0.59345   0.84222   0.83382   0.00000  Uiso   1.00
C1260  C     0.90293   0.66113   0.83322   0.00000  Uiso   1.00
C1261  C     0.90656   0.84222   0.83292   0.00000  Uiso   1.00
C1262  C     0.59829   0.66274   0.83345   0.00000  Uiso   1.00
C1263  C     0.84829   0.58726   0.83343   0.00000  Uiso   1.00
C1264  C     0.65657   0.90777   0.83292   0.00000  Uiso   1.00
C1265  C     0.65292   0.58886   0.83320   0.00000  Uiso   1.00
C1266  C     0.55941   0.80924   0.83343   0.00000  Uiso   1.00
C1267  C     0.84344   0.90778   0.83382   0.00000  Uiso   1.00
C1268  C     0.80941   0.94076   0.83343   0.00000  Uiso   1.00
C1269  C     0.68857   0.55718   0.83327   0.00000  Uiso   1.00
C1270  C     0.69058   0.94078   0.83325   0.00000  Uiso   1.00
C1271  C     0.81179   0.55665   0.83339   0.00000  Uiso   1.00
C1272  C     0.50779   0.71154   0.69116   0.00000  Uiso   1.00
Cu1273 Cu    0.50000   0.75000   0.88022   0.00000  Uiso   1.00
Cu1274 Cu    0.50000   0.75000   0.78645   0.00000  Uiso   1.00
Cu1275 Cu    0.75000   0.50000   0.88022   0.00000  Uiso   1.00
Cu1276 Cu    0.75000   0.50000   0.78645   0.00000  Uiso   1.00
H1277  H     0.99818   0.67027   0.74098   0.00000  Uiso   1.00
H1278  H     0.54593   0.91921   0.89264   0.00000  Uiso   1.00
H1279  H     0.62230   0.76941   0.80301   0.00000  Uiso   1.00
H1280  H     0.89124   0.69549   0.91459   0.00000  Uiso   1.00
H1281  H     0.60918   0.69674   0.91473   0.00000  Uiso   1.00
H1282  H     0.95456   0.91971   0.77526   0.00000  Uiso   1.00
H1283  H     0.87781   0.76940   0.86392   0.00000  Uiso   1.00
H1284  H     0.60970   0.69839   0.75311   0.00000  Uiso   1.00
H1285  H     0.70443   0.83042   0.77496   0.00000  Uiso   1.00
H1286  H     0.85928   0.55306   0.91461   0.00000  Uiso   1.00
H1287  H     0.85962   0.55177   0.75299   0.00000  Uiso   1.00
H1288  H     0.50138   0.82967   0.92585   0.00000  Uiso   1.00
H1289  H     0.62780   0.98057   0.86398   0.00000  Uiso   1.00
H1290  H     0.79570   0.83056   0.89213   0.00000  Uiso   1.00
H1291  H     0.64193   0.55621   0.75080   0.00000  Uiso   1.00
H1292  H     0.64112   0.55431   0.91444   0.00000  Uiso   1.00
H1293  H     0.87230   0.98064   0.80309   0.00000  Uiso   1.00
H1294  H     0.50165   0.82978   0.74068   0.00000  Uiso   1.00
H1295  H     0.99858   0.67030   0.92557   0.00000  Uiso   1.00
H1296  H     0.75166   0.92022   0.74069   0.00000  Uiso   1.00
H1297  H     0.74858   0.57971   0.92556   0.00000  Uiso   1.00
H1298  H     0.74818   0.57972   0.74097   0.00000  Uiso   1.00
H1299  H     0.75138   0.92033   0.92587   0.00000  Uiso   1.00
H1300  H     0.89181   0.69398   0.75094   0.00000  Uiso   1.00
N1301  N     0.50000   0.75000   0.95069   0.00000  Uiso   1.00
N1302  N     0.50000   0.75000   0.71598   0.00000  Uiso   1.00
N1303  N     0.75000   0.50000   0.95069   0.00000  Uiso   1.00
N1304  N     0.75000   0.50000   0.71598   0.00000  Uiso   1.00
O1305  O     0.54508   0.70491   0.87291   0.00000  Uiso   1.00
O1306  O     0.70491   0.54509   0.79375   0.00000  Uiso   1.00
O1307  O     0.70491   0.54509   0.87291   0.00000  Uiso   1.00
O1308  O     0.79508   0.95491   0.79375   0.00000  Uiso   1.00
O1309  O     0.70491   0.95491   0.79375   0.00000  Uiso   1.00
O1310  O     0.79508   0.54509   0.87291   0.00000  Uiso   1.00
O1311  O     0.79508   0.54509   0.79375   0.00000  Uiso   1.00
O1312  O     0.70491   0.95491   0.87291   0.00000  Uiso   1.00
O1313  O     0.51502   0.67113   0.71242   0.00000  Uiso   1.00
O1314  O     0.98427   0.82867   0.95422   0.00000  Uiso   1.00
O1315  O     0.98432   0.82866   0.71231   0.00000  Uiso   1.00
O1316  O     0.95491   0.79509   0.79375   0.00000  Uiso   1.00
O1317  O     0.51519   0.67114   0.95443   0.00000  Uiso   1.00
O1318  O     0.73433   0.92134   0.71232   0.00000  Uiso   1.00
O1319  O     0.76520   0.57885   0.95441   0.00000  Uiso   1.00
O1320  O     0.76501   0.57887   0.71240   0.00000  Uiso   1.00
O1321  O     0.73427   0.92133   0.95423   0.00000  Uiso   1.00
O1322  O     0.89736   0.66146   0.74838   0.00000  Uiso   1.00
O1323  O     0.54673   0.88975   0.87713   0.00000  Uiso   1.00
O1324  O     0.64147   0.79276   0.79070   0.00000  Uiso   1.00
O1325  O     0.89653   0.66299   0.91795   0.00000  Uiso   1.00
O1326  O     0.60504   0.66406   0.91815   0.00000  Uiso   1.00
O1327  O     0.95491   0.79509   0.87291   0.00000  Uiso   1.00
O1328  O     0.95354   0.89003   0.79028   0.00000  Uiso   1.00
O1329  O     0.85851   0.79273   0.87602   0.00000  Uiso   1.00
O1330  O     0.60588   0.66576   0.74890   0.00000  Uiso   1.00
O1331  O     0.70348   0.86003   0.79013   0.00000  Uiso   1.00
O1332  O     0.85520   0.58574   0.91812   0.00000  Uiso   1.00
O1333  O     0.85575   0.58440   0.74886   0.00000  Uiso   1.00
O1334  O     0.60856   0.95721   0.87614   0.00000  Uiso   1.00
O1335  O     0.79663   0.86015   0.87691   0.00000  Uiso   1.00
O1336  O     0.64753   0.58874   0.74835   0.00000  Uiso   1.00
O1337  O     0.64636   0.58681   0.91790   0.00000  Uiso   1.00
O1338  O     0.54508   0.70491   0.79375   0.00000  Uiso   1.00
O1339  O     0.89153   0.95731   0.79084   0.00000  Uiso   1.00
O1340  O     0.95491   0.70491   0.79375   0.00000  Uiso   1.00
O1341  O     0.54508   0.79509   0.87291   0.00000  Uiso   1.00
O1342  O     0.54508   0.79509   0.79375   0.00000  Uiso   1.00
O1343  O     0.95491   0.70491   0.87291   0.00000  Uiso   1.00
O1344  O     0.79508   0.95491   0.87291   0.00000  Uiso   1.00
loop_
_geom_bond_atom_site_label_1
_geom_bond_atom_site_label_2
_geom_bond_distance
_geom_bond_site_symmetry_2
_ccdc_geom_bond_type
C1     O106    1.303   .     A
C1     O73     1.304   .     A
C1     C30     1.465   .     S
C2     O82     1.374   .     S
C2     C451    1.412   .     S
C2     N181    1.378   .     S
C3     O83     1.374   .     S
C3     C898    1.412   1_554 S
C3     N182    1.378   .     S
C4     N69     1.378   .     A
C4     O85     1.375   .     S
C4     C488    1.412   .     S
C5     O86     1.374   .     S
C5     C904    1.412   1_554 S
C5     N296    1.378   .     S
C6     N71     1.378   .     A
C6     O87     1.375   .     S
C6     C455    1.412   .     S
C7     O88     1.375   .     S
C7     N72     1.378   .     A
C7     C902    1.412   1_554 S
C8     O89     1.374   .     S
C8     C453    1.412   .     S
C8     N295    1.378   .     S
C9     C20     1.383   .     A
C9     O90     1.378   .     S
C9     C28     1.415   .     A
C10    C27     1.405   .     A
C10    C21     1.405   .     A
C10    O91     1.385   .     S
C11    C18     1.405   .     A
C11    O92     1.385   .     S
C11    C27     1.415   .     A
C12    C29     1.453   .     S
C12    O84     1.298   .     A
C12    O95     1.299   .     A
C13    C19     1.383   .     A
C13    O93     1.378   .     S
C13    C28     1.416   .     A
C14    C30     1.414   .     A
C14    C25     1.383   .     A
C14    O94     1.378   .     S
C15    C29     1.405   .     A
C15    O96     1.385   .     S
C15    C26     1.405   .     A
C16    O97     1.385   .     S
C16    C22     1.405   .     A
C16    C29     1.415   .     A
C17    O98     1.378   .     S
C17    C30     1.415   .     A
C17    C24     1.383   .     A
C18    O99     1.385   .     S
C18    C32     1.405   .     A
C19    C31     1.414   .     A
C19    O100    1.378   .     S
C20    O101    1.379   .     S
C20    C31     1.415   .     A
C21    C32     1.415   .     A
C21    O102    1.385   .     S
C22    C35     1.405   .     A
C22    O103    1.385   .     S
C23    C28     1.465   .     S
C23    O111    1.303   .     A
C23    O108    1.304   .     A
C24    O104    1.378   .     S
C24    C33     1.415   .     A
C25    O105    1.378   .     S
C25    C33     1.416   .     A
C26    O107    1.385   .     S
C26    C35     1.415   .     A
C27    C34     1.453   .     S
C31    C39     1.465   .     S
C32    C38     1.453   .     S
C33    C37     1.465   .     S
C34    O110    1.300   .     A
C34    O109    1.298   .     A
C35    C36     1.453   .     S
C36    O76     1.299   .     A
C36    O112    1.298   .     A
C37    O74     1.304   .     A
C37    O75     1.303   .     A
C38    O77     1.298   .     A
C38    O80     1.299   .     A
C39    O78     1.304   .     A
C39    O79     1.303   .     A
C40    N70     1.378   .     A
C40    O81     1.375   .     S
C40    C900    1.412   1_554 S
Cu41   Cu42    2.707   .     S
Cu41   O109    1.966   .     S
Cu41   N69     2.035   .     S
Cu41   O73     1.966   .     S
Cu41   O207    1.964   1_455 S
Cu41   O223    1.964   1_455 S
Cu42   N70     2.035   .     S
Cu42   O106    1.964   .     S
Cu42   O110    1.964   .     S
Cu42   O196    1.966   1_455 S
Cu42   O220    1.966   1_455 S
Cu43   O78     1.966   .     S
Cu43   O75     1.964   .     S
Cu43   Cu44    2.707   .     S
Cu43   N71     2.035   .     S
Cu43   O304    1.964   1_545 S
Cu43   O336    1.966   1_545 S
Cu44   O74     1.966   .     S
Cu44   O79     1.964   .     S
Cu44   N72     2.035   .     S
Cu44   O300    1.964   1_545 S
Cu44   O301    1.966   1_545 S
H45    O193    0.981   .     S
H46    O91     0.989   .     S
H47    O92     0.989   .     S
H48    O93     0.992   .     S
H49    O94     0.992   .     S
H50    O96     0.989   .     S
H51    O97     0.989   .     S
H52    O98     0.991   .     S
H53    O99     0.989   .     S
H54    O100    0.992   .     S
H55    O101    0.991   .     S
H56    O194    0.981   1_455 S
H57    O102    0.989   .     S
H58    O103    0.989   .     S
H59    O104    0.992   .     S
H60    O105    0.992   .     S
H61    O107    0.989   .     S
H62    O195    0.981   1_455 S
H63    O197    0.981   .     S
H64    O86     0.981   .     S
H65    O87     0.981   .     S
H66    O88     0.981   .     S
H67    O89     0.981   .     S
H68    O90     0.992   .     S
N69    C114    1.378   1_455 S
N70    C115    1.378   1_455 S
N71    C232    1.378   1_545 S
N72    C229    1.378   1_545 S
O76    Cu268   1.964   .     S
O77    Cu268   1.966   .     S
O80    Cu267   1.964   .     S
O81    H157    0.981   1_455 S
O82    H168    0.981   .     S
O83    H174    0.981   .     S
O84    Cu154   1.966   .     S
O85    H175    0.981   1_455 S
O95    Cu153   1.964   .     S
O108   Cu154   1.966   .     S
O111   Cu153   1.964   .     S
O112   Cu267   1.966   .     S
C113   O218    1.303   .     A
C113   O185    1.304   .     A
C113   C142    1.465   .     S
C114   O194    1.374   .     S
C114   C563    1.412   .     S
C114   N69     1.378   1_655 S
C115   O195    1.374   .     S
C115   C1010   1.412   1_554 S
C115   N70     1.378   1_655 S
C116   N181    1.378   .     A
C116   O197    1.375   .     S
C116   C600    1.412   .     S
C117   O198    1.374   .     S
C117   C1016   1.412   1_554 S
C117   N408    1.378   .     S
C118   N183    1.378   .     A
C118   O199    1.375   .     S
C118   C567    1.412   .     S
C119   O200    1.375   .     S
C119   N184    1.378   .     A
C119   C1014   1.412   1_554 S
C120   O201    1.374   .     S
C120   C565    1.412   .     S
C120   N407    1.378   .     S
C121   C132    1.383   .     A
C121   O202    1.378   .     S
C121   C140    1.415   .     A
C122   C139    1.405   .     A
C122   C133    1.405   .     A
C122   O203    1.385   .     S
C123   C130    1.405   .     A
C123   O204    1.385   .     S
C123   C139    1.415   .     A
C124   C141    1.453   .     S
C124   O196    1.298   .     A
C124   O207    1.299   .     A
C125   C131    1.383   .     A
C125   O205    1.378   .     S
C125   C140    1.416   .     A
C126   C142    1.414   .     A
C126   C137    1.383   .     A
C126   O206    1.378   .     S
C127   C141    1.405   .     A
C127   O208    1.385   .     S
C127   C138    1.405   .     A
C128   O209    1.385   .     S
C128   C134    1.405   .     A
C128   C141    1.415   .     A
C129   O210    1.378   .     S
C129   C142    1.415   .     A
C129   C136    1.383   .     A
C130   O211    1.385   .     S
C130   C144    1.405   .     A
C131   C143    1.414   .     A
C131   O212    1.378   .     S
C132   O213    1.379   .     S
C132   C143    1.415   .     A
C133   C144    1.415   .     A
C133   O214    1.385   .     S
C134   C147    1.405   .     A
C134   O215    1.385   .     S
C135   C140    1.465   .     S
C135   O223    1.303   .     A
C135   O220    1.304   .     A
C136   O216    1.378   .     S
C136   C145    1.415   .     A
C137   O217    1.378   .     S
C137   C145    1.416   .     A
C138   O219    1.385   .     S
C138   C147    1.415   .     A
C139   C146    1.453   .     S
C143   C151    1.465   .     S
C144   C150    1.453   .     S
C145   C149    1.465   .     S
C146   O222    1.300   .     A
C146   O221    1.298   .     A
C147   C148    1.453   .     S
C148   O188    1.299   .     A
C148   O224    1.298   .     A
C149   O186    1.304   .     A
C149   O187    1.303   .     A
C150   O189    1.298   .     A
C150   O192    1.299   .     A
C151   O190    1.304   .     A
C151   O191    1.303   .     A
C152   N182    1.378   .     A
C152   O193    1.375   .     S
C152   C1012   1.412   1_554 S
Cu153  Cu154   2.707   .     S
Cu153  O221    1.966   .     S
Cu153  N181    2.035   .     S
Cu153  O185    1.966   .     S
Cu154  N182    2.035   .     S
Cu154  O218    1.964   .     S
Cu154  O222    1.964   .     S
Cu155  O190    1.966   .     S
Cu155  O187    1.964   .     S
Cu155  Cu156   2.707   .     S
Cu155  N183    2.035   .     S
Cu155  O416    1.964   1_545 S
Cu155  O448    1.966   1_545 S
Cu156  O186    1.966   .     S
Cu156  O191    1.964   .     S
Cu156  N184    2.035   .     S
Cu156  O412    1.964   1_545 S
Cu156  O413    1.966   1_545 S
H157   O81     0.981   1_655 S
H158   O203    0.989   .     S
H159   O204    0.989   .     S
H160   O205    0.992   .     S
H161   O206    0.992   .     S
H162   O208    0.989   .     S
H163   O209    0.989   .     S
H164   O210    0.991   .     S
H165   O211    0.989   .     S
H166   O212    0.992   .     S
H167   O213    0.991   .     S
H169   O214    0.989   .     S
H170   O215    0.989   .     S
H171   O216    0.992   .     S
H172   O217    0.992   .     S
H173   O219    0.989   .     S
H175   O85     0.981   1_655 S
H176   O198    0.981   .     S
H177   O199    0.981   .     S
H178   O200    0.981   .     S
H179   O201    0.981   .     S
H180   O202    0.992   .     S
N183   C344    1.378   1_545 S
N184   C341    1.378   1_545 S
O188   Cu380   1.964   .     S
O189   Cu380   1.966   .     S
O192   Cu379   1.964   .     S
O194   H56     0.981   1_655 S
O195   H62     0.981   1_655 S
O196   Cu42    1.966   1_655 S
O207   Cu41    1.964   1_655 S
O220   Cu42    1.966   1_655 S
O223   Cu41    1.964   1_655 S
O224   Cu379   1.966   .     S
C225   O330    1.303   .     A
C225   O297    1.304   .     A
C225   C254    1.465   .     S
C226   O306    1.374   .     S
C226   C675    1.412   .     S
C226   N405    1.378   .     S
C227   O307    1.374   .     S
C227   C1122   1.412   1_554 S
C227   N406    1.378   .     S
C228   N293    1.378   .     A
C228   O309    1.375   .     S
C228   C712    1.412   .     S
C229   O310    1.374   .     S
C229   C1128   1.412   1_554 S
C229   N72     1.378   1_565 S
C230   N295    1.378   .     A
C230   O311    1.375   .     S
C230   C679    1.412   .     S
C231   O312    1.375   .     S
C231   N296    1.378   .     A
C231   C1126   1.412   1_554 S
C232   O313    1.374   .     S
C232   C677    1.412   .     S
C232   N71     1.378   1_565 S
C233   C244    1.383   .     A
C233   O314    1.378   .     S
C233   C252    1.415   .     A
C234   C251    1.405   .     A
C234   C245    1.405   .     A
C234   O315    1.385   .     S
C235   C242    1.405   .     A
C235   O316    1.385   .     S
C235   C251    1.415   .     A
C236   C253    1.453   .     S
C236   O308    1.298   .     A
C236   O319    1.299   .     A
C237   C243    1.383   .     A
C237   O317    1.378   .     S
C237   C252    1.416   .     A
C238   C254    1.414   .     A
C238   C249    1.383   .     A
C238   O318    1.378   .     S
C239   C253    1.405   .     A
C239   O320    1.385   .     S
C239   C250    1.405   .     A
C240   O321    1.385   .     S
C240   C246    1.405   .     A
C240   C253    1.415   .     A
C241   O322    1.378   .     S
C241   C254    1.415   .     A
C241   C248    1.383   .     A
C242   O323    1.385   .     S
C242   C256    1.405   .     A
C243   C255    1.414   .     A
C243   O324    1.378   .     S
C244   O325    1.379   .     S
C244   C255    1.415   .     A
C245   C256    1.415   .     A
C245   O326    1.385   .     S
C246   C259    1.405   .     A
C246   O327    1.385   .     S
C247   C252    1.465   .     S
C247   O335    1.303   .     A
C247   O332    1.304   .     A
C248   O328    1.378   .     S
C248   C257    1.415   .     A
C249   O329    1.378   .     S
C249   C257    1.416   .     A
C250   O331    1.385   .     S
C250   C259    1.415   .     A
C251   C258    1.453   .     S
C255   C263    1.465   .     S
C256   C262    1.453   .     S
C257   C261    1.465   .     S
C258   O334    1.300   .     A
C258   O333    1.298   .     A
C259   C260    1.453   .     S
C260   O300    1.299   .     A
C260   O336    1.298   .     A
C261   O298    1.304   .     A
C261   O299    1.303   .     A
C262   O301    1.298   .     A
C262   O304    1.299   .     A
C263   O302    1.304   .     A
C263   O303    1.303   .     A
C264   N294    1.378   .     A
C264   O305    1.375   .     S
C264   C1124   1.412   1_554 S
Cu265  Cu266   2.707   .     S
Cu265  O333    1.966   .     S
Cu265  N293    2.035   .     S
Cu265  O297    1.966   .     S
Cu265  O431    1.964   1_455 S
Cu265  O447    1.964   1_455 S
Cu266  N294    2.035   .     S
Cu266  O330    1.964   .     S
Cu266  O334    1.964   .     S
Cu266  O420    1.966   1_455 S
Cu266  O444    1.966   1_455 S
Cu267  O302    1.966   .     S
Cu267  O299    1.964   .     S
Cu267  Cu268   2.707   .     S
Cu267  N295    2.035   .     S
Cu268  O298    1.966   .     S
Cu268  O303    1.964   .     S
Cu268  N296    2.035   .     S
H269   O417    0.981   .     S
H270   O315    0.989   .     S
H271   O316    0.989   .     S
H272   O317    0.992   .     S
H273   O318    0.992   .     S
H274   O320    0.989   .     S
H275   O321    0.989   .     S
H276   O322    0.991   .     S
H277   O323    0.989   .     S
H278   O324    0.992   .     S
H279   O325    0.991   .     S
H280   O418    0.981   1_455 S
H281   O326    0.989   .     S
H282   O327    0.989   .     S
H283   O328    0.992   .     S
H284   O329    0.992   .     S
H285   O331    0.989   .     S
H286   O419    0.981   1_455 S
H287   O421    0.981   .     S
H288   O310    0.981   .     S
H289   O311    0.981   .     S
H290   O312    0.981   .     S
H291   O313    0.981   .     S
H292   O314    0.992   .     S
N293   C338    1.378   1_455 S
N294   C339    1.378   1_455 S
O300   Cu44    1.964   1_565 S
O301   Cu44    1.966   1_565 S
O304   Cu43    1.964   1_565 S
O305   H381    0.981   1_455 S
O306   H392    0.981   .     S
O307   H398    0.981   .     S
O308   Cu378   1.966   .     S
O309   H399    0.981   1_455 S
O319   Cu377   1.964   .     S
O332   Cu378   1.966   .     S
O335   Cu377   1.964   .     S
O336   Cu43    1.966   1_565 S
C337   O442    1.303   .     A
C337   O409    1.304   .     A
C337   C366    1.465   .     S
C338   O418    1.374   .     S
C338   C787    1.412   .     S
C338   N293    1.378   1_655 S
C339   O419    1.374   .     S
C339   C1234   1.412   1_554 S
C339   N294    1.378   1_655 S
C340   N405    1.378   .     A
C340   O421    1.375   .     S
C340   C824    1.412   .     S
C341   O422    1.374   .     S
C341   C1240   1.412   1_554 S
C341   N184    1.378   1_565 S
C342   N407    1.378   .     A
C342   O423    1.375   .     S
C342   C791    1.412   .     S
C343   O424    1.375   .     S
C343   N408    1.378   .     A
C343   C1238   1.412   1_554 S
C344   O425    1.374   .     S
C344   C789    1.412   .     S
C344   N183    1.378   1_565 S
C345   C356    1.383   .     A
C345   O426    1.378   .     S
C345   C364    1.415   .     A
C346   C363    1.405   .     A
C346   C357    1.405   .     A
C346   O427    1.385   .     S
C347   C354    1.405   .     A
C347   O428    1.385   .     S
C347   C363    1.415   .     A
C348   C365    1.453   .     S
C348   O420    1.298   .     A
C348   O431    1.299   .     A
C349   C355    1.383   .     A
C349   O429    1.378   .     S
C349   C364    1.416   .     A
C350   C366    1.414   .     A
C350   C361    1.383   .     A
C350   O430    1.378   .     S
C351   C365    1.405   .     A
C351   O432    1.385   .     S
C351   C362    1.405   .     A
C352   O433    1.385   .     S
C352   C358    1.405   .     A
C352   C365    1.415   .     A
C353   O434    1.378   .     S
C353   C366    1.415   .     A
C353   C360    1.383   .     A
C354   O435    1.385   .     S
C354   C368    1.405   .     A
C355   C367    1.414   .     A
C355   O436    1.378   .     S
C356   O437    1.379   .     S
C356   C367    1.415   .     A
C357   C368    1.415   .     A
C357   O438    1.385   .     S
C358   C371    1.405   .     A
C358   O439    1.385   .     S
C359   C364    1.465   .     S
C359   O447    1.303   .     A
C359   O444    1.304   .     A
C360   O440    1.378   .     S
C360   C369    1.415   .     A
C361   O441    1.378   .     S
C361   C369    1.416   .     A
C362   O443    1.385   .     S
C362   C371    1.415   .     A
C363   C370    1.453   .     S
C367   C375    1.465   .     S
C368   C374    1.453   .     S
C369   C373    1.465   .     S
C370   O446    1.300   .     A
C370   O445    1.298   .     A
C371   C372    1.453   .     S
C372   O412    1.299   .     A
C372   O448    1.298   .     A
C373   O410    1.304   .     A
C373   O411    1.303   .     A
C374   O413    1.298   .     A
C374   O416    1.299   .     A
C375   O414    1.304   .     A
C375   O415    1.303   .     A
C376   N406    1.378   .     A
C376   O417    1.375   .     S
C376   C1236   1.412   1_554 S
Cu377  Cu378   2.707   .     S
Cu377  O445    1.966   .     S
Cu377  N405    2.035   .     S
Cu377  O409    1.966   .     S
Cu378  N406    2.035   .     S
Cu378  O442    1.964   .     S
Cu378  O446    1.964   .     S
Cu379  O414    1.966   .     S
Cu379  O411    1.964   .     S
Cu379  Cu380   2.707   .     S
Cu379  N407    2.035   .     S
Cu380  O410    1.966   .     S
Cu380  O415    1.964   .     S
Cu380  N408    2.035   .     S
H381   O305    0.981   1_655 S
H382   O427    0.989   .     S
H383   O428    0.989   .     S
H384   O429    0.992   .     S
H385   O430    0.992   .     S
H386   O432    0.989   .     S
H387   O433    0.989   .     S
H388   O434    0.991   .     S
H389   O435    0.989   .     S
H390   O436    0.992   .     S
H391   O437    0.991   .     S
H393   O438    0.989   .     S
H394   O439    0.989   .     S
H395   O440    0.992   .     S
H396   O441    0.992   .     S
H397   O443    0.989   .     S
H399   O309    0.981   1_655 S
H400   O422    0.981   .     S
H401   O423    0.981   .     S
H402   O424    0.981   .     S
H403   O425    0.981   .     S
H404   O426    0.992   .     S
O412   Cu156   1.964   1_565 S
O413   Cu156   1.966   1_565 S
O416   Cu155   1.964   1_565 S
O418   H280    0.981   1_655 S
O419   H286    0.981   1_655 S
O420   Cu266   1.966   1_655 S
O431   Cu265   1.964   1_655 S
O444   Cu266   1.966   1_655 S
O447   Cu265   1.964   1_655 S
O448   Cu155   1.966   1_565 S
C449   O554    1.303   .     A
C449   O521    1.304   .     A
C449   C478    1.465   .     S
C450   O530    1.374   .     S
C450   C899    1.412   .     S
C450   N629    1.378   .     S
C451   O531    1.374   .     S
C451   N630    1.378   .     S
C452   N517    1.378   .     A
C452   O533    1.375   .     S
C452   C936    1.412   .     S
C453   O534    1.374   .     S
C453   N744    1.378   .     S
C454   N519    1.378   .     A
C454   O535    1.375   .     S
C454   C903    1.412   .     S
C455   O536    1.375   .     S
C455   N520    1.378   .     A
C456   O537    1.374   .     S
C456   C901    1.412   .     S
C456   N743    1.378   .     S
C457   C468    1.383   .     A
C457   O538    1.378   .     S
C457   C476    1.415   .     A
C458   C475    1.405   .     A
C458   C469    1.405   .     A
C458   O539    1.385   .     S
C459   C466    1.405   .     A
C459   O540    1.385   .     S
C459   C475    1.415   .     A
C460   C477    1.453   .     S
C460   O532    1.298   .     A
C460   O543    1.299   .     A
C461   C467    1.383   .     A
C461   O541    1.378   .     S
C461   C476    1.416   .     A
C462   C478    1.414   .     A
C462   C473    1.383   .     A
C462   O542    1.378   .     S
C463   C477    1.405   .     A
C463   O544    1.385   .     S
C463   C474    1.405   .     A
C464   O545    1.385   .     S
C464   C470    1.405   .     A
C464   C477    1.415   .     A
C465   O546    1.378   .     S
C465   C478    1.415   .     A
C465   C472    1.383   .     A
C466   O547    1.385   .     S
C466   C480    1.405   .     A
C467   C479    1.414   .     A
C467   O548    1.378   .     S
C468   O549    1.379   .     S
C468   C479    1.415   .     A
C469   C480    1.415   .     A
C469   O550    1.385   .     S
C470   C483    1.405   .     A
C470   O551    1.385   .     S
C471   C476    1.465   .     S
C471   O559    1.303   .     A
C471   O556    1.304   .     A
C472   O552    1.378   .     S
C472   C481    1.415   .     A
C473   O553    1.378   .     S
C473   C481    1.416   .     A
C474   O555    1.385   .     S
C474   C483    1.415   .     A
C475   C482    1.453   .     S
C479   C487    1.465   .     S
C480   C486    1.453   .     S
C481   C485    1.465   .     S
C482   O558    1.300   .     A
C482   O557    1.298   .     A
C483   C484    1.453   .     S
C484   O524    1.299   .     A
C484   O560    1.298   .     A
C485   O522    1.304   .     A
C485   O523    1.303   .     A
C486   O525    1.298   .     A
C486   O528    1.299   .     A
C487   O526    1.304   .     A
C487   O527    1.303   .     A
C488   N518    1.378   .     A
C488   O529    1.375   .     S
Cu489  Cu490   2.707   .     S
Cu489  O557    1.966   .     S
Cu489  N517    2.035   .     S
Cu489  O521    1.966   .     S
Cu489  O655    1.964   1_455 S
Cu489  O671    1.964   1_455 S
Cu490  N518    2.035   .     S
Cu490  O554    1.964   .     S
Cu490  O558    1.964   .     S
Cu490  O644    1.966   1_455 S
Cu490  O668    1.966   1_455 S
Cu491  O526    1.966   .     S
Cu491  O523    1.964   .     S
Cu491  Cu492   2.707   .     S
Cu491  N519    2.035   .     S
Cu491  O752    1.964   1_545 S
Cu491  O784    1.966   1_545 S
Cu492  O522    1.966   .     S
Cu492  O527    1.964   .     S
Cu492  N520    2.035   .     S
Cu492  O748    1.964   1_545 S
Cu492  O749    1.966   1_545 S
H493   O641    0.981   .     S
H494   O539    0.989   .     S
H495   O540    0.989   .     S
H496   O541    0.992   .     S
H497   O542    0.992   .     S
H498   O544    0.989   .     S
H499   O545    0.989   .     S
H500   O546    0.991   .     S
H501   O547    0.989   .     S
H502   O548    0.992   .     S
H503   O549    0.991   .     S
H504   O642    0.981   1_455 S
H505   O550    0.989   .     S
H506   O551    0.989   .     S
H507   O552    0.992   .     S
H508   O553    0.992   .     S
H509   O555    0.989   .     S
H510   O643    0.981   1_455 S
H511   O645    0.981   .     S
H512   O534    0.981   .     S
H513   O535    0.981   .     S
H514   O536    0.981   .     S
H515   O537    0.981   .     S
H516   O538    0.992   .     S
N517   C562    1.378   1_455 S
N518   C563    1.378   1_455 S
N519   C680    1.378   1_545 S
N520   C677    1.378   1_545 S
O524   Cu716   1.964   .     S
O525   Cu716   1.966   .     S
O528   Cu715   1.964   .     S
O529   H605    0.981   1_455 S
O530   H616    0.981   .     S
O531   H622    0.981   .     S
O532   Cu602   1.966   .     S
O533   H623    0.981   1_455 S
O543   Cu601   1.964   .     S
O556   Cu602   1.966   .     S
O559   Cu601   1.964   .     S
O560   Cu715   1.966   .     S
C561   O666    1.303   .     A
C561   O633    1.304   .     A
C561   C590    1.465   .     S
C562   O642    1.374   .     S
C562   C1011   1.412   .     S
C562   N517    1.378   1_655 S
C563   O643    1.374   .     S
C563   N518    1.378   1_655 S
C564   N629    1.378   .     A
C564   O645    1.375   .     S
C564   C1048   1.412   .     S
C565   O646    1.374   .     S
C565   N856    1.378   .     S
C566   N631    1.378   .     A
C566   O647    1.375   .     S
C566   C1015   1.412   .     S
C567   O648    1.375   .     S
C567   N632    1.378   .     A
C568   O649    1.374   .     S
C568   C1013   1.412   .     S
C568   N855    1.378   .     S
C569   C580    1.383   .     A
C569   O650    1.378   .     S
C569   C588    1.415   .     A
C570   C587    1.405   .     A
C570   C581    1.405   .     A
C570   O651    1.385   .     S
C571   C578    1.405   .     A
C571   O652    1.385   .     S
C571   C587    1.415   .     A
C572   C589    1.453   .     S
C572   O644    1.298   .     A
C572   O655    1.299   .     A
C573   C579    1.383   .     A
C573   O653    1.378   .     S
C573   C588    1.416   .     A
C574   C590    1.414   .     A
C574   C585    1.383   .     A
C574   O654    1.378   .     S
C575   C589    1.405   .     A
C575   O656    1.385   .     S
C575   C586    1.405   .     A
C576   O657    1.385   .     S
C576   C582    1.405   .     A
C576   C589    1.415   .     A
C577   O658    1.378   .     S
C577   C590    1.415   .     A
C577   C584    1.383   .     A
C578   O659    1.385   .     S
C578   C592    1.405   .     A
C579   C591    1.414   .     A
C579   O660    1.378   .     S
C580   O661    1.379   .     S
C580   C591    1.415   .     A
C581   C592    1.415   .     A
C581   O662    1.385   .     S
C582   C595    1.405   .     A
C582   O663    1.385   .     S
C583   C588    1.465   .     S
C583   O671    1.303   .     A
C583   O668    1.304   .     A
C584   O664    1.378   .     S
C584   C593    1.415   .     A
C585   O665    1.378   .     S
C585   C593    1.416   .     A
C586   O667    1.385   .     S
C586   C595    1.415   .     A
C587   C594    1.453   .     S
C591   C599    1.465   .     S
C592   C598    1.453   .     S
C593   C597    1.465   .     S
C594   O670    1.300   .     A
C594   O669    1.298   .     A
C595   C596    1.453   .     S
C596   O636    1.299   .     A
C596   O672    1.298   .     A
C597   O634    1.304   .     A
C597   O635    1.303   .     A
C598   O637    1.298   .     A
C598   O640    1.299   .     A
C599   O638    1.304   .     A
C599   O639    1.303   .     A
C600   N630    1.378   .     A
C600   O641    1.375   .     S
Cu601  Cu602   2.707   .     S
Cu601  O669    1.966   .     S
Cu601  N629    2.035   .     S
Cu601  O633    1.966   .     S
Cu602  N630    2.035   .     S
Cu602  O666    1.964   .     S
Cu602  O670    1.964   .     S
Cu603  O638    1.966   .     S
Cu603  O635    1.964   .     S
Cu603  Cu604   2.707   .     S
Cu603  N631    2.035   .     S
Cu603  O864    1.964   1_545 S
Cu603  O896    1.966   1_545 S
Cu604  O634    1.966   .     S
Cu604  O639    1.964   .     S
Cu604  N632    2.035   .     S
Cu604  O860    1.964   1_545 S
Cu604  O861    1.966   1_545 S
H605   O529    0.981   1_655 S
H606   O651    0.989   .     S
H607   O652    0.989   .     S
H608   O653    0.992   .     S
H609   O654    0.992   .     S
H610   O656    0.989   .     S
H611   O657    0.989   .     S
H612   O658    0.991   .     S
H613   O659    0.989   .     S
H614   O660    0.992   .     S
H615   O661    0.991   .     S
H617   O662    0.989   .     S
H618   O663    0.989   .     S
H619   O664    0.992   .     S
H620   O665    0.992   .     S
H621   O667    0.989   .     S
H623   O533    0.981   1_655 S
H624   O646    0.981   .     S
H625   O647    0.981   .     S
H626   O648    0.981   .     S
H627   O649    0.981   .     S
H628   O650    0.992   .     S
N631   C792    1.378   1_545 S
N632   C789    1.378   1_545 S
O636   Cu828   1.964   .     S
O637   Cu828   1.966   .     S
O640   Cu827   1.964   .     S
O642   H504    0.981   1_655 S
O643   H510    0.981   1_655 S
O644   Cu490   1.966   1_655 S
O655   Cu489   1.964   1_655 S
O668   Cu490   1.966   1_655 S
O671   Cu489   1.964   1_655 S
O672   Cu827   1.966   .     S
C673   O778    1.303   .     A
C673   O745    1.304   .     A
C673   C702    1.465   .     S
C674   O754    1.374   .     S
C674   C1123   1.412   .     S
C674   N853    1.378   .     S
C675   O755    1.374   .     S
C675   N854    1.378   .     S
C676   N741    1.378   .     A
C676   O757    1.375   .     S
C676   C1160   1.412   .     S
C677   O758    1.374   .     S
C677   N520    1.378   1_565 S
C678   N743    1.378   .     A
C678   O759    1.375   .     S
C678   C1127   1.412   .     S
C679   O760    1.375   .     S
C679   N744    1.378   .     A
C680   O761    1.374   .     S
C680   C1125   1.412   .     S
C680   N519    1.378   1_565 S
C681   C692    1.383   .     A
C681   O762    1.378   .     S
C681   C700    1.415   .     A
C682   C699    1.405   .     A
C682   C693    1.405   .     A
C682   O763    1.385   .     S
C683   C690    1.405   .     A
C683   O764    1.385   .     S
C683   C699    1.415   .     A
C684   C701    1.453   .     S
C684   O756    1.298   .     A
C684   O767    1.299   .     A
C685   C691    1.383   .     A
C685   O765    1.378   .     S
C685   C700    1.416   .     A
C686   C702    1.414   .     A
C686   C697    1.383   .     A
C686   O766    1.378   .     S
C687   C701    1.405   .     A
C687   O768    1.385   .     S
C687   C698    1.405   .     A
C688   O769    1.385   .     S
C688   C694    1.405   .     A
C688   C701    1.415   .     A
C689   O770    1.378   .     S
C689   C702    1.415   .     A
C689   C696    1.383   .     A
C690   O771    1.385   .     S
C690   C704    1.405   .     A
C691   C703    1.414   .     A
C691   O772    1.378   .     S
C692   O773    1.379   .     S
C692   C703    1.415   .     A
C693   C704    1.415   .     A
C693   O774    1.385   .     S
C694   C707    1.405   .     A
C694   O775    1.385   .     S
C695   C700    1.465   .     S
C695   O783    1.303   .     A
C695   O780    1.304   .     A
C696   O776    1.378   .     S
C696   C705    1.415   .     A
C697   O777    1.378   .     S
C697   C705    1.416   .     A
C698   O779    1.385   .     S
C698   C707    1.415   .     A
C699   C706    1.453   .     S
C703   C711    1.465   .     S
C704   C710    1.453   .     S
C705   C709    1.465   .     S
C706   O782    1.300   .     A
C706   O781    1.298   .     A
C707   C708    1.453   .     S
C708   O748    1.299   .     A
C708   O784    1.298   .     A
C709   O746    1.304   .     A
C709   O747    1.303   .     A
C710   O749    1.298   .     A
C710   O752    1.299   .     A
C711   O750    1.304   .     A
C711   O751    1.303   .     A
C712   N742    1.378   .     A
C712   O753    1.375   .     S
Cu713  Cu714   2.707   .     S
Cu713  O781    1.966   .     S
Cu713  N741    2.035   .     S
Cu713  O745    1.966   .     S
Cu713  O879    1.964   1_455 S
Cu713  O895    1.964   1_455 S
Cu714  N742    2.035   .     S
Cu714  O778    1.964   .     S
Cu714  O782    1.964   .     S
Cu714  O868    1.966   1_455 S
Cu714  O892    1.966   1_455 S
Cu715  O750    1.966   .     S
Cu715  O747    1.964   .     S
Cu715  Cu716   2.707   .     S
Cu715  N743    2.035   .     S
Cu716  O746    1.966   .     S
Cu716  O751    1.964   .     S
Cu716  N744    2.035   .     S
H717   O865    0.981   .     S
H718   O763    0.989   .     S
H719   O764    0.989   .     S
H720   O765    0.992   .     S
H721   O766    0.992   .     S
H722   O768    0.989   .     S
H723   O769    0.989   .     S
H724   O770    0.991   .     S
H725   O771    0.989   .     S
H726   O772    0.992   .     S
H727   O773    0.991   .     S
H728   O866    0.981   1_455 S
H729   O774    0.989   .     S
H730   O775    0.989   .     S
H731   O776    0.992   .     S
H732   O777    0.992   .     S
H733   O779    0.989   .     S
H734   O867    0.981   1_455 S
H735   O869    0.981   .     S
H736   O758    0.981   .     S
H737   O759    0.981   .     S
H738   O760    0.981   .     S
H739   O761    0.981   .     S
H740   O762    0.992   .     S
N741   C786    1.378   1_455 S
N742   C787    1.378   1_455 S
O748   Cu492   1.964   1_565 S
O749   Cu492   1.966   1_565 S
O752   Cu491   1.964   1_565 S
O753   H829    0.981   1_455 S
O754   H840    0.981   .     S
O755   H846    0.981   .     S
O756   Cu826   1.966   .     S
O757   H847    0.981   1_455 S
O767   Cu825   1.964   .     S
O780   Cu826   1.966   .     S
O783   Cu825   1.964   .     S
O784   Cu491   1.966   1_565 S
C785   O890    1.303   .     A
C785   O857    1.304   .     A
C785   C814    1.465   .     S
C786   O866    1.374   .     S
C786   C1235   1.412   .     S
C786   N741    1.378   1_655 S
C787   O867    1.374   .     S
C787   N742    1.378   1_655 S
C788   N853    1.378   .     A
C788   O869    1.375   .     S
C788   C1272   1.412   .     S
C789   O870    1.374   .     S
C789   N632    1.378   1_565 S
C790   N855    1.378   .     A
C790   O871    1.375   .     S
C790   C1239   1.412   .     S
C791   O872    1.375   .     S
C791   N856    1.378   .     A
C792   O873    1.374   .     S
C792   C1237   1.412   .     S
C792   N631    1.378   1_565 S
C793   C804    1.383   .     A
C793   O874    1.378   .     S
C793   C812    1.415   .     A
C794   C811    1.405   .     A
C794   C805    1.405   .     A
C794   O875    1.385   .     S
C795   C802    1.405   .     A
C795   O876    1.385   .     S
C795   C811    1.415   .     A
C796   C813    1.453   .     S
C796   O868    1.298   .     A
C796   O879    1.299   .     A
C797   C803    1.383   .     A
C797   O877    1.378   .     S
C797   C812    1.416   .     A
C798   C814    1.414   .     A
C798   C809    1.383   .     A
C798   O878    1.378   .     S
C799   C813    1.405   .     A
C799   O880    1.385   .     S
C799   C810    1.405   .     A
C800   O881    1.385   .     S
C800   C806    1.405   .     A
C800   C813    1.415   .     A
C801   O882    1.378   .     S
C801   C814    1.415   .     A
C801   C808    1.383   .     A
C802   O883    1.385   .     S
C802   C816    1.405   .     A
C803   C815    1.414   .     A
C803   O884    1.378   .     S
C804   O885    1.379   .     S
C804   C815    1.415   .     A
C805   C816    1.415   .     A
C805   O886    1.385   .     S
C806   C819    1.405   .     A
C806   O887    1.385   .     S
C807   C812    1.465   .     S
C807   O895    1.303   .     A
C807   O892    1.304   .     A
C808   O888    1.378   .     S
C808   C817    1.415   .     A
C809   O889    1.378   .     S
C809   C817    1.416   .     A
C810   O891    1.385   .     S
C810   C819    1.415   .     A
C811   C818    1.453   .     S
C815   C823    1.465   .     S
C816   C822    1.453   .     S
C817   C821    1.465   .     S
C818   O894    1.300   .     A
C818   O893    1.298   .     A
C819   C820    1.453   .     S
C820   O860    1.299   .     A
C820   O896    1.298   .     A
C821   O858    1.304   .     A
C821   O859    1.303   .     A
C822   O861    1.298   .     A
C822   O864    1.299   .     A
C823   O862    1.304   .     A
C823   O863    1.303   .     A
C824   N854    1.378   .     A
C824   O865    1.375   .     S
Cu825  Cu826   2.707   .     S
Cu825  O893    1.966   .     S
Cu825  N853    2.035   .     S
Cu825  O857    1.966   .     S
Cu826  N854    2.035   .     S
Cu826  O890    1.964   .     S
Cu826  O894    1.964   .     S
Cu827  O862    1.966   .     S
Cu827  O859    1.964   .     S
Cu827  Cu828   2.707   .     S
Cu827  N855    2.035   .     S
Cu828  O858    1.966   .     S
Cu828  O863    1.964   .     S
Cu828  N856    2.035   .     S
H829   O753    0.981   1_655 S
H830   O875    0.989   .     S
H831   O876    0.989   .     S
H832   O877    0.992   .     S
H833   O878    0.992   .     S
H834   O880    0.989   .     S
H835   O881    0.989   .     S
H836   O882    0.991   .     S
H837   O883    0.989   .     S
H838   O884    0.992   .     S
H839   O885    0.991   .     S
H841   O886    0.989   .     S
H842   O887    0.989   .     S
H843   O888    0.992   .     S
H844   O889    0.992   .     S
H845   O891    0.989   .     S
H847   O757    0.981   1_655 S
H848   O870    0.981   .     S
H849   O871    0.981   .     S
H850   O872    0.981   .     S
H851   O873    0.981   .     S
H852   O874    0.992   .     S
O860   Cu604   1.964   1_565 S
O861   Cu604   1.966   1_565 S
O864   Cu603   1.964   1_565 S
O866   H728    0.981   1_655 S
O867   H734    0.981   1_655 S
O868   Cu714   1.966   1_655 S
O879   Cu713   1.964   1_655 S
O892   Cu714   1.966   1_655 S
O895   Cu713   1.964   1_655 S
O896   Cu603   1.966   1_565 S
C897   O1002   1.303   .     A
C897   O969    1.304   .     A
C897   C926    1.465   .     S
C898   O978    1.374   .     S
C898   C3      1.412   1_556 S
C898   N1077   1.378   .     S
C899   O979    1.374   .     S
C899   N1078   1.378   .     S
C900   N965    1.378   .     A
C900   O981    1.375   .     S
C900   C40     1.412   1_556 S
C901   O982    1.374   .     S
C901   N1192   1.378   .     S
C902   N967    1.378   .     A
C902   O983    1.375   .     S
C902   C7      1.412   1_556 S
C903   O984    1.375   .     S
C903   N968    1.378   .     A
C904   O985    1.374   .     S
C904   C5      1.412   1_556 S
C904   N1191   1.378   .     S
C905   C916    1.383   .     A
C905   O986    1.378   .     S
C905   C924    1.415   .     A
C906   C923    1.405   .     A
C906   C917    1.405   .     A
C906   O987    1.385   .     S
C907   C914    1.405   .     A
C907   O988    1.385   .     S
C907   C923    1.415   .     A
C908   C925    1.453   .     S
C908   O980    1.298   .     A
C908   O991    1.299   .     A
C909   C915    1.383   .     A
C909   O989    1.378   .     S
C909   C924    1.416   .     A
C910   C926    1.414   .     A
C910   C921    1.383   .     A
C910   O990    1.378   .     S
C911   C925    1.405   .     A
C911   O992    1.385   .     S
C911   C922    1.405   .     A
C912   O993    1.385   .     S
C912   C918    1.405   .     A
C912   C925    1.415   .     A
C913   O994    1.378   .     S
C913   C926    1.415   .     A
C913   C920    1.383   .     A
C914   O995    1.385   .     S
C914   C928    1.405   .     A
C915   C927    1.414   .     A
C915   O996    1.378   .     S
C916   O997    1.379   .     S
C916   C927    1.415   .     A
C917   C928    1.415   .     A
C917   O998    1.385   .     S
C918   C931    1.405   .     A
C918   O999    1.385   .     S
C919   C924    1.465   .     S
C919   O1007   1.303   .     A
C919   O1004   1.304   .     A
C920   O1000   1.378   .     S
C920   C929    1.415   .     A
C921   O1001   1.378   .     S
C921   C929    1.416   .     A
C922   O1003   1.385   .     S
C922   C931    1.415   .     A
C923   C930    1.453   .     S
C927   C935    1.465   .     S
C928   C934    1.453   .     S
C929   C933    1.465   .     S
C930   O1006   1.300   .     A
C930   O1005   1.298   .     A
C931   C932    1.453   .     S
C932   O972    1.299   .     A
C932   O1008   1.298   .     A
C933   O970    1.304   .     A
C933   O971    1.303   .     A
C934   O973    1.298   .     A
C934   O976    1.299   .     A
C935   O974    1.304   .     A
C935   O975    1.303   .     A
C936   N966    1.378   .     A
C936   O977    1.375   .     S
Cu937  Cu938   2.707   .     S
Cu937  O1005   1.966   .     S
Cu937  N965    2.035   .     S
Cu937  O969    1.966   .     S
Cu937  O1103   1.964   1_455 S
Cu937  O1119   1.964   1_455 S
Cu938  N966    2.035   .     S
Cu938  O1002   1.964   .     S
Cu938  O1006   1.964   .     S
Cu938  O1092   1.966   1_455 S
Cu938  O1116   1.966   1_455 S
Cu939  O974    1.966   .     S
Cu939  O971    1.964   .     S
Cu939  Cu940   2.707   .     S
Cu939  N967    2.035   .     S
Cu939  O1200   1.964   1_545 S
Cu939  O1232   1.966   1_545 S
Cu940  O970    1.966   .     S
Cu940  O975    1.964   .     S
Cu940  N968    2.035   .     S
Cu940  O1196   1.964   1_545 S
Cu940  O1197   1.966   1_545 S
H941   O1089   0.981   .     S
H942   O987    0.989   .     S
H943   O988    0.989   .     S
H944   O989    0.992   .     S
H945   O990    0.992   .     S
H946   O992    0.989   .     S
H947   O993    0.989   .     S
H948   O994    0.991   .     S
H949   O995    0.989   .     S
H950   O996    0.992   .     S
H951   O997    0.991   .     S
H952   O1090   0.981   1_455 S
H953   O998    0.989   .     S
H954   O999    0.989   .     S
H955   O1000   0.992   .     S
H956   O1001   0.992   .     S
H957   O1003   0.989   .     S
H958   O1091   0.981   1_455 S
H959   O1093   0.981   .     S
H960   O982    0.981   .     S
H961   O983    0.981   .     S
H962   O984    0.981   .     S
H963   O985    0.981   .     S
H964   O986    0.992   .     S
N965   C1010   1.378   1_455 S
N966   C1011   1.378   1_455 S
N967   C1128   1.378   1_545 S
N968   C1125   1.378   1_545 S
O972   Cu1164  1.964   .     S
O973   Cu1164  1.966   .     S
O976   Cu1163  1.964   .     S
O977   H1053   0.981   1_455 S
O978   H1064   0.981   .     S
O979   H1070   0.981   .     S
O980   Cu1050  1.966   .     S
O981   H1071   0.981   1_455 S
O991   Cu1049  1.964   .     S
O1004  Cu1050  1.966   .     S
O1007  Cu1049  1.964   .     S
O1008  Cu1163  1.966   .     S
C1009  O1114   1.303   .     A
C1009  O1081   1.304   .     A
C1009  C1038   1.465   .     S
C1010  O1090   1.374   .     S
C1010  C115    1.412   1_556 S
C1010  N965    1.378   1_655 S
C1011  O1091   1.374   .     S
C1011  N966    1.378   1_655 S
C1012  N1077   1.378   .     A
C1012  O1093   1.375   .     S
C1012  C152    1.412   1_556 S
C1013  O1094   1.374   .     S
C1013  N1304   1.378   .     S
C1014  N1079   1.378   .     A
C1014  O1095   1.375   .     S
C1014  C119    1.412   1_556 S
C1015  O1096   1.375   .     S
C1015  N1080   1.378   .     A
C1016  O1097   1.374   .     S
C1016  C117    1.412   1_556 S
C1016  N1303   1.378   .     S
C1017  C1028   1.383   .     A
C1017  O1098   1.378   .     S
C1017  C1036   1.415   .     A
C1018  C1035   1.405   .     A
C1018  C1029   1.405   .     A
C1018  O1099   1.385   .     S
C1019  C1026   1.405   .     A
C1019  O1100   1.385   .     S
C1019  C1035   1.415   .     A
C1020  C1037   1.453   .     S
C1020  O1092   1.298   .     A
C1020  O1103   1.299   .     A
C1021  C1027   1.383   .     A
C1021  O1101   1.378   .     S
C1021  C1036   1.416   .     A
C1022  C1038   1.414   .     A
C1022  C1033   1.383   .     A
C1022  O1102   1.378   .     S
C1023  C1037   1.405   .     A
C1023  O1104   1.385   .     S
C1023  C1034   1.405   .     A
C1024  O1105   1.385   .     S
C1024  C1030   1.405   .     A
C1024  C1037   1.415   .     A
C1025  O1106   1.378   .     S
C1025  C1038   1.415   .     A
C1025  C1032   1.383   .     A
C1026  O1107   1.385   .     S
C1026  C1040   1.405   .     A
C1027  C1039   1.414   .     A
C1027  O1108   1.378   .     S
C1028  O1109   1.379   .     S
C1028  C1039   1.415   .     A
C1029  C1040   1.415   .     A
C1029  O1110   1.385   .     S
C1030  C1043   1.405   .     A
C1030  O1111   1.385   .     S
C1031  C1036   1.465   .     S
C1031  O1119   1.303   .     A
C1031  O1116   1.304   .     A
C1032  O1112   1.378   .     S
C1032  C1041   1.415   .     A
C1033  O1113   1.378   .     S
C1033  C1041   1.416   .     A
C1034  O1115   1.385   .     S
C1034  C1043   1.415   .     A
C1035  C1042   1.453   .     S
C1039  C1047   1.465   .     S
C1040  C1046   1.453   .     S
C1041  C1045   1.465   .     S
C1042  O1118   1.300   .     A
C1042  O1117   1.298   .     A
C1043  C1044   1.453   .     S
C1044  O1084   1.299   .     A
C1044  O1120   1.298   .     A
C1045  O1082   1.304   .     A
C1045  O1083   1.303   .     A
C1046  O1085   1.298   .     A
C1046  O1088   1.299   .     A
C1047  O1086   1.304   .     A
C1047  O1087   1.303   .     A
C1048  N1078   1.378   .     A
C1048  O1089   1.375   .     S
Cu1049 Cu1050  2.707   .     S
Cu1049 O1117   1.966   .     S
Cu1049 N1077   2.035   .     S
Cu1049 O1081   1.966   .     S
Cu1050 N1078   2.035   .     S
Cu1050 O1114   1.964   .     S
Cu1050 O1118   1.964   .     S
Cu1051 O1086   1.966   .     S
Cu1051 O1083   1.964   .     S
Cu1051 Cu1052  2.707   .     S
Cu1051 N1079   2.035   .     S
Cu1051 O1312   1.964   1_545 S
Cu1051 O1344   1.966   1_545 S
Cu1052 O1082   1.966   .     S
Cu1052 O1087   1.964   .     S
Cu1052 N1080   2.035   .     S
Cu1052 O1308   1.964   1_545 S
Cu1052 O1309   1.966   1_545 S
H1053  O977    0.981   1_655 S
H1054  O1099   0.989   .     S
H1055  O1100   0.989   .     S
H1056  O1101   0.992   .     S
H1057  O1102   0.992   .     S
H1058  O1104   0.989   .     S
H1059  O1105   0.989   .     S
H1060  O1106   0.991   .     S
H1061  O1107   0.989   .     S
H1062  O1108   0.992   .     S
H1063  O1109   0.991   .     S
H1065  O1110   0.989   .     S
H1066  O1111   0.989   .     S
H1067  O1112   0.992   .     S
H1068  O1113   0.992   .     S
H1069  O1115   0.989   .     S
H1071  O981    0.981   1_655 S
H1072  O1094   0.981   .     S
H1073  O1095   0.981   .     S
H1074  O1096   0.981   .     S
H1075  O1097   0.981   .     S
H1076  O1098   0.992   .     S
N1079  C1240   1.378   1_545 S
N1080  C1237   1.378   1_545 S
O1084  Cu1276  1.964   .     S
O1085  Cu1276  1.966   .     S
O1088  Cu1275  1.964   .     S
O1090  H952    0.981   1_655 S
O1091  H958    0.981   1_655 S
O1092  Cu938   1.966   1_655 S
O1103  Cu937   1.964   1_655 S
O1116  Cu938   1.966   1_655 S
O1119  Cu937   1.964   1_655 S
O1120  Cu1275  1.966   .     S
C1121  O1226   1.303   .     A
C1121  O1193   1.304   .     A
C1121  C1150   1.465   .     S
C1122  O1202   1.374   .     S
C1122  C227    1.412   1_556 S
C1122  N1301   1.378   .     S
C1123  O1203   1.374   .     S
C1123  N1302   1.378   .     S
C1124  N1189   1.378   .     A
C1124  O1205   1.375   .     S
C1124  C264    1.412   1_556 S
C1125  O1206   1.374   .     S
C1125  N968    1.378   1_565 S
C1126  N1191   1.378   .     A
C1126  O1207   1.375   .     S
C1126  C231    1.412   1_556 S
C1127  O1208   1.375   .     S
C1127  N1192   1.378   .     A
C1128  O1209   1.374   .     S
C1128  C229    1.412   1_556 S
C1128  N967    1.378   1_565 S
C1129  C1140   1.383   .     A
C1129  O1210   1.378   .     S
C1129  C1148   1.415   .     A
C1130  C1147   1.405   .     A
C1130  C1141   1.405   .     A
C1130  O1211   1.385   .     S
C1131  C1138   1.405   .     A
C1131  O1212   1.385   .     S
C1131  C1147   1.415   .     A
C1132  C1149   1.453   .     S
C1132  O1204   1.298   .     A
C1132  O1215   1.299   .     A
C1133  C1139   1.383   .     A
C1133  O1213   1.378   .     S
C1133  C1148   1.416   .     A
C1134  C1150   1.414   .     A
C1134  C1145   1.383   .     A
C1134  O1214   1.378   .     S
C1135  C1149   1.405   .     A
C1135  O1216   1.385   .     S
C1135  C1146   1.405   .     A
C1136  O1217   1.385   .     S
C1136  C1142   1.405   .     A
C1136  C1149   1.415   .     A
C1137  O1218   1.378   .     S
C1137  C1150   1.415   .     A
C1137  C1144   1.383   .     A
C1138  O1219   1.385   .     S
C1138  C1152   1.405   .     A
C1139  C1151   1.414   .     A
C1139  O1220   1.378   .     S
C1140  O1221   1.379   .     S
C1140  C1151   1.415   .     A
C1141  C1152   1.415   .     A
C1141  O1222   1.385   .     S
C1142  C1155   1.405   .     A
C1142  O1223   1.385   .     S
C1143  C1148   1.465   .     S
C1143  O1231   1.303   .     A
C1143  O1228   1.304   .     A
C1144  O1224   1.378   .     S
C1144  C1153   1.415   .     A
C1145  O1225   1.378   .     S
C1145  C1153   1.416   .     A
C1146  O1227   1.385   .     S
C1146  C1155   1.415   .     A
C1147  C1154   1.453   .     S
C1151  C1159   1.465   .     S
C1152  C1158   1.453   .     S
C1153  C1157   1.465   .     S
C1154  O1230   1.300   .     A
C1154  O1229   1.298   .     A
C1155  C1156   1.453   .     S
C1156  O1196   1.299   .     A
C1156  O1232   1.298   .     A
C1157  O1194   1.304   .     A
C1157  O1195   1.303   .     A
C1158  O1197   1.298   .     A
C1158  O1200   1.299   .     A
C1159  O1198   1.304   .     A
C1159  O1199   1.303   .     A
C1160  N1190   1.378   .     A
C1160  O1201   1.375   .     S
Cu1161 Cu1162  2.707   .     S
Cu1161 O1229   1.966   .     S
Cu1161 N1189   2.035   .     S
Cu1161 O1193   1.966   .     S
Cu1161 O1327   1.964   1_455 S
Cu1161 O1343   1.964   1_455 S
Cu1162 N1190   2.035   .     S
Cu1162 O1226   1.964   .     S
Cu1162 O1230   1.964   .     S
Cu1162 O1316   1.966   1_455 S
Cu1162 O1340   1.966   1_455 S
Cu1163 O1198   1.966   .     S
Cu1163 O1195   1.964   .     S
Cu1163 Cu1164  2.707   .     S
Cu1163 N1191   2.035   .     S
Cu1164 O1194   1.966   .     S
Cu1164 O1199   1.964   .     S
Cu1164 N1192   2.035   .     S
H1165  O1313   0.981   .     S
H1166  O1211   0.989   .     S
H1167  O1212   0.989   .     S
H1168  O1213   0.992   .     S
H1169  O1214   0.992   .     S
H1170  O1216   0.989   .     S
H1171  O1217   0.989   .     S
H1172  O1218   0.991   .     S
H1173  O1219   0.989   .     S
H1174  O1220   0.992   .     S
H1175  O1221   0.991   .     S
H1176  O1314   0.981   1_455 S
H1177  O1222   0.989   .     S
H1178  O1223   0.989   .     S
H1179  O1224   0.992   .     S
H1180  O1225   0.992   .     S
H1181  O1227   0.989   .     S
H1182  O1315   0.981   1_455 S
H1183  O1317   0.981   .     S
H1184  O1206   0.981   .     S
H1185  O1207   0.981   .     S
H1186  O1208   0.981   .     S
H1187  O1209   0.981   .     S
H1188  O1210   0.992   .     S
N1189  C1234   1.378   1_455 S
N1190  C1235   1.378   1_455 S
O1196  Cu940   1.964   1_565 S
O1197  Cu940   1.966   1_565 S
O1200  Cu939   1.964   1_565 S
O1201  H1277   0.981   1_455 S
O1202  H1288   0.981   .     S
O1203  H1294   0.981   .     S
O1204  Cu1274  1.966   .     S
O1205  H1295   0.981   1_455 S
O1215  Cu1273  1.964   .     S
O1228  Cu1274  1.966   .     S
O1231  Cu1273  1.964   .     S
O1232  Cu939   1.966   1_565 S
C1233  O1338   1.303   .     A
C1233  O1305   1.304   .     A
C1233  C1262   1.465   .     S
C1234  O1314   1.374   .     S
C1234  C339    1.412   1_556 S
C1234  N1189   1.378   1_655 S
C1235  O1315   1.374   .     S
C1235  N1190   1.378   1_655 S
C1236  N1301   1.378   .     A
C1236  O1317   1.375   .     S
C1236  C376    1.412   1_556 S
C1237  O1318   1.374   .     S
C1237  N1080   1.378   1_565 S
C1238  N1303   1.378   .     A
C1238  O1319   1.375   .     S
C1238  C343    1.412   1_556 S
C1239  O1320   1.375   .     S
C1239  N1304   1.378   .     A
C1240  O1321   1.374   .     S
C1240  C341    1.412   1_556 S
C1240  N1079   1.378   1_565 S
C1241  C1252   1.383   .     A
C1241  O1322   1.378   .     S
C1241  C1260   1.415   .     A
C1242  C1259   1.405   .     A
C1242  C1253   1.405   .     A
C1242  O1323   1.385   .     S
C1243  C1250   1.405   .     A
C1243  O1324   1.385   .     S
C1243  C1259   1.415   .     A
C1244  C1261   1.453   .     S
C1244  O1316   1.298   .     A
C1244  O1327   1.299   .     A
C1245  C1251   1.383   .     A
C1245  O1325   1.378   .     S
C1245  C1260   1.416   .     A
C1246  C1262   1.414   .     A
C1246  C1257   1.383   .     A
C1246  O1326   1.378   .     S
C1247  C1261   1.405   .     A
C1247  O1328   1.385   .     S
C1247  C1258   1.405   .     A
C1248  O1329   1.385   .     S
C1248  C1254   1.405   .     A
C1248  C1261   1.415   .     A
C1249  O1330   1.378   .     S
C1249  C1262   1.415   .     A
C1249  C1256   1.383   .     A
C1250  O1331   1.385   .     S
C1250  C1264   1.405   .     A
C1251  C1263   1.414   .     A
C1251  O1332   1.378   .     S
C1252  O1333   1.379   .     S
C1252  C1263   1.415   .     A
C1253  C1264   1.415   .     A
C1253  O1334   1.385   .     S
C1254  C1267   1.405   .     A
C1254  O1335   1.385   .     S
C1255  C1260   1.465   .     S
C1255  O1343   1.303   .     A
C1255  O1340   1.304   .     A
C1256  O1336   1.378   .     S
C1256  C1265   1.415   .     A
C1257  O1337   1.378   .     S
C1257  C1265   1.416   .     A
C1258  O1339   1.385   .     S
C1258  C1267   1.415   .     A
C1259  C1266   1.453   .     S
C1263  C1271   1.465   .     S
C1264  C1270   1.453   .     S
C1265  C1269   1.465   .     S
C1266  O1342   1.300   .     A
C1266  O1341   1.298   .     A
C1267  C1268   1.453   .     S
C1268  O1308   1.299   .     A
C1268  O1344   1.298   .     A
C1269  O1306   1.304   .     A
C1269  O1307   1.303   .     A
C1270  O1309   1.298   .     A
C1270  O1312   1.299   .     A
C1271  O1310   1.304   .     A
C1271  O1311   1.303   .     A
C1272  N1302   1.378   .     A
C1272  O1313   1.375   .     S
Cu1273 Cu1274  2.707   .     S
Cu1273 O1341   1.966   .     S
Cu1273 N1301   2.035   .     S
Cu1273 O1305   1.966   .     S
Cu1274 N1302   2.035   .     S
Cu1274 O1338   1.964   .     S
Cu1274 O1342   1.964   .     S
Cu1275 O1310   1.966   .     S
Cu1275 O1307   1.964   .     S
Cu1275 Cu1276  2.707   .     S
Cu1275 N1303   2.035   .     S
Cu1276 O1306   1.966   .     S
Cu1276 O1311   1.964   .     S
Cu1276 N1304   2.035   .     S
H1277  O1201   0.981   1_655 S
H1278  O1323   0.989   .     S
H1279  O1324   0.989   .     S
H1280  O1325   0.992   .     S
H1281  O1326   0.992   .     S
H1282  O1328   0.989   .     S
H1283  O1329   0.989   .     S
H1284  O1330   0.991   .     S
H1285  O1331   0.989   .     S
H1286  O1332   0.992   .     S
H1287  O1333   0.991   .     S
H1289  O1334   0.989   .     S
H1290  O1335   0.989   .     S
H1291  O1336   0.992   .     S
H1292  O1337   0.992   .     S
H1293  O1339   0.989   .     S
H1295  O1205   0.981   1_655 S
H1296  O1318   0.981   .     S
H1297  O1319   0.981   .     S
H1298  O1320   0.981   .     S
H1299  O1321   0.981   .     S
H1300  O1322   0.992   .     S
O1308  Cu1052  1.964   1_565 S
O1309  Cu1052  1.966   1_565 S
O1312  Cu1051  1.964   1_565 S
O1314  H1176   0.981   1_655 S
O1315  H1182   0.981   1_655 S
O1316  Cu1162  1.966   1_655 S
O1327  Cu1161  1.964   1_655 S
O1340  Cu1162  1.966   1_655 S
O1343  Cu1161  1.964   1_655 S
O1344  Cu1051  1.966   1_565 S
