data_str_m2_o1_o10_pcu_sym.84
_audit_creation_date              2020-01-03
_audit_creation_method            'Materials Studio'
_symmetry_space_group_name_H-M    'P1'
_symmetry_Int_Tables_number       1
_symmetry_cell_setting            triclinic
loop_
_symmetry_equiv_pos_as_xyz
  x,y,z
_cell_length_a                    26.8372
_cell_length_b                    32.0495
_cell_length_c                    29.1152
_cell_angle_alpha                 89.4993
_cell_angle_beta                  98.5770
_cell_angle_gamma                 89.9054
loop_
_atom_site_label
_atom_site_type_symbol
_atom_site_fract_x
_atom_site_fract_y
_atom_site_fract_z
_atom_site_U_iso_or_equiv
_atom_site_adp_type
_atom_site_occupancy
C1     C     0.16676   0.08764   0.16683   0.00000  Uiso   1.00
C2     C     0.20745   0.02166   0.15306   0.00000  Uiso   1.00
C3     C     0.16651   0.29036   0.16621   0.00000  Uiso   1.00
C4     C     0.16694   0.04296   0.16716   0.00000  Uiso   1.00
C5     C     0.15893   0.13075   0.02309   0.00000  Uiso   1.00
C6     C     0.17436   0.20265   0.31021   0.00000  Uiso   1.00
C7     C     0.16937   0.13024   0.31026   0.00000  Uiso   1.00
C8     C     0.16411   0.20318   0.02314   0.00000  Uiso   1.00
C9     C     0.16664   0.24569   0.16651   0.00000  Uiso   1.00
C10    C     0.06828   0.16662   0.15465   0.00000  Uiso   1.00
C11    C     0.26506   0.16657   0.17868   0.00000  Uiso   1.00
C12    C     0.01331   0.16732   0.14777   0.00000  Uiso   1.00
C13    C     0.32005   0.16558   0.18554   0.00000  Uiso   1.00
C14    C     0.12618   0.02152   0.18070   0.00000  Uiso   1.00
C15    C     0.20717   0.31178   0.15247   0.00000  Uiso   1.00
C16    C     0.12607   0.31165   0.18044   0.00000  Uiso   1.00
Cu17   Cu    0.16667   0.16667   0.21355   0.00000  Uiso   1.00
Cu18   Cu    0.16667   0.16666   0.11978   0.00000  Uiso   1.00
H19    H     0.09472   0.03824   0.19133   0.00000  Uiso   1.00
H20    H     0.07253   0.26727   0.07625   0.00000  Uiso   1.00
H21    H     0.23853   0.29506   0.14166   0.00000  Uiso   1.00
H22    H     0.09465   0.29482   0.19108   0.00000  Uiso   1.00
H23    H     0.23891   0.03849   0.14247   0.00000  Uiso   1.00
H24    H     0.01179   0.19699   0.02604   0.00000  Uiso   1.00
H25    H     0.32177   0.13509   0.30708   0.00000  Uiso   1.00
H26    H     0.13092   0.02619   0.06412   0.00000  Uiso   1.00
H27    H     0.26306   0.28895   0.00290   0.00000  Uiso   1.00
H28    H     0.16779   0.02576   0.30102   0.00000  Uiso   1.00
N29    N     0.16668   0.16668   0.28403   0.00000  Uiso   1.00
N30    N     0.16665   0.16666   0.04931   0.00000  Uiso   1.00
O31    O     0.16666   0.10655   0.20625   0.00000  Uiso   1.00
O32    O     0.28602   0.21061   0.08175   0.00000  Uiso   1.00
O33    O     0.02576   0.17533   0.04888   0.00000  Uiso   1.00
O34    O     0.04751   0.12194   0.25118   0.00000  Uiso   1.00
O35    O     0.04724   0.19819   0.25985   0.00000  Uiso   1.00
O36    O     0.30757   0.15668   0.28426   0.00000  Uiso   1.00
O37    O     0.08353   0.10077   0.06834   0.00000  Uiso   1.00
O38    O     0.08895   0.07366   0.32531   0.00000  Uiso   1.00
O39    O     0.15531   0.04835   0.05922   0.00000  Uiso   1.00
O40    O     0.24995   0.23271   0.26536   0.00000  Uiso   1.00
O41    O     0.18047   0.28026   0.27464   0.00000  Uiso   1.00
O42    O     0.16667   0.22678   0.12709   0.00000  Uiso   1.00
O43    O     0.24648   0.26336   0.01240   0.00000  Uiso   1.00
O44    O     0.24252   0.09465   0.26642   0.00000  Uiso   1.00
O45    O     0.23481   0.06993   0.01032   0.00000  Uiso   1.00
O46    O     0.16638   0.04738   0.27636   0.00000  Uiso   1.00
O47    O     0.16541   0.28157   0.05574   0.00000  Uiso   1.00
O48    O     0.10090   0.26531   0.32381   0.00000  Uiso   1.00
O49    O     0.08685   0.23953   0.07092   0.00000  Uiso   1.00
O50    O     0.16666   0.10654   0.12706   0.00000  Uiso   1.00
O51    O     0.16667   0.22679   0.20628   0.00000  Uiso   1.00
O52    O     0.09161   0.16667   0.19712   0.00000  Uiso   1.00
O53    O     0.24172   0.16666   0.13621   0.00000  Uiso   1.00
O54    O     0.09161   0.16666   0.11793   0.00000  Uiso   1.00
O55    O     0.24172   0.16667   0.21540   0.00000  Uiso   1.00
O56    O     0.28599   0.13431   0.07387   0.00000  Uiso   1.00
S57    S     0.31817   0.17191   0.08722   0.00000  Uiso   1.00
S58    S     0.01521   0.16058   0.24605   0.00000  Uiso   1.00
S59    S     0.11960   0.08855   0.03617   0.00000  Uiso   1.00
S60    S     0.21302   0.24518   0.29663   0.00000  Uiso   1.00
S61    S     0.20533   0.08552   0.29875   0.00000  Uiso   1.00
S62    S     0.12937   0.24855   0.03526   0.00000  Uiso   1.00
C63    C     0.50010   0.08764   0.16683   0.00000  Uiso   1.00
C64    C     0.54079   0.02166   0.15306   0.00000  Uiso   1.00
C65    C     0.49984   0.29036   0.16621   0.00000  Uiso   1.00
C66    C     0.50028   0.04296   0.16716   0.00000  Uiso   1.00
C67    C     0.49226   0.13075   0.02309   0.00000  Uiso   1.00
C68    C     0.50769   0.20265   0.31021   0.00000  Uiso   1.00
C69    C     0.50270   0.13024   0.31026   0.00000  Uiso   1.00
C70    C     0.49745   0.20318   0.02314   0.00000  Uiso   1.00
C71    C     0.49998   0.24569   0.16651   0.00000  Uiso   1.00
C72    C     0.40162   0.16662   0.15465   0.00000  Uiso   1.00
C73    C     0.59839   0.16657   0.17868   0.00000  Uiso   1.00
C74    C     0.34664   0.16732   0.14777   0.00000  Uiso   1.00
C75    C     0.65338   0.16558   0.18554   0.00000  Uiso   1.00
C76    C     0.45951   0.02152   0.18070   0.00000  Uiso   1.00
C77    C     0.54051   0.31178   0.15247   0.00000  Uiso   1.00
C78    C     0.45941   0.31165   0.18044   0.00000  Uiso   1.00
Cu79   Cu    0.50000   0.16667   0.21355   0.00000  Uiso   1.00
Cu80   Cu    0.50000   0.16666   0.11978   0.00000  Uiso   1.00
H81    H     0.42805   0.03824   0.19133   0.00000  Uiso   1.00
H82    H     0.40586   0.26727   0.07625   0.00000  Uiso   1.00
H83    H     0.57187   0.29506   0.14166   0.00000  Uiso   1.00
H84    H     0.42798   0.29482   0.19108   0.00000  Uiso   1.00
H85    H     0.57224   0.03849   0.14247   0.00000  Uiso   1.00
H86    H     0.34513   0.19699   0.02604   0.00000  Uiso   1.00
H87    H     0.65510   0.13509   0.30708   0.00000  Uiso   1.00
H88    H     0.46425   0.02619   0.06412   0.00000  Uiso   1.00
H89    H     0.59639   0.28895   0.00290   0.00000  Uiso   1.00
H90    H     0.50113   0.02576   0.30102   0.00000  Uiso   1.00
N91    N     0.50001   0.16668   0.28403   0.00000  Uiso   1.00
N92    N     0.49999   0.16666   0.04931   0.00000  Uiso   1.00
O93    O     0.50000   0.10655   0.20625   0.00000  Uiso   1.00
O94    O     0.61936   0.21061   0.08175   0.00000  Uiso   1.00
O95    O     0.35909   0.17533   0.04888   0.00000  Uiso   1.00
O96    O     0.38084   0.12194   0.25118   0.00000  Uiso   1.00
O97    O     0.38057   0.19819   0.25985   0.00000  Uiso   1.00
O98    O     0.64090   0.15668   0.28426   0.00000  Uiso   1.00
O99    O     0.41686   0.10077   0.06834   0.00000  Uiso   1.00
O100   O     0.42229   0.07366   0.32531   0.00000  Uiso   1.00
O101   O     0.48864   0.04835   0.05922   0.00000  Uiso   1.00
O102   O     0.58329   0.23271   0.26536   0.00000  Uiso   1.00
O103   O     0.51380   0.28026   0.27464   0.00000  Uiso   1.00
O104   O     0.50000   0.22678   0.12709   0.00000  Uiso   1.00
O105   O     0.57981   0.26336   0.01240   0.00000  Uiso   1.00
O106   O     0.57586   0.09465   0.26642   0.00000  Uiso   1.00
O107   O     0.56814   0.06993   0.01032   0.00000  Uiso   1.00
O108   O     0.49971   0.04738   0.27636   0.00000  Uiso   1.00
O109   O     0.49875   0.28157   0.05574   0.00000  Uiso   1.00
O110   O     0.43424   0.26531   0.32381   0.00000  Uiso   1.00
O111   O     0.42018   0.23953   0.07092   0.00000  Uiso   1.00
O112   O     0.50000   0.10654   0.12706   0.00000  Uiso   1.00
O113   O     0.50000   0.22679   0.20628   0.00000  Uiso   1.00
O114   O     0.42495   0.16667   0.19712   0.00000  Uiso   1.00
O115   O     0.57505   0.16666   0.13621   0.00000  Uiso   1.00
O116   O     0.42494   0.16666   0.11793   0.00000  Uiso   1.00
O117   O     0.57506   0.16667   0.21540   0.00000  Uiso   1.00
O118   O     0.61932   0.13431   0.07387   0.00000  Uiso   1.00
S119   S     0.65151   0.17191   0.08722   0.00000  Uiso   1.00
S120   S     0.34854   0.16058   0.24605   0.00000  Uiso   1.00
S121   S     0.45293   0.08855   0.03617   0.00000  Uiso   1.00
S122   S     0.54635   0.24518   0.29663   0.00000  Uiso   1.00
S123   S     0.53866   0.08552   0.29875   0.00000  Uiso   1.00
S124   S     0.46270   0.24855   0.03526   0.00000  Uiso   1.00
C125   C     0.83343   0.08764   0.16683   0.00000  Uiso   1.00
C126   C     0.87412   0.02166   0.15306   0.00000  Uiso   1.00
C127   C     0.83317   0.29036   0.16621   0.00000  Uiso   1.00
C128   C     0.83361   0.04296   0.16716   0.00000  Uiso   1.00
C129   C     0.82559   0.13075   0.02309   0.00000  Uiso   1.00
C130   C     0.84103   0.20265   0.31021   0.00000  Uiso   1.00
C131   C     0.83604   0.13024   0.31026   0.00000  Uiso   1.00
C132   C     0.83078   0.20318   0.02314   0.00000  Uiso   1.00
C133   C     0.83331   0.24569   0.16651   0.00000  Uiso   1.00
C134   C     0.73495   0.16662   0.15465   0.00000  Uiso   1.00
C135   C     0.93173   0.16657   0.17868   0.00000  Uiso   1.00
C136   C     0.67997   0.16732   0.14777   0.00000  Uiso   1.00
C137   C     0.98672   0.16558   0.18554   0.00000  Uiso   1.00
C138   C     0.79284   0.02152   0.18070   0.00000  Uiso   1.00
C139   C     0.87384   0.31178   0.15247   0.00000  Uiso   1.00
C140   C     0.79274   0.31165   0.18044   0.00000  Uiso   1.00
Cu141  Cu    0.83333   0.16667   0.21355   0.00000  Uiso   1.00
Cu142  Cu    0.83333   0.16666   0.11978   0.00000  Uiso   1.00
H143   H     0.76139   0.03824   0.19133   0.00000  Uiso   1.00
H144   H     0.73920   0.26727   0.07625   0.00000  Uiso   1.00
H145   H     0.90520   0.29506   0.14166   0.00000  Uiso   1.00
H146   H     0.76132   0.29482   0.19108   0.00000  Uiso   1.00
H147   H     0.90558   0.03849   0.14247   0.00000  Uiso   1.00
H148   H     0.67846   0.19699   0.02604   0.00000  Uiso   1.00
H149   H     0.98844   0.13509   0.30708   0.00000  Uiso   1.00
H150   H     0.79759   0.02619   0.06412   0.00000  Uiso   1.00
H151   H     0.92973   0.28895   0.00290   0.00000  Uiso   1.00
H152   H     0.83446   0.02576   0.30102   0.00000  Uiso   1.00
N153   N     0.83335   0.16668   0.28403   0.00000  Uiso   1.00
N154   N     0.83332   0.16666   0.04931   0.00000  Uiso   1.00
O155   O     0.83333   0.10655   0.20625   0.00000  Uiso   1.00
O156   O     0.95269   0.21061   0.08175   0.00000  Uiso   1.00
O157   O     0.69243   0.17533   0.04888   0.00000  Uiso   1.00
O158   O     0.71417   0.12194   0.25118   0.00000  Uiso   1.00
O159   O     0.71390   0.19819   0.25985   0.00000  Uiso   1.00
O160   O     0.97424   0.15668   0.28426   0.00000  Uiso   1.00
O161   O     0.75019   0.10077   0.06834   0.00000  Uiso   1.00
O162   O     0.75562   0.07366   0.32531   0.00000  Uiso   1.00
O163   O     0.82197   0.04835   0.05922   0.00000  Uiso   1.00
O164   O     0.91662   0.23271   0.26536   0.00000  Uiso   1.00
O165   O     0.84714   0.28026   0.27464   0.00000  Uiso   1.00
O166   O     0.83334   0.22678   0.12709   0.00000  Uiso   1.00
O167   O     0.91314   0.26336   0.01240   0.00000  Uiso   1.00
O168   O     0.90919   0.09465   0.26642   0.00000  Uiso   1.00
O169   O     0.90148   0.06993   0.01032   0.00000  Uiso   1.00
O170   O     0.83305   0.04738   0.27636   0.00000  Uiso   1.00
O171   O     0.83208   0.28157   0.05574   0.00000  Uiso   1.00
O172   O     0.76757   0.26531   0.32381   0.00000  Uiso   1.00
O173   O     0.75351   0.23953   0.07092   0.00000  Uiso   1.00
O174   O     0.83333   0.10654   0.12706   0.00000  Uiso   1.00
O175   O     0.83334   0.22679   0.20628   0.00000  Uiso   1.00
O176   O     0.75828   0.16667   0.19712   0.00000  Uiso   1.00
O177   O     0.90839   0.16666   0.13621   0.00000  Uiso   1.00
O178   O     0.75828   0.16666   0.11793   0.00000  Uiso   1.00
O179   O     0.90839   0.16667   0.21540   0.00000  Uiso   1.00
O180   O     0.95265   0.13431   0.07387   0.00000  Uiso   1.00
S181   S     0.98484   0.17191   0.08722   0.00000  Uiso   1.00
S182   S     0.68188   0.16058   0.24605   0.00000  Uiso   1.00
S183   S     0.78626   0.08855   0.03617   0.00000  Uiso   1.00
S184   S     0.87969   0.24518   0.29663   0.00000  Uiso   1.00
S185   S     0.87199   0.08552   0.29875   0.00000  Uiso   1.00
S186   S     0.79604   0.24855   0.03526   0.00000  Uiso   1.00
C187   C     0.16676   0.42097   0.16683   0.00000  Uiso   1.00
C188   C     0.20745   0.35499   0.15306   0.00000  Uiso   1.00
C189   C     0.16651   0.62369   0.16621   0.00000  Uiso   1.00
C190   C     0.16694   0.37629   0.16716   0.00000  Uiso   1.00
C191   C     0.15893   0.46408   0.02309   0.00000  Uiso   1.00
C192   C     0.17436   0.53598   0.31021   0.00000  Uiso   1.00
C193   C     0.16937   0.46358   0.31026   0.00000  Uiso   1.00
C194   C     0.16411   0.53651   0.02314   0.00000  Uiso   1.00
C195   C     0.16664   0.57902   0.16651   0.00000  Uiso   1.00
C196   C     0.06828   0.49995   0.15465   0.00000  Uiso   1.00
C197   C     0.26506   0.49990   0.17868   0.00000  Uiso   1.00
C198   C     0.01331   0.50066   0.14777   0.00000  Uiso   1.00
C199   C     0.32005   0.49891   0.18554   0.00000  Uiso   1.00
C200   C     0.12618   0.35486   0.18070   0.00000  Uiso   1.00
C201   C     0.20717   0.64512   0.15247   0.00000  Uiso   1.00
C202   C     0.12607   0.64498   0.18044   0.00000  Uiso   1.00
Cu203  Cu    0.16667   0.50001   0.21355   0.00000  Uiso   1.00
Cu204  Cu    0.16667   0.49999   0.11978   0.00000  Uiso   1.00
H205   H     0.09472   0.37157   0.19133   0.00000  Uiso   1.00
H206   H     0.07253   0.60061   0.07625   0.00000  Uiso   1.00
H207   H     0.23853   0.62840   0.14166   0.00000  Uiso   1.00
H208   H     0.09465   0.62815   0.19108   0.00000  Uiso   1.00
H209   H     0.23891   0.37182   0.14247   0.00000  Uiso   1.00
H210   H     0.01179   0.53032   0.02604   0.00000  Uiso   1.00
H211   H     0.32177   0.46842   0.30708   0.00000  Uiso   1.00
H212   H     0.13092   0.35952   0.06412   0.00000  Uiso   1.00
H213   H     0.26306   0.62229   0.00290   0.00000  Uiso   1.00
H214   H     0.16779   0.35910   0.30102   0.00000  Uiso   1.00
N215   N     0.16668   0.50001   0.28403   0.00000  Uiso   1.00
N216   N     0.16665   0.49999   0.04931   0.00000  Uiso   1.00
O217   O     0.16666   0.43989   0.20625   0.00000  Uiso   1.00
O218   O     0.28602   0.54394   0.08175   0.00000  Uiso   1.00
O219   O     0.02576   0.50866   0.04888   0.00000  Uiso   1.00
O220   O     0.04751   0.45527   0.25118   0.00000  Uiso   1.00
O221   O     0.04724   0.53152   0.25985   0.00000  Uiso   1.00
O222   O     0.30757   0.49001   0.28426   0.00000  Uiso   1.00
O223   O     0.08353   0.43411   0.06834   0.00000  Uiso   1.00
O224   O     0.08895   0.40699   0.32531   0.00000  Uiso   1.00
O225   O     0.15531   0.38168   0.05922   0.00000  Uiso   1.00
O226   O     0.24995   0.56604   0.26536   0.00000  Uiso   1.00
O227   O     0.18047   0.61360   0.27464   0.00000  Uiso   1.00
O228   O     0.16667   0.56011   0.12709   0.00000  Uiso   1.00
O229   O     0.24648   0.59669   0.01240   0.00000  Uiso   1.00
O230   O     0.24252   0.42799   0.26642   0.00000  Uiso   1.00
O231   O     0.23481   0.40326   0.01032   0.00000  Uiso   1.00
O232   O     0.16638   0.38072   0.27636   0.00000  Uiso   1.00
O233   O     0.16541   0.61491   0.05574   0.00000  Uiso   1.00
O234   O     0.10090   0.59864   0.32381   0.00000  Uiso   1.00
O235   O     0.08685   0.57286   0.07092   0.00000  Uiso   1.00
O236   O     0.16666   0.43988   0.12706   0.00000  Uiso   1.00
O237   O     0.16667   0.56012   0.20628   0.00000  Uiso   1.00
O238   O     0.09161   0.50000   0.19712   0.00000  Uiso   1.00
O239   O     0.24172   0.50000   0.13621   0.00000  Uiso   1.00
O240   O     0.09161   0.49999   0.11793   0.00000  Uiso   1.00
O241   O     0.24172   0.50001   0.21540   0.00000  Uiso   1.00
O242   O     0.28599   0.46764   0.07387   0.00000  Uiso   1.00
S243   S     0.31817   0.50524   0.08722   0.00000  Uiso   1.00
S244   S     0.01521   0.49391   0.24605   0.00000  Uiso   1.00
S245   S     0.11960   0.42188   0.03617   0.00000  Uiso   1.00
S246   S     0.21302   0.57852   0.29663   0.00000  Uiso   1.00
S247   S     0.20533   0.41886   0.29875   0.00000  Uiso   1.00
S248   S     0.12937   0.58188   0.03526   0.00000  Uiso   1.00
C249   C     0.50010   0.42097   0.16683   0.00000  Uiso   1.00
C250   C     0.54079   0.35499   0.15306   0.00000  Uiso   1.00
C251   C     0.49984   0.62369   0.16621   0.00000  Uiso   1.00
C252   C     0.50028   0.37629   0.16716   0.00000  Uiso   1.00
C253   C     0.49226   0.46408   0.02309   0.00000  Uiso   1.00
C254   C     0.50769   0.53598   0.31021   0.00000  Uiso   1.00
C255   C     0.50270   0.46358   0.31026   0.00000  Uiso   1.00
C256   C     0.49745   0.53651   0.02314   0.00000  Uiso   1.00
C257   C     0.49998   0.57902   0.16651   0.00000  Uiso   1.00
C258   C     0.40162   0.49995   0.15465   0.00000  Uiso   1.00
C259   C     0.59839   0.49990   0.17868   0.00000  Uiso   1.00
C260   C     0.34664   0.50066   0.14777   0.00000  Uiso   1.00
C261   C     0.65338   0.49891   0.18554   0.00000  Uiso   1.00
C262   C     0.45951   0.35486   0.18070   0.00000  Uiso   1.00
C263   C     0.54051   0.64512   0.15247   0.00000  Uiso   1.00
C264   C     0.45941   0.64498   0.18044   0.00000  Uiso   1.00
Cu265  Cu    0.50000   0.50001   0.21355   0.00000  Uiso   1.00
Cu266  Cu    0.50000   0.49999   0.11978   0.00000  Uiso   1.00
H267   H     0.42805   0.37157   0.19133   0.00000  Uiso   1.00
H268   H     0.40586   0.60061   0.07625   0.00000  Uiso   1.00
H269   H     0.57187   0.62840   0.14166   0.00000  Uiso   1.00
H270   H     0.42798   0.62815   0.19108   0.00000  Uiso   1.00
H271   H     0.57224   0.37182   0.14247   0.00000  Uiso   1.00
H272   H     0.34513   0.53032   0.02604   0.00000  Uiso   1.00
H273   H     0.65510   0.46842   0.30708   0.00000  Uiso   1.00
H274   H     0.46425   0.35952   0.06412   0.00000  Uiso   1.00
H275   H     0.59639   0.62229   0.00290   0.00000  Uiso   1.00
H276   H     0.50113   0.35910   0.30102   0.00000  Uiso   1.00
N277   N     0.50001   0.50001   0.28403   0.00000  Uiso   1.00
N278   N     0.49999   0.49999   0.04931   0.00000  Uiso   1.00
O279   O     0.50000   0.43989   0.20625   0.00000  Uiso   1.00
O280   O     0.61936   0.54394   0.08175   0.00000  Uiso   1.00
O281   O     0.35909   0.50866   0.04888   0.00000  Uiso   1.00
O282   O     0.38084   0.45527   0.25118   0.00000  Uiso   1.00
O283   O     0.38057   0.53152   0.25985   0.00000  Uiso   1.00
O284   O     0.64090   0.49001   0.28426   0.00000  Uiso   1.00
O285   O     0.41686   0.43411   0.06834   0.00000  Uiso   1.00
O286   O     0.42229   0.40699   0.32531   0.00000  Uiso   1.00
O287   O     0.48864   0.38168   0.05922   0.00000  Uiso   1.00
O288   O     0.58329   0.56604   0.26536   0.00000  Uiso   1.00
O289   O     0.51380   0.61360   0.27464   0.00000  Uiso   1.00
O290   O     0.50000   0.56011   0.12709   0.00000  Uiso   1.00
O291   O     0.57981   0.59669   0.01240   0.00000  Uiso   1.00
O292   O     0.57586   0.42799   0.26642   0.00000  Uiso   1.00
O293   O     0.56814   0.40326   0.01032   0.00000  Uiso   1.00
O294   O     0.49971   0.38072   0.27636   0.00000  Uiso   1.00
O295   O     0.49875   0.61491   0.05574   0.00000  Uiso   1.00
O296   O     0.43424   0.59864   0.32381   0.00000  Uiso   1.00
O297   O     0.42018   0.57286   0.07092   0.00000  Uiso   1.00
O298   O     0.50000   0.43988   0.12706   0.00000  Uiso   1.00
O299   O     0.50000   0.56012   0.20628   0.00000  Uiso   1.00
O300   O     0.42495   0.50000   0.19712   0.00000  Uiso   1.00
O301   O     0.57505   0.50000   0.13621   0.00000  Uiso   1.00
O302   O     0.42494   0.49999   0.11793   0.00000  Uiso   1.00
O303   O     0.57506   0.50001   0.21540   0.00000  Uiso   1.00
O304   O     0.61932   0.46764   0.07387   0.00000  Uiso   1.00
S305   S     0.65151   0.50524   0.08722   0.00000  Uiso   1.00
S306   S     0.34854   0.49391   0.24605   0.00000  Uiso   1.00
S307   S     0.45293   0.42188   0.03617   0.00000  Uiso   1.00
S308   S     0.54635   0.57852   0.29663   0.00000  Uiso   1.00
S309   S     0.53866   0.41886   0.29875   0.00000  Uiso   1.00
S310   S     0.46270   0.58188   0.03526   0.00000  Uiso   1.00
C311   C     0.83343   0.42097   0.16683   0.00000  Uiso   1.00
C312   C     0.87412   0.35499   0.15306   0.00000  Uiso   1.00
C313   C     0.83317   0.62369   0.16621   0.00000  Uiso   1.00
C314   C     0.83361   0.37629   0.16716   0.00000  Uiso   1.00
C315   C     0.82559   0.46408   0.02309   0.00000  Uiso   1.00
C316   C     0.84103   0.53598   0.31021   0.00000  Uiso   1.00
C317   C     0.83604   0.46358   0.31026   0.00000  Uiso   1.00
C318   C     0.83078   0.53651   0.02314   0.00000  Uiso   1.00
C319   C     0.83331   0.57902   0.16651   0.00000  Uiso   1.00
C320   C     0.73495   0.49995   0.15465   0.00000  Uiso   1.00
C321   C     0.93173   0.49990   0.17868   0.00000  Uiso   1.00
C322   C     0.67997   0.50066   0.14777   0.00000  Uiso   1.00
C323   C     0.98672   0.49891   0.18554   0.00000  Uiso   1.00
C324   C     0.79284   0.35486   0.18070   0.00000  Uiso   1.00
C325   C     0.87384   0.64512   0.15247   0.00000  Uiso   1.00
C326   C     0.79274   0.64498   0.18044   0.00000  Uiso   1.00
Cu327  Cu    0.83333   0.50001   0.21355   0.00000  Uiso   1.00
Cu328  Cu    0.83333   0.49999   0.11978   0.00000  Uiso   1.00
H329   H     0.76139   0.37157   0.19133   0.00000  Uiso   1.00
H330   H     0.73920   0.60061   0.07625   0.00000  Uiso   1.00
H331   H     0.90520   0.62840   0.14166   0.00000  Uiso   1.00
H332   H     0.76132   0.62815   0.19108   0.00000  Uiso   1.00
H333   H     0.90558   0.37182   0.14247   0.00000  Uiso   1.00
H334   H     0.67846   0.53032   0.02604   0.00000  Uiso   1.00
H335   H     0.98844   0.46842   0.30708   0.00000  Uiso   1.00
H336   H     0.79759   0.35952   0.06412   0.00000  Uiso   1.00
H337   H     0.92973   0.62229   0.00290   0.00000  Uiso   1.00
H338   H     0.83446   0.35910   0.30102   0.00000  Uiso   1.00
N339   N     0.83335   0.50001   0.28403   0.00000  Uiso   1.00
N340   N     0.83332   0.49999   0.04931   0.00000  Uiso   1.00
O341   O     0.83333   0.43989   0.20625   0.00000  Uiso   1.00
O342   O     0.95269   0.54394   0.08175   0.00000  Uiso   1.00
O343   O     0.69243   0.50866   0.04888   0.00000  Uiso   1.00
O344   O     0.71417   0.45527   0.25118   0.00000  Uiso   1.00
O345   O     0.71390   0.53152   0.25985   0.00000  Uiso   1.00
O346   O     0.97424   0.49001   0.28426   0.00000  Uiso   1.00
O347   O     0.75019   0.43411   0.06834   0.00000  Uiso   1.00
O348   O     0.75562   0.40699   0.32531   0.00000  Uiso   1.00
O349   O     0.82197   0.38168   0.05922   0.00000  Uiso   1.00
O350   O     0.91662   0.56604   0.26536   0.00000  Uiso   1.00
O351   O     0.84714   0.61360   0.27464   0.00000  Uiso   1.00
O352   O     0.83334   0.56011   0.12709   0.00000  Uiso   1.00
O353   O     0.91314   0.59669   0.01240   0.00000  Uiso   1.00
O354   O     0.90919   0.42799   0.26642   0.00000  Uiso   1.00
O355   O     0.90148   0.40326   0.01032   0.00000  Uiso   1.00
O356   O     0.83305   0.38072   0.27636   0.00000  Uiso   1.00
O357   O     0.83208   0.61491   0.05574   0.00000  Uiso   1.00
O358   O     0.76757   0.59864   0.32381   0.00000  Uiso   1.00
O359   O     0.75351   0.57286   0.07092   0.00000  Uiso   1.00
O360   O     0.83333   0.43988   0.12706   0.00000  Uiso   1.00
O361   O     0.83334   0.56012   0.20628   0.00000  Uiso   1.00
O362   O     0.75828   0.50000   0.19712   0.00000  Uiso   1.00
O363   O     0.90839   0.50000   0.13621   0.00000  Uiso   1.00
O364   O     0.75828   0.49999   0.11793   0.00000  Uiso   1.00
O365   O     0.90839   0.50001   0.21540   0.00000  Uiso   1.00
O366   O     0.95265   0.46764   0.07387   0.00000  Uiso   1.00
S367   S     0.98484   0.50524   0.08722   0.00000  Uiso   1.00
S368   S     0.68188   0.49391   0.24605   0.00000  Uiso   1.00
S369   S     0.78626   0.42188   0.03617   0.00000  Uiso   1.00
S370   S     0.87969   0.57852   0.29663   0.00000  Uiso   1.00
S371   S     0.87199   0.41886   0.29875   0.00000  Uiso   1.00
S372   S     0.79604   0.58188   0.03526   0.00000  Uiso   1.00
C373   C     0.16676   0.75430   0.16683   0.00000  Uiso   1.00
C374   C     0.20745   0.68833   0.15306   0.00000  Uiso   1.00
C375   C     0.16651   0.95702   0.16621   0.00000  Uiso   1.00
C376   C     0.16694   0.70963   0.16716   0.00000  Uiso   1.00
C377   C     0.15893   0.79742   0.02309   0.00000  Uiso   1.00
C378   C     0.17436   0.86931   0.31021   0.00000  Uiso   1.00
C379   C     0.16937   0.79691   0.31026   0.00000  Uiso   1.00
C380   C     0.16411   0.86984   0.02314   0.00000  Uiso   1.00
C381   C     0.16664   0.91236   0.16651   0.00000  Uiso   1.00
C382   C     0.06828   0.83328   0.15465   0.00000  Uiso   1.00
C383   C     0.26506   0.83324   0.17868   0.00000  Uiso   1.00
C384   C     0.01331   0.83399   0.14777   0.00000  Uiso   1.00
C385   C     0.32005   0.83224   0.18554   0.00000  Uiso   1.00
C386   C     0.12618   0.68819   0.18070   0.00000  Uiso   1.00
C387   C     0.20717   0.97845   0.15247   0.00000  Uiso   1.00
C388   C     0.12607   0.97832   0.18044   0.00000  Uiso   1.00
Cu389  Cu    0.16667   0.83334   0.21355   0.00000  Uiso   1.00
Cu390  Cu    0.16667   0.83333   0.11978   0.00000  Uiso   1.00
H391   H     0.09472   0.70491   0.19133   0.00000  Uiso   1.00
H392   H     0.07253   0.93394   0.07625   0.00000  Uiso   1.00
H393   H     0.23853   0.96173   0.14166   0.00000  Uiso   1.00
H394   H     0.09465   0.96149   0.19108   0.00000  Uiso   1.00
H395   H     0.23891   0.70515   0.14247   0.00000  Uiso   1.00
H396   H     0.01179   0.86365   0.02604   0.00000  Uiso   1.00
H397   H     0.32177   0.80175   0.30708   0.00000  Uiso   1.00
H398   H     0.13092   0.69285   0.06412   0.00000  Uiso   1.00
H399   H     0.26306   0.95562   0.00290   0.00000  Uiso   1.00
H400   H     0.16779   0.69243   0.30102   0.00000  Uiso   1.00
N401   N     0.16668   0.83334   0.28403   0.00000  Uiso   1.00
N402   N     0.16665   0.83332   0.04931   0.00000  Uiso   1.00
O403   O     0.16666   0.77322   0.20625   0.00000  Uiso   1.00
O404   O     0.28602   0.87727   0.08175   0.00000  Uiso   1.00
O405   O     0.02576   0.84200   0.04888   0.00000  Uiso   1.00
O406   O     0.04751   0.78860   0.25118   0.00000  Uiso   1.00
O407   O     0.04724   0.86485   0.25985   0.00000  Uiso   1.00
O408   O     0.30757   0.82335   0.28426   0.00000  Uiso   1.00
O409   O     0.08353   0.76744   0.06834   0.00000  Uiso   1.00
O410   O     0.08895   0.74033   0.32531   0.00000  Uiso   1.00
O411   O     0.15531   0.71502   0.05922   0.00000  Uiso   1.00
O412   O     0.24995   0.89938   0.26536   0.00000  Uiso   1.00
O413   O     0.18047   0.94693   0.27464   0.00000  Uiso   1.00
O414   O     0.16667   0.89345   0.12709   0.00000  Uiso   1.00
O415   O     0.24648   0.93003   0.01240   0.00000  Uiso   1.00
O416   O     0.24252   0.76132   0.26642   0.00000  Uiso   1.00
O417   O     0.23481   0.73659   0.01032   0.00000  Uiso   1.00
O418   O     0.16638   0.71405   0.27636   0.00000  Uiso   1.00
O419   O     0.16541   0.94824   0.05574   0.00000  Uiso   1.00
O420   O     0.10090   0.93197   0.32381   0.00000  Uiso   1.00
O421   O     0.08685   0.90619   0.07092   0.00000  Uiso   1.00
O422   O     0.16666   0.77321   0.12706   0.00000  Uiso   1.00
O423   O     0.16667   0.89346   0.20628   0.00000  Uiso   1.00
O424   O     0.09161   0.83334   0.19712   0.00000  Uiso   1.00
O425   O     0.24172   0.83333   0.13621   0.00000  Uiso   1.00
O426   O     0.09161   0.83333   0.11793   0.00000  Uiso   1.00
O427   O     0.24172   0.83334   0.21540   0.00000  Uiso   1.00
O428   O     0.28599   0.80098   0.07387   0.00000  Uiso   1.00
S429   S     0.31817   0.83858   0.08722   0.00000  Uiso   1.00
S430   S     0.01521   0.82724   0.24605   0.00000  Uiso   1.00
S431   S     0.11960   0.75522   0.03617   0.00000  Uiso   1.00
S432   S     0.21302   0.91185   0.29663   0.00000  Uiso   1.00
S433   S     0.20533   0.75219   0.29875   0.00000  Uiso   1.00
S434   S     0.12937   0.91522   0.03526   0.00000  Uiso   1.00
C435   C     0.50010   0.75430   0.16683   0.00000  Uiso   1.00
C436   C     0.54079   0.68833   0.15306   0.00000  Uiso   1.00
C437   C     0.49984   0.95702   0.16621   0.00000  Uiso   1.00
C438   C     0.50028   0.70963   0.16716   0.00000  Uiso   1.00
C439   C     0.49226   0.79742   0.02309   0.00000  Uiso   1.00
C440   C     0.50769   0.86931   0.31021   0.00000  Uiso   1.00
C441   C     0.50270   0.79691   0.31026   0.00000  Uiso   1.00
C442   C     0.49745   0.86984   0.02314   0.00000  Uiso   1.00
C443   C     0.49998   0.91236   0.16651   0.00000  Uiso   1.00
C444   C     0.40162   0.83328   0.15465   0.00000  Uiso   1.00
C445   C     0.59839   0.83324   0.17868   0.00000  Uiso   1.00
C446   C     0.34664   0.83399   0.14777   0.00000  Uiso   1.00
C447   C     0.65338   0.83224   0.18554   0.00000  Uiso   1.00
C448   C     0.45951   0.68819   0.18070   0.00000  Uiso   1.00
C449   C     0.54051   0.97845   0.15247   0.00000  Uiso   1.00
C450   C     0.45941   0.97832   0.18044   0.00000  Uiso   1.00
Cu451  Cu    0.50000   0.83334   0.21355   0.00000  Uiso   1.00
Cu452  Cu    0.50000   0.83333   0.11978   0.00000  Uiso   1.00
H453   H     0.42805   0.70491   0.19133   0.00000  Uiso   1.00
H454   H     0.40586   0.93394   0.07625   0.00000  Uiso   1.00
H455   H     0.57187   0.96173   0.14166   0.00000  Uiso   1.00
H456   H     0.42798   0.96149   0.19108   0.00000  Uiso   1.00
H457   H     0.57224   0.70515   0.14247   0.00000  Uiso   1.00
H458   H     0.34513   0.86365   0.02604   0.00000  Uiso   1.00
H459   H     0.65510   0.80175   0.30708   0.00000  Uiso   1.00
H460   H     0.46425   0.69285   0.06412   0.00000  Uiso   1.00
H461   H     0.59639   0.95562   0.00290   0.00000  Uiso   1.00
H462   H     0.50113   0.69243   0.30102   0.00000  Uiso   1.00
N463   N     0.50001   0.83334   0.28403   0.00000  Uiso   1.00
N464   N     0.49999   0.83332   0.04931   0.00000  Uiso   1.00
O465   O     0.50000   0.77322   0.20625   0.00000  Uiso   1.00
O466   O     0.61936   0.87727   0.08175   0.00000  Uiso   1.00
O467   O     0.35909   0.84200   0.04888   0.00000  Uiso   1.00
O468   O     0.38084   0.78860   0.25118   0.00000  Uiso   1.00
O469   O     0.38057   0.86485   0.25985   0.00000  Uiso   1.00
O470   O     0.64090   0.82335   0.28426   0.00000  Uiso   1.00
O471   O     0.41686   0.76744   0.06834   0.00000  Uiso   1.00
O472   O     0.42229   0.74033   0.32531   0.00000  Uiso   1.00
O473   O     0.48864   0.71502   0.05922   0.00000  Uiso   1.00
O474   O     0.58329   0.89938   0.26536   0.00000  Uiso   1.00
O475   O     0.51380   0.94693   0.27464   0.00000  Uiso   1.00
O476   O     0.50000   0.89345   0.12709   0.00000  Uiso   1.00
O477   O     0.57981   0.93003   0.01240   0.00000  Uiso   1.00
O478   O     0.57586   0.76132   0.26642   0.00000  Uiso   1.00
O479   O     0.56814   0.73659   0.01032   0.00000  Uiso   1.00
O480   O     0.49971   0.71405   0.27636   0.00000  Uiso   1.00
O481   O     0.49875   0.94824   0.05574   0.00000  Uiso   1.00
O482   O     0.43424   0.93197   0.32381   0.00000  Uiso   1.00
O483   O     0.42018   0.90619   0.07092   0.00000  Uiso   1.00
O484   O     0.50000   0.77321   0.12706   0.00000  Uiso   1.00
O485   O     0.50000   0.89346   0.20628   0.00000  Uiso   1.00
O486   O     0.42495   0.83334   0.19712   0.00000  Uiso   1.00
O487   O     0.57505   0.83333   0.13621   0.00000  Uiso   1.00
O488   O     0.42494   0.83333   0.11793   0.00000  Uiso   1.00
O489   O     0.57506   0.83334   0.21540   0.00000  Uiso   1.00
O490   O     0.61932   0.80098   0.07387   0.00000  Uiso   1.00
S491   S     0.65151   0.83858   0.08722   0.00000  Uiso   1.00
S492   S     0.34854   0.82724   0.24605   0.00000  Uiso   1.00
S493   S     0.45293   0.75522   0.03617   0.00000  Uiso   1.00
S494   S     0.54635   0.91185   0.29663   0.00000  Uiso   1.00
S495   S     0.53866   0.75219   0.29875   0.00000  Uiso   1.00
S496   S     0.46270   0.91522   0.03526   0.00000  Uiso   1.00
C497   C     0.83343   0.75430   0.16683   0.00000  Uiso   1.00
C498   C     0.87412   0.68833   0.15306   0.00000  Uiso   1.00
C499   C     0.83317   0.95702   0.16621   0.00000  Uiso   1.00
C500   C     0.83361   0.70963   0.16716   0.00000  Uiso   1.00
C501   C     0.82559   0.79742   0.02309   0.00000  Uiso   1.00
C502   C     0.84103   0.86931   0.31021   0.00000  Uiso   1.00
C503   C     0.83604   0.79691   0.31026   0.00000  Uiso   1.00
C504   C     0.83078   0.86984   0.02314   0.00000  Uiso   1.00
C505   C     0.83331   0.91236   0.16651   0.00000  Uiso   1.00
C506   C     0.73495   0.83328   0.15465   0.00000  Uiso   1.00
C507   C     0.93173   0.83324   0.17868   0.00000  Uiso   1.00
C508   C     0.67997   0.83399   0.14777   0.00000  Uiso   1.00
C509   C     0.98672   0.83224   0.18554   0.00000  Uiso   1.00
C510   C     0.79284   0.68819   0.18070   0.00000  Uiso   1.00
C511   C     0.87384   0.97845   0.15247   0.00000  Uiso   1.00
C512   C     0.79274   0.97832   0.18044   0.00000  Uiso   1.00
Cu513  Cu    0.83333   0.83334   0.21355   0.00000  Uiso   1.00
Cu514  Cu    0.83333   0.83333   0.11978   0.00000  Uiso   1.00
H515   H     0.76139   0.70491   0.19133   0.00000  Uiso   1.00
H516   H     0.73920   0.93394   0.07625   0.00000  Uiso   1.00
H517   H     0.90520   0.96173   0.14166   0.00000  Uiso   1.00
H518   H     0.76132   0.96149   0.19108   0.00000  Uiso   1.00
H519   H     0.90558   0.70515   0.14247   0.00000  Uiso   1.00
H520   H     0.67846   0.86365   0.02604   0.00000  Uiso   1.00
H521   H     0.98844   0.80175   0.30708   0.00000  Uiso   1.00
H522   H     0.79759   0.69285   0.06412   0.00000  Uiso   1.00
H523   H     0.92973   0.95562   0.00290   0.00000  Uiso   1.00
H524   H     0.83446   0.69243   0.30102   0.00000  Uiso   1.00
N525   N     0.83335   0.83334   0.28403   0.00000  Uiso   1.00
N526   N     0.83332   0.83332   0.04931   0.00000  Uiso   1.00
O527   O     0.83333   0.77322   0.20625   0.00000  Uiso   1.00
O528   O     0.95269   0.87727   0.08175   0.00000  Uiso   1.00
O529   O     0.69243   0.84200   0.04888   0.00000  Uiso   1.00
O530   O     0.71417   0.78860   0.25118   0.00000  Uiso   1.00
O531   O     0.71390   0.86485   0.25985   0.00000  Uiso   1.00
O532   O     0.97424   0.82335   0.28426   0.00000  Uiso   1.00
O533   O     0.75019   0.76744   0.06834   0.00000  Uiso   1.00
O534   O     0.75562   0.74033   0.32531   0.00000  Uiso   1.00
O535   O     0.82197   0.71502   0.05922   0.00000  Uiso   1.00
O536   O     0.91662   0.89938   0.26536   0.00000  Uiso   1.00
O537   O     0.84714   0.94693   0.27464   0.00000  Uiso   1.00
O538   O     0.83334   0.89345   0.12709   0.00000  Uiso   1.00
O539   O     0.91314   0.93003   0.01240   0.00000  Uiso   1.00
O540   O     0.90919   0.76132   0.26642   0.00000  Uiso   1.00
O541   O     0.90148   0.73659   0.01032   0.00000  Uiso   1.00
O542   O     0.83305   0.71405   0.27636   0.00000  Uiso   1.00
O543   O     0.83208   0.94824   0.05574   0.00000  Uiso   1.00
O544   O     0.76757   0.93197   0.32381   0.00000  Uiso   1.00
O545   O     0.75351   0.90619   0.07092   0.00000  Uiso   1.00
O546   O     0.83333   0.77321   0.12706   0.00000  Uiso   1.00
O547   O     0.83334   0.89346   0.20628   0.00000  Uiso   1.00
O548   O     0.75828   0.83334   0.19712   0.00000  Uiso   1.00
O549   O     0.90839   0.83333   0.13621   0.00000  Uiso   1.00
O550   O     0.75828   0.83333   0.11793   0.00000  Uiso   1.00
O551   O     0.90839   0.83334   0.21540   0.00000  Uiso   1.00
O552   O     0.95265   0.80098   0.07387   0.00000  Uiso   1.00
S553   S     0.98484   0.83858   0.08722   0.00000  Uiso   1.00
S554   S     0.68188   0.82724   0.24605   0.00000  Uiso   1.00
S555   S     0.78626   0.75522   0.03617   0.00000  Uiso   1.00
S556   S     0.87969   0.91185   0.29663   0.00000  Uiso   1.00
S557   S     0.87199   0.75219   0.29875   0.00000  Uiso   1.00
S558   S     0.79604   0.91522   0.03526   0.00000  Uiso   1.00
C559   C     0.16676   0.08764   0.50016   0.00000  Uiso   1.00
C560   C     0.20745   0.02166   0.48639   0.00000  Uiso   1.00
C561   C     0.16651   0.29036   0.49954   0.00000  Uiso   1.00
C562   C     0.16694   0.04296   0.50049   0.00000  Uiso   1.00
C563   C     0.15893   0.13075   0.35643   0.00000  Uiso   1.00
C564   C     0.17436   0.20265   0.64354   0.00000  Uiso   1.00
C565   C     0.16937   0.13024   0.64359   0.00000  Uiso   1.00
C566   C     0.16411   0.20318   0.35647   0.00000  Uiso   1.00
C567   C     0.16664   0.24569   0.49985   0.00000  Uiso   1.00
C568   C     0.06828   0.16662   0.48798   0.00000  Uiso   1.00
C569   C     0.26506   0.16657   0.51202   0.00000  Uiso   1.00
C570   C     0.01331   0.16732   0.48110   0.00000  Uiso   1.00
C571   C     0.32005   0.16558   0.51888   0.00000  Uiso   1.00
C572   C     0.12618   0.02152   0.51403   0.00000  Uiso   1.00
C573   C     0.20717   0.31178   0.48580   0.00000  Uiso   1.00
C574   C     0.12607   0.31165   0.51378   0.00000  Uiso   1.00
Cu575  Cu    0.16667   0.16667   0.54689   0.00000  Uiso   1.00
Cu576  Cu    0.16667   0.16666   0.45311   0.00000  Uiso   1.00
H577   H     0.09472   0.03824   0.52466   0.00000  Uiso   1.00
H578   H     0.07253   0.26727   0.40958   0.00000  Uiso   1.00
H579   H     0.23853   0.29506   0.47500   0.00000  Uiso   1.00
H580   H     0.09465   0.29482   0.52442   0.00000  Uiso   1.00
H581   H     0.23891   0.03849   0.47581   0.00000  Uiso   1.00
H582   H     0.01179   0.19699   0.35938   0.00000  Uiso   1.00
H583   H     0.32177   0.13509   0.64041   0.00000  Uiso   1.00
H584   H     0.13092   0.02619   0.39745   0.00000  Uiso   1.00
H585   H     0.26306   0.28895   0.33624   0.00000  Uiso   1.00
H586   H     0.16779   0.02576   0.63436   0.00000  Uiso   1.00
N587   N     0.16668   0.16668   0.61736   0.00000  Uiso   1.00
N588   N     0.16665   0.16666   0.38264   0.00000  Uiso   1.00
O589   O     0.16666   0.10655   0.53958   0.00000  Uiso   1.00
O590   O     0.28602   0.21061   0.41508   0.00000  Uiso   1.00
O591   O     0.02576   0.17533   0.38222   0.00000  Uiso   1.00
O592   O     0.04751   0.12194   0.58452   0.00000  Uiso   1.00
O593   O     0.04724   0.19819   0.59318   0.00000  Uiso   1.00
O594   O     0.30757   0.15668   0.61760   0.00000  Uiso   1.00
O595   O     0.08353   0.10077   0.40167   0.00000  Uiso   1.00
O596   O     0.08895   0.07366   0.65864   0.00000  Uiso   1.00
O597   O     0.15531   0.04835   0.39255   0.00000  Uiso   1.00
O598   O     0.24995   0.23271   0.59870   0.00000  Uiso   1.00
O599   O     0.18047   0.28026   0.60798   0.00000  Uiso   1.00
O600   O     0.16667   0.22678   0.46042   0.00000  Uiso   1.00
O601   O     0.24648   0.26336   0.34573   0.00000  Uiso   1.00
O602   O     0.24252   0.09465   0.59975   0.00000  Uiso   1.00
O603   O     0.23481   0.06993   0.34366   0.00000  Uiso   1.00
O604   O     0.16638   0.04738   0.60970   0.00000  Uiso   1.00
O605   O     0.16541   0.28157   0.38907   0.00000  Uiso   1.00
O606   O     0.10090   0.26531   0.65715   0.00000  Uiso   1.00
O607   O     0.08685   0.23953   0.40426   0.00000  Uiso   1.00
O608   O     0.16666   0.10654   0.46039   0.00000  Uiso   1.00
O609   O     0.16667   0.22679   0.53961   0.00000  Uiso   1.00
O610   O     0.09161   0.16667   0.53046   0.00000  Uiso   1.00
O611   O     0.24172   0.16666   0.46954   0.00000  Uiso   1.00
O612   O     0.09161   0.16666   0.45127   0.00000  Uiso   1.00
O613   O     0.24172   0.16667   0.54873   0.00000  Uiso   1.00
O614   O     0.28599   0.13431   0.40720   0.00000  Uiso   1.00
S615   S     0.31817   0.17191   0.42056   0.00000  Uiso   1.00
S616   S     0.01521   0.16058   0.57938   0.00000  Uiso   1.00
S617   S     0.11960   0.08855   0.36950   0.00000  Uiso   1.00
S618   S     0.21302   0.24518   0.62997   0.00000  Uiso   1.00
S619   S     0.20533   0.08552   0.63209   0.00000  Uiso   1.00
S620   S     0.12937   0.24855   0.36859   0.00000  Uiso   1.00
C621   C     0.50010   0.08764   0.50016   0.00000  Uiso   1.00
C622   C     0.54079   0.02166   0.48639   0.00000  Uiso   1.00
C623   C     0.49984   0.29036   0.49954   0.00000  Uiso   1.00
C624   C     0.50028   0.04296   0.50049   0.00000  Uiso   1.00
C625   C     0.49226   0.13075   0.35643   0.00000  Uiso   1.00
C626   C     0.50769   0.20265   0.64354   0.00000  Uiso   1.00
C627   C     0.50270   0.13024   0.64359   0.00000  Uiso   1.00
C628   C     0.49745   0.20318   0.35647   0.00000  Uiso   1.00
C629   C     0.49998   0.24569   0.49985   0.00000  Uiso   1.00
C630   C     0.40162   0.16662   0.48798   0.00000  Uiso   1.00
C631   C     0.59839   0.16657   0.51202   0.00000  Uiso   1.00
C632   C     0.34664   0.16732   0.48110   0.00000  Uiso   1.00
C633   C     0.65338   0.16558   0.51888   0.00000  Uiso   1.00
C634   C     0.45951   0.02152   0.51403   0.00000  Uiso   1.00
C635   C     0.54051   0.31178   0.48580   0.00000  Uiso   1.00
C636   C     0.45941   0.31165   0.51378   0.00000  Uiso   1.00
Cu637  Cu    0.50000   0.16667   0.54689   0.00000  Uiso   1.00
Cu638  Cu    0.50000   0.16666   0.45311   0.00000  Uiso   1.00
H639   H     0.42805   0.03824   0.52466   0.00000  Uiso   1.00
H640   H     0.40586   0.26727   0.40958   0.00000  Uiso   1.00
H641   H     0.57187   0.29506   0.47500   0.00000  Uiso   1.00
H642   H     0.42798   0.29482   0.52442   0.00000  Uiso   1.00
H643   H     0.57224   0.03849   0.47581   0.00000  Uiso   1.00
H644   H     0.34513   0.19699   0.35938   0.00000  Uiso   1.00
H645   H     0.65510   0.13509   0.64041   0.00000  Uiso   1.00
H646   H     0.46425   0.02619   0.39745   0.00000  Uiso   1.00
H647   H     0.59639   0.28895   0.33624   0.00000  Uiso   1.00
H648   H     0.50113   0.02576   0.63436   0.00000  Uiso   1.00
N649   N     0.50001   0.16668   0.61736   0.00000  Uiso   1.00
N650   N     0.49999   0.16666   0.38264   0.00000  Uiso   1.00
O651   O     0.50000   0.10655   0.53958   0.00000  Uiso   1.00
O652   O     0.61936   0.21061   0.41508   0.00000  Uiso   1.00
O653   O     0.35909   0.17533   0.38222   0.00000  Uiso   1.00
O654   O     0.38084   0.12194   0.58452   0.00000  Uiso   1.00
O655   O     0.38057   0.19819   0.59318   0.00000  Uiso   1.00
O656   O     0.64090   0.15668   0.61760   0.00000  Uiso   1.00
O657   O     0.41686   0.10077   0.40167   0.00000  Uiso   1.00
O658   O     0.42229   0.07366   0.65864   0.00000  Uiso   1.00
O659   O     0.48864   0.04835   0.39255   0.00000  Uiso   1.00
O660   O     0.58329   0.23271   0.59870   0.00000  Uiso   1.00
O661   O     0.51380   0.28026   0.60798   0.00000  Uiso   1.00
O662   O     0.50000   0.22678   0.46042   0.00000  Uiso   1.00
O663   O     0.57981   0.26336   0.34573   0.00000  Uiso   1.00
O664   O     0.57586   0.09465   0.59975   0.00000  Uiso   1.00
O665   O     0.56814   0.06993   0.34366   0.00000  Uiso   1.00
O666   O     0.49971   0.04738   0.60970   0.00000  Uiso   1.00
O667   O     0.49875   0.28157   0.38907   0.00000  Uiso   1.00
O668   O     0.43424   0.26531   0.65715   0.00000  Uiso   1.00
O669   O     0.42018   0.23953   0.40426   0.00000  Uiso   1.00
O670   O     0.50000   0.10654   0.46039   0.00000  Uiso   1.00
O671   O     0.50000   0.22679   0.53961   0.00000  Uiso   1.00
O672   O     0.42495   0.16667   0.53046   0.00000  Uiso   1.00
O673   O     0.57505   0.16666   0.46954   0.00000  Uiso   1.00
O674   O     0.42494   0.16666   0.45127   0.00000  Uiso   1.00
O675   O     0.57506   0.16667   0.54873   0.00000  Uiso   1.00
O676   O     0.61932   0.13431   0.40720   0.00000  Uiso   1.00
S677   S     0.65151   0.17191   0.42056   0.00000  Uiso   1.00
S678   S     0.34854   0.16058   0.57938   0.00000  Uiso   1.00
S679   S     0.45293   0.08855   0.36950   0.00000  Uiso   1.00
S680   S     0.54635   0.24518   0.62997   0.00000  Uiso   1.00
S681   S     0.53866   0.08552   0.63209   0.00000  Uiso   1.00
S682   S     0.46270   0.24855   0.36859   0.00000  Uiso   1.00
C683   C     0.83343   0.08764   0.50016   0.00000  Uiso   1.00
C684   C     0.87412   0.02166   0.48639   0.00000  Uiso   1.00
C685   C     0.83317   0.29036   0.49954   0.00000  Uiso   1.00
C686   C     0.83361   0.04296   0.50049   0.00000  Uiso   1.00
C687   C     0.82559   0.13075   0.35643   0.00000  Uiso   1.00
C688   C     0.84103   0.20265   0.64354   0.00000  Uiso   1.00
C689   C     0.83604   0.13024   0.64359   0.00000  Uiso   1.00
C690   C     0.83078   0.20318   0.35647   0.00000  Uiso   1.00
C691   C     0.83331   0.24569   0.49985   0.00000  Uiso   1.00
C692   C     0.73495   0.16662   0.48798   0.00000  Uiso   1.00
C693   C     0.93173   0.16657   0.51202   0.00000  Uiso   1.00
C694   C     0.67997   0.16732   0.48110   0.00000  Uiso   1.00
C695   C     0.98672   0.16558   0.51888   0.00000  Uiso   1.00
C696   C     0.79284   0.02152   0.51403   0.00000  Uiso   1.00
C697   C     0.87384   0.31178   0.48580   0.00000  Uiso   1.00
C698   C     0.79274   0.31165   0.51378   0.00000  Uiso   1.00
Cu699  Cu    0.83333   0.16667   0.54689   0.00000  Uiso   1.00
Cu700  Cu    0.83333   0.16666   0.45311   0.00000  Uiso   1.00
H701   H     0.76139   0.03824   0.52466   0.00000  Uiso   1.00
H702   H     0.73920   0.26727   0.40958   0.00000  Uiso   1.00
H703   H     0.90520   0.29506   0.47500   0.00000  Uiso   1.00
H704   H     0.76132   0.29482   0.52442   0.00000  Uiso   1.00
H705   H     0.90558   0.03849   0.47581   0.00000  Uiso   1.00
H706   H     0.67846   0.19699   0.35938   0.00000  Uiso   1.00
H707   H     0.98844   0.13509   0.64041   0.00000  Uiso   1.00
H708   H     0.79759   0.02619   0.39745   0.00000  Uiso   1.00
H709   H     0.92973   0.28895   0.33624   0.00000  Uiso   1.00
H710   H     0.83446   0.02576   0.63436   0.00000  Uiso   1.00
N711   N     0.83335   0.16668   0.61736   0.00000  Uiso   1.00
N712   N     0.83332   0.16666   0.38264   0.00000  Uiso   1.00
O713   O     0.83333   0.10655   0.53958   0.00000  Uiso   1.00
O714   O     0.95269   0.21061   0.41508   0.00000  Uiso   1.00
O715   O     0.69243   0.17533   0.38222   0.00000  Uiso   1.00
O716   O     0.71417   0.12194   0.58452   0.00000  Uiso   1.00
O717   O     0.71390   0.19819   0.59318   0.00000  Uiso   1.00
O718   O     0.97424   0.15668   0.61760   0.00000  Uiso   1.00
O719   O     0.75019   0.10077   0.40167   0.00000  Uiso   1.00
O720   O     0.75562   0.07366   0.65864   0.00000  Uiso   1.00
O721   O     0.82197   0.04835   0.39255   0.00000  Uiso   1.00
O722   O     0.91662   0.23271   0.59870   0.00000  Uiso   1.00
O723   O     0.84714   0.28026   0.60798   0.00000  Uiso   1.00
O724   O     0.83334   0.22678   0.46042   0.00000  Uiso   1.00
O725   O     0.91314   0.26336   0.34573   0.00000  Uiso   1.00
O726   O     0.90919   0.09465   0.59975   0.00000  Uiso   1.00
O727   O     0.90148   0.06993   0.34366   0.00000  Uiso   1.00
O728   O     0.83305   0.04738   0.60970   0.00000  Uiso   1.00
O729   O     0.83208   0.28157   0.38907   0.00000  Uiso   1.00
O730   O     0.76757   0.26531   0.65715   0.00000  Uiso   1.00
O731   O     0.75351   0.23953   0.40426   0.00000  Uiso   1.00
O732   O     0.83333   0.10654   0.46039   0.00000  Uiso   1.00
O733   O     0.83334   0.22679   0.53961   0.00000  Uiso   1.00
O734   O     0.75828   0.16667   0.53046   0.00000  Uiso   1.00
O735   O     0.90839   0.16666   0.46954   0.00000  Uiso   1.00
O736   O     0.75828   0.16666   0.45127   0.00000  Uiso   1.00
O737   O     0.90839   0.16667   0.54873   0.00000  Uiso   1.00
O738   O     0.95265   0.13431   0.40720   0.00000  Uiso   1.00
S739   S     0.98484   0.17191   0.42056   0.00000  Uiso   1.00
S740   S     0.68188   0.16058   0.57938   0.00000  Uiso   1.00
S741   S     0.78626   0.08855   0.36950   0.00000  Uiso   1.00
S742   S     0.87969   0.24518   0.62997   0.00000  Uiso   1.00
S743   S     0.87199   0.08552   0.63209   0.00000  Uiso   1.00
S744   S     0.79604   0.24855   0.36859   0.00000  Uiso   1.00
C745   C     0.16676   0.42097   0.50016   0.00000  Uiso   1.00
C746   C     0.20745   0.35499   0.48639   0.00000  Uiso   1.00
C747   C     0.16651   0.62369   0.49954   0.00000  Uiso   1.00
C748   C     0.16694   0.37629   0.50049   0.00000  Uiso   1.00
C749   C     0.15893   0.46408   0.35643   0.00000  Uiso   1.00
C750   C     0.17436   0.53598   0.64354   0.00000  Uiso   1.00
C751   C     0.16937   0.46358   0.64359   0.00000  Uiso   1.00
C752   C     0.16411   0.53651   0.35647   0.00000  Uiso   1.00
C753   C     0.16664   0.57902   0.49985   0.00000  Uiso   1.00
C754   C     0.06828   0.49995   0.48798   0.00000  Uiso   1.00
C755   C     0.26506   0.49990   0.51202   0.00000  Uiso   1.00
C756   C     0.01331   0.50066   0.48110   0.00000  Uiso   1.00
C757   C     0.32005   0.49891   0.51888   0.00000  Uiso   1.00
C758   C     0.12618   0.35486   0.51403   0.00000  Uiso   1.00
C759   C     0.20717   0.64512   0.48580   0.00000  Uiso   1.00
C760   C     0.12607   0.64498   0.51378   0.00000  Uiso   1.00
Cu761  Cu    0.16667   0.50001   0.54689   0.00000  Uiso   1.00
Cu762  Cu    0.16667   0.49999   0.45311   0.00000  Uiso   1.00
H763   H     0.09472   0.37157   0.52466   0.00000  Uiso   1.00
H764   H     0.07253   0.60061   0.40958   0.00000  Uiso   1.00
H765   H     0.23853   0.62840   0.47500   0.00000  Uiso   1.00
H766   H     0.09465   0.62815   0.52442   0.00000  Uiso   1.00
H767   H     0.23891   0.37182   0.47581   0.00000  Uiso   1.00
H768   H     0.01179   0.53032   0.35938   0.00000  Uiso   1.00
H769   H     0.32177   0.46842   0.64041   0.00000  Uiso   1.00
H770   H     0.13092   0.35952   0.39745   0.00000  Uiso   1.00
H771   H     0.26306   0.62229   0.33624   0.00000  Uiso   1.00
H772   H     0.16779   0.35910   0.63436   0.00000  Uiso   1.00
N773   N     0.16668   0.50001   0.61736   0.00000  Uiso   1.00
N774   N     0.16665   0.49999   0.38264   0.00000  Uiso   1.00
O775   O     0.16666   0.43989   0.53958   0.00000  Uiso   1.00
O776   O     0.28602   0.54394   0.41508   0.00000  Uiso   1.00
O777   O     0.02576   0.50866   0.38222   0.00000  Uiso   1.00
O778   O     0.04751   0.45527   0.58452   0.00000  Uiso   1.00
O779   O     0.04724   0.53152   0.59318   0.00000  Uiso   1.00
O780   O     0.30757   0.49001   0.61760   0.00000  Uiso   1.00
O781   O     0.08353   0.43411   0.40167   0.00000  Uiso   1.00
O782   O     0.08895   0.40699   0.65864   0.00000  Uiso   1.00
O783   O     0.15531   0.38168   0.39255   0.00000  Uiso   1.00
O784   O     0.24995   0.56604   0.59870   0.00000  Uiso   1.00
O785   O     0.18047   0.61360   0.60798   0.00000  Uiso   1.00
O786   O     0.16667   0.56011   0.46042   0.00000  Uiso   1.00
O787   O     0.24648   0.59669   0.34573   0.00000  Uiso   1.00
O788   O     0.24252   0.42799   0.59975   0.00000  Uiso   1.00
O789   O     0.23481   0.40326   0.34366   0.00000  Uiso   1.00
O790   O     0.16638   0.38072   0.60970   0.00000  Uiso   1.00
O791   O     0.16541   0.61491   0.38907   0.00000  Uiso   1.00
O792   O     0.10090   0.59864   0.65715   0.00000  Uiso   1.00
O793   O     0.08685   0.57286   0.40426   0.00000  Uiso   1.00
O794   O     0.16666   0.43988   0.46039   0.00000  Uiso   1.00
O795   O     0.16667   0.56012   0.53961   0.00000  Uiso   1.00
O796   O     0.09161   0.50000   0.53046   0.00000  Uiso   1.00
O797   O     0.24172   0.50000   0.46954   0.00000  Uiso   1.00
O798   O     0.09161   0.49999   0.45127   0.00000  Uiso   1.00
O799   O     0.24172   0.50001   0.54873   0.00000  Uiso   1.00
O800   O     0.28599   0.46764   0.40720   0.00000  Uiso   1.00
S801   S     0.31817   0.50524   0.42056   0.00000  Uiso   1.00
S802   S     0.01521   0.49391   0.57938   0.00000  Uiso   1.00
S803   S     0.11960   0.42188   0.36950   0.00000  Uiso   1.00
S804   S     0.21302   0.57852   0.62997   0.00000  Uiso   1.00
S805   S     0.20533   0.41886   0.63209   0.00000  Uiso   1.00
S806   S     0.12937   0.58188   0.36859   0.00000  Uiso   1.00
C807   C     0.50010   0.42097   0.50016   0.00000  Uiso   1.00
C808   C     0.54079   0.35499   0.48639   0.00000  Uiso   1.00
C809   C     0.49984   0.62369   0.49954   0.00000  Uiso   1.00
C810   C     0.50028   0.37629   0.50049   0.00000  Uiso   1.00
C811   C     0.49226   0.46408   0.35643   0.00000  Uiso   1.00
C812   C     0.50769   0.53598   0.64354   0.00000  Uiso   1.00
C813   C     0.50270   0.46358   0.64359   0.00000  Uiso   1.00
C814   C     0.49745   0.53651   0.35647   0.00000  Uiso   1.00
C815   C     0.49998   0.57902   0.49985   0.00000  Uiso   1.00
C816   C     0.40162   0.49995   0.48798   0.00000  Uiso   1.00
C817   C     0.59839   0.49990   0.51202   0.00000  Uiso   1.00
C818   C     0.34664   0.50066   0.48110   0.00000  Uiso   1.00
C819   C     0.65338   0.49891   0.51888   0.00000  Uiso   1.00
C820   C     0.45951   0.35486   0.51403   0.00000  Uiso   1.00
C821   C     0.54051   0.64512   0.48580   0.00000  Uiso   1.00
C822   C     0.45941   0.64498   0.51378   0.00000  Uiso   1.00
Cu823  Cu    0.50000   0.50001   0.54689   0.00000  Uiso   1.00
Cu824  Cu    0.50000   0.49999   0.45311   0.00000  Uiso   1.00
H825   H     0.42805   0.37157   0.52466   0.00000  Uiso   1.00
H826   H     0.40586   0.60061   0.40958   0.00000  Uiso   1.00
H827   H     0.57187   0.62840   0.47500   0.00000  Uiso   1.00
H828   H     0.42798   0.62815   0.52442   0.00000  Uiso   1.00
H829   H     0.57224   0.37182   0.47581   0.00000  Uiso   1.00
H830   H     0.34513   0.53032   0.35938   0.00000  Uiso   1.00
H831   H     0.65510   0.46842   0.64041   0.00000  Uiso   1.00
H832   H     0.46425   0.35952   0.39745   0.00000  Uiso   1.00
H833   H     0.59639   0.62229   0.33624   0.00000  Uiso   1.00
H834   H     0.50113   0.35910   0.63436   0.00000  Uiso   1.00
N835   N     0.50001   0.50001   0.61736   0.00000  Uiso   1.00
N836   N     0.49999   0.49999   0.38264   0.00000  Uiso   1.00
O837   O     0.50000   0.43989   0.53958   0.00000  Uiso   1.00
O838   O     0.61936   0.54394   0.41508   0.00000  Uiso   1.00
O839   O     0.35909   0.50866   0.38222   0.00000  Uiso   1.00
O840   O     0.38084   0.45527   0.58452   0.00000  Uiso   1.00
O841   O     0.38057   0.53152   0.59318   0.00000  Uiso   1.00
O842   O     0.64090   0.49001   0.61760   0.00000  Uiso   1.00
O843   O     0.41686   0.43411   0.40167   0.00000  Uiso   1.00
O844   O     0.42229   0.40699   0.65864   0.00000  Uiso   1.00
O845   O     0.48864   0.38168   0.39255   0.00000  Uiso   1.00
O846   O     0.58329   0.56604   0.59870   0.00000  Uiso   1.00
O847   O     0.51380   0.61360   0.60798   0.00000  Uiso   1.00
O848   O     0.50000   0.56011   0.46042   0.00000  Uiso   1.00
O849   O     0.57981   0.59669   0.34573   0.00000  Uiso   1.00
O850   O     0.57586   0.42799   0.59975   0.00000  Uiso   1.00
O851   O     0.56814   0.40326   0.34366   0.00000  Uiso   1.00
O852   O     0.49971   0.38072   0.60970   0.00000  Uiso   1.00
O853   O     0.49875   0.61491   0.38907   0.00000  Uiso   1.00
O854   O     0.43424   0.59864   0.65715   0.00000  Uiso   1.00
O855   O     0.42018   0.57286   0.40426   0.00000  Uiso   1.00
O856   O     0.50000   0.43988   0.46039   0.00000  Uiso   1.00
O857   O     0.50000   0.56012   0.53961   0.00000  Uiso   1.00
O858   O     0.42495   0.50000   0.53046   0.00000  Uiso   1.00
O859   O     0.57505   0.50000   0.46954   0.00000  Uiso   1.00
O860   O     0.42494   0.49999   0.45127   0.00000  Uiso   1.00
O861   O     0.57506   0.50001   0.54873   0.00000  Uiso   1.00
O862   O     0.61932   0.46764   0.40720   0.00000  Uiso   1.00
S863   S     0.65151   0.50524   0.42056   0.00000  Uiso   1.00
S864   S     0.34854   0.49391   0.57938   0.00000  Uiso   1.00
S865   S     0.45293   0.42188   0.36950   0.00000  Uiso   1.00
S866   S     0.54635   0.57852   0.62997   0.00000  Uiso   1.00
S867   S     0.53866   0.41886   0.63209   0.00000  Uiso   1.00
S868   S     0.46270   0.58188   0.36859   0.00000  Uiso   1.00
C869   C     0.83343   0.42097   0.50016   0.00000  Uiso   1.00
C870   C     0.87412   0.35499   0.48639   0.00000  Uiso   1.00
C871   C     0.83317   0.62369   0.49954   0.00000  Uiso   1.00
C872   C     0.83361   0.37629   0.50049   0.00000  Uiso   1.00
C873   C     0.82559   0.46408   0.35643   0.00000  Uiso   1.00
C874   C     0.84103   0.53598   0.64354   0.00000  Uiso   1.00
C875   C     0.83604   0.46358   0.64359   0.00000  Uiso   1.00
C876   C     0.83078   0.53651   0.35647   0.00000  Uiso   1.00
C877   C     0.83331   0.57902   0.49985   0.00000  Uiso   1.00
C878   C     0.73495   0.49995   0.48798   0.00000  Uiso   1.00
C879   C     0.93173   0.49990   0.51202   0.00000  Uiso   1.00
C880   C     0.67997   0.50066   0.48110   0.00000  Uiso   1.00
C881   C     0.98672   0.49891   0.51888   0.00000  Uiso   1.00
C882   C     0.79284   0.35486   0.51403   0.00000  Uiso   1.00
C883   C     0.87384   0.64512   0.48580   0.00000  Uiso   1.00
C884   C     0.79274   0.64498   0.51378   0.00000  Uiso   1.00
Cu885  Cu    0.83333   0.50001   0.54689   0.00000  Uiso   1.00
Cu886  Cu    0.83333   0.49999   0.45311   0.00000  Uiso   1.00
H887   H     0.76139   0.37157   0.52466   0.00000  Uiso   1.00
H888   H     0.73920   0.60061   0.40958   0.00000  Uiso   1.00
H889   H     0.90520   0.62840   0.47500   0.00000  Uiso   1.00
H890   H     0.76132   0.62815   0.52442   0.00000  Uiso   1.00
H891   H     0.90558   0.37182   0.47581   0.00000  Uiso   1.00
H892   H     0.67846   0.53032   0.35938   0.00000  Uiso   1.00
H893   H     0.98844   0.46842   0.64041   0.00000  Uiso   1.00
H894   H     0.79759   0.35952   0.39745   0.00000  Uiso   1.00
H895   H     0.92973   0.62229   0.33624   0.00000  Uiso   1.00
H896   H     0.83446   0.35910   0.63436   0.00000  Uiso   1.00
N897   N     0.83335   0.50001   0.61736   0.00000  Uiso   1.00
N898   N     0.83332   0.49999   0.38264   0.00000  Uiso   1.00
O899   O     0.83333   0.43989   0.53958   0.00000  Uiso   1.00
O900   O     0.95269   0.54394   0.41508   0.00000  Uiso   1.00
O901   O     0.69243   0.50866   0.38222   0.00000  Uiso   1.00
O902   O     0.71417   0.45527   0.58452   0.00000  Uiso   1.00
O903   O     0.71390   0.53152   0.59318   0.00000  Uiso   1.00
O904   O     0.97424   0.49001   0.61760   0.00000  Uiso   1.00
O905   O     0.75019   0.43411   0.40167   0.00000  Uiso   1.00
O906   O     0.75562   0.40699   0.65864   0.00000  Uiso   1.00
O907   O     0.82197   0.38168   0.39255   0.00000  Uiso   1.00
O908   O     0.91662   0.56604   0.59870   0.00000  Uiso   1.00
O909   O     0.84714   0.61360   0.60798   0.00000  Uiso   1.00
O910   O     0.83334   0.56011   0.46042   0.00000  Uiso   1.00
O911   O     0.91314   0.59669   0.34573   0.00000  Uiso   1.00
O912   O     0.90919   0.42799   0.59975   0.00000  Uiso   1.00
O913   O     0.90148   0.40326   0.34366   0.00000  Uiso   1.00
O914   O     0.83305   0.38072   0.60970   0.00000  Uiso   1.00
O915   O     0.83208   0.61491   0.38907   0.00000  Uiso   1.00
O916   O     0.76757   0.59864   0.65715   0.00000  Uiso   1.00
O917   O     0.75351   0.57286   0.40426   0.00000  Uiso   1.00
O918   O     0.83333   0.43988   0.46039   0.00000  Uiso   1.00
O919   O     0.83334   0.56012   0.53961   0.00000  Uiso   1.00
O920   O     0.75828   0.50000   0.53046   0.00000  Uiso   1.00
O921   O     0.90839   0.50000   0.46954   0.00000  Uiso   1.00
O922   O     0.75828   0.49999   0.45127   0.00000  Uiso   1.00
O923   O     0.90839   0.50001   0.54873   0.00000  Uiso   1.00
O924   O     0.95265   0.46764   0.40720   0.00000  Uiso   1.00
S925   S     0.98484   0.50524   0.42056   0.00000  Uiso   1.00
S926   S     0.68188   0.49391   0.57938   0.00000  Uiso   1.00
S927   S     0.78626   0.42188   0.36950   0.00000  Uiso   1.00
S928   S     0.87969   0.57852   0.62997   0.00000  Uiso   1.00
S929   S     0.87199   0.41886   0.63209   0.00000  Uiso   1.00
S930   S     0.79604   0.58188   0.36859   0.00000  Uiso   1.00
C931   C     0.16676   0.75430   0.50016   0.00000  Uiso   1.00
C932   C     0.20745   0.68833   0.48639   0.00000  Uiso   1.00
C933   C     0.16651   0.95702   0.49954   0.00000  Uiso   1.00
C934   C     0.16694   0.70963   0.50049   0.00000  Uiso   1.00
C935   C     0.15893   0.79742   0.35643   0.00000  Uiso   1.00
C936   C     0.17436   0.86931   0.64354   0.00000  Uiso   1.00
C937   C     0.16937   0.79691   0.64359   0.00000  Uiso   1.00
C938   C     0.16411   0.86984   0.35647   0.00000  Uiso   1.00
C939   C     0.16664   0.91236   0.49985   0.00000  Uiso   1.00
C940   C     0.06828   0.83328   0.48798   0.00000  Uiso   1.00
C941   C     0.26506   0.83324   0.51202   0.00000  Uiso   1.00
C942   C     0.01331   0.83399   0.48110   0.00000  Uiso   1.00
C943   C     0.32005   0.83224   0.51888   0.00000  Uiso   1.00
C944   C     0.12618   0.68819   0.51403   0.00000  Uiso   1.00
C945   C     0.20717   0.97845   0.48580   0.00000  Uiso   1.00
C946   C     0.12607   0.97832   0.51378   0.00000  Uiso   1.00
Cu947  Cu    0.16667   0.83334   0.54689   0.00000  Uiso   1.00
Cu948  Cu    0.16667   0.83333   0.45311   0.00000  Uiso   1.00
H949   H     0.09472   0.70491   0.52466   0.00000  Uiso   1.00
H950   H     0.07253   0.93394   0.40958   0.00000  Uiso   1.00
H951   H     0.23853   0.96173   0.47500   0.00000  Uiso   1.00
H952   H     0.09465   0.96149   0.52442   0.00000  Uiso   1.00
H953   H     0.23891   0.70515   0.47581   0.00000  Uiso   1.00
H954   H     0.01179   0.86365   0.35938   0.00000  Uiso   1.00
H955   H     0.32177   0.80175   0.64041   0.00000  Uiso   1.00
H956   H     0.13092   0.69285   0.39745   0.00000  Uiso   1.00
H957   H     0.26306   0.95562   0.33624   0.00000  Uiso   1.00
H958   H     0.16779   0.69243   0.63436   0.00000  Uiso   1.00
N959   N     0.16668   0.83334   0.61736   0.00000  Uiso   1.00
N960   N     0.16665   0.83332   0.38264   0.00000  Uiso   1.00
O961   O     0.16666   0.77322   0.53958   0.00000  Uiso   1.00
O962   O     0.28602   0.87727   0.41508   0.00000  Uiso   1.00
O963   O     0.02576   0.84200   0.38222   0.00000  Uiso   1.00
O964   O     0.04751   0.78860   0.58452   0.00000  Uiso   1.00
O965   O     0.04724   0.86485   0.59318   0.00000  Uiso   1.00
O966   O     0.30757   0.82335   0.61760   0.00000  Uiso   1.00
O967   O     0.08353   0.76744   0.40167   0.00000  Uiso   1.00
O968   O     0.08895   0.74033   0.65864   0.00000  Uiso   1.00
O969   O     0.15531   0.71502   0.39255   0.00000  Uiso   1.00
O970   O     0.24995   0.89938   0.59870   0.00000  Uiso   1.00
O971   O     0.18047   0.94693   0.60798   0.00000  Uiso   1.00
O972   O     0.16667   0.89345   0.46042   0.00000  Uiso   1.00
O973   O     0.24648   0.93003   0.34573   0.00000  Uiso   1.00
O974   O     0.24252   0.76132   0.59975   0.00000  Uiso   1.00
O975   O     0.23481   0.73659   0.34366   0.00000  Uiso   1.00
O976   O     0.16638   0.71405   0.60970   0.00000  Uiso   1.00
O977   O     0.16541   0.94824   0.38907   0.00000  Uiso   1.00
O978   O     0.10090   0.93197   0.65715   0.00000  Uiso   1.00
O979   O     0.08685   0.90619   0.40426   0.00000  Uiso   1.00
O980   O     0.16666   0.77321   0.46039   0.00000  Uiso   1.00
O981   O     0.16667   0.89346   0.53961   0.00000  Uiso   1.00
O982   O     0.09161   0.83334   0.53046   0.00000  Uiso   1.00
O983   O     0.24172   0.83333   0.46954   0.00000  Uiso   1.00
O984   O     0.09161   0.83333   0.45127   0.00000  Uiso   1.00
O985   O     0.24172   0.83334   0.54873   0.00000  Uiso   1.00
O986   O     0.28599   0.80098   0.40720   0.00000  Uiso   1.00
S987   S     0.31817   0.83858   0.42056   0.00000  Uiso   1.00
S988   S     0.01521   0.82724   0.57938   0.00000  Uiso   1.00
S989   S     0.11960   0.75522   0.36950   0.00000  Uiso   1.00
S990   S     0.21302   0.91185   0.62997   0.00000  Uiso   1.00
S991   S     0.20533   0.75219   0.63209   0.00000  Uiso   1.00
S992   S     0.12937   0.91522   0.36859   0.00000  Uiso   1.00
C993   C     0.50010   0.75430   0.50016   0.00000  Uiso   1.00
C994   C     0.54079   0.68833   0.48639   0.00000  Uiso   1.00
C995   C     0.49984   0.95702   0.49954   0.00000  Uiso   1.00
C996   C     0.50028   0.70963   0.50049   0.00000  Uiso   1.00
C997   C     0.49226   0.79742   0.35643   0.00000  Uiso   1.00
C998   C     0.50769   0.86931   0.64354   0.00000  Uiso   1.00
C999   C     0.50270   0.79691   0.64359   0.00000  Uiso   1.00
C1000  C     0.49745   0.86984   0.35647   0.00000  Uiso   1.00
C1001  C     0.49998   0.91236   0.49985   0.00000  Uiso   1.00
C1002  C     0.40162   0.83328   0.48798   0.00000  Uiso   1.00
C1003  C     0.59839   0.83324   0.51202   0.00000  Uiso   1.00
C1004  C     0.34664   0.83399   0.48110   0.00000  Uiso   1.00
C1005  C     0.65338   0.83224   0.51888   0.00000  Uiso   1.00
C1006  C     0.45951   0.68819   0.51403   0.00000  Uiso   1.00
C1007  C     0.54051   0.97845   0.48580   0.00000  Uiso   1.00
C1008  C     0.45941   0.97832   0.51378   0.00000  Uiso   1.00
Cu1009 Cu    0.50000   0.83334   0.54689   0.00000  Uiso   1.00
Cu1010 Cu    0.50000   0.83333   0.45311   0.00000  Uiso   1.00
H1011  H     0.42805   0.70491   0.52466   0.00000  Uiso   1.00
H1012  H     0.40586   0.93394   0.40958   0.00000  Uiso   1.00
H1013  H     0.57187   0.96173   0.47500   0.00000  Uiso   1.00
H1014  H     0.42798   0.96149   0.52442   0.00000  Uiso   1.00
H1015  H     0.57224   0.70515   0.47581   0.00000  Uiso   1.00
H1016  H     0.34513   0.86365   0.35938   0.00000  Uiso   1.00
H1017  H     0.65510   0.80175   0.64041   0.00000  Uiso   1.00
H1018  H     0.46425   0.69285   0.39745   0.00000  Uiso   1.00
H1019  H     0.59639   0.95562   0.33624   0.00000  Uiso   1.00
H1020  H     0.50113   0.69243   0.63436   0.00000  Uiso   1.00
N1021  N     0.50001   0.83334   0.61736   0.00000  Uiso   1.00
N1022  N     0.49999   0.83332   0.38264   0.00000  Uiso   1.00
O1023  O     0.50000   0.77322   0.53958   0.00000  Uiso   1.00
O1024  O     0.61936   0.87727   0.41508   0.00000  Uiso   1.00
O1025  O     0.35909   0.84200   0.38222   0.00000  Uiso   1.00
O1026  O     0.38084   0.78860   0.58452   0.00000  Uiso   1.00
O1027  O     0.38057   0.86485   0.59318   0.00000  Uiso   1.00
O1028  O     0.64090   0.82335   0.61760   0.00000  Uiso   1.00
O1029  O     0.41686   0.76744   0.40167   0.00000  Uiso   1.00
O1030  O     0.42229   0.74033   0.65864   0.00000  Uiso   1.00
O1031  O     0.48864   0.71502   0.39255   0.00000  Uiso   1.00
O1032  O     0.58329   0.89938   0.59870   0.00000  Uiso   1.00
O1033  O     0.51380   0.94693   0.60798   0.00000  Uiso   1.00
O1034  O     0.50000   0.89345   0.46042   0.00000  Uiso   1.00
O1035  O     0.57981   0.93003   0.34573   0.00000  Uiso   1.00
O1036  O     0.57586   0.76132   0.59975   0.00000  Uiso   1.00
O1037  O     0.56814   0.73659   0.34366   0.00000  Uiso   1.00
O1038  O     0.49971   0.71405   0.60970   0.00000  Uiso   1.00
O1039  O     0.49875   0.94824   0.38907   0.00000  Uiso   1.00
O1040  O     0.43424   0.93197   0.65715   0.00000  Uiso   1.00
O1041  O     0.42018   0.90619   0.40426   0.00000  Uiso   1.00
O1042  O     0.50000   0.77321   0.46039   0.00000  Uiso   1.00
O1043  O     0.50000   0.89346   0.53961   0.00000  Uiso   1.00
O1044  O     0.42495   0.83334   0.53046   0.00000  Uiso   1.00
O1045  O     0.57505   0.83333   0.46954   0.00000  Uiso   1.00
O1046  O     0.42494   0.83333   0.45127   0.00000  Uiso   1.00
O1047  O     0.57506   0.83334   0.54873   0.00000  Uiso   1.00
O1048  O     0.61932   0.80098   0.40720   0.00000  Uiso   1.00
S1049  S     0.65151   0.83858   0.42056   0.00000  Uiso   1.00
S1050  S     0.34854   0.82724   0.57938   0.00000  Uiso   1.00
S1051  S     0.45293   0.75522   0.36950   0.00000  Uiso   1.00
S1052  S     0.54635   0.91185   0.62997   0.00000  Uiso   1.00
S1053  S     0.53866   0.75219   0.63209   0.00000  Uiso   1.00
S1054  S     0.46270   0.91522   0.36859   0.00000  Uiso   1.00
C1055  C     0.83343   0.75430   0.50016   0.00000  Uiso   1.00
C1056  C     0.87412   0.68833   0.48639   0.00000  Uiso   1.00
C1057  C     0.83317   0.95702   0.49954   0.00000  Uiso   1.00
C1058  C     0.83361   0.70963   0.50049   0.00000  Uiso   1.00
C1059  C     0.82559   0.79742   0.35643   0.00000  Uiso   1.00
C1060  C     0.84103   0.86931   0.64354   0.00000  Uiso   1.00
C1061  C     0.83604   0.79691   0.64359   0.00000  Uiso   1.00
C1062  C     0.83078   0.86984   0.35647   0.00000  Uiso   1.00
C1063  C     0.83331   0.91236   0.49985   0.00000  Uiso   1.00
C1064  C     0.73495   0.83328   0.48798   0.00000  Uiso   1.00
C1065  C     0.93173   0.83324   0.51202   0.00000  Uiso   1.00
C1066  C     0.67997   0.83399   0.48110   0.00000  Uiso   1.00
C1067  C     0.98672   0.83224   0.51888   0.00000  Uiso   1.00
C1068  C     0.79284   0.68819   0.51403   0.00000  Uiso   1.00
C1069  C     0.87384   0.97845   0.48580   0.00000  Uiso   1.00
C1070  C     0.79274   0.97832   0.51378   0.00000  Uiso   1.00
Cu1071 Cu    0.83333   0.83334   0.54689   0.00000  Uiso   1.00
Cu1072 Cu    0.83333   0.83333   0.45311   0.00000  Uiso   1.00
H1073  H     0.76139   0.70491   0.52466   0.00000  Uiso   1.00
H1074  H     0.73920   0.93394   0.40958   0.00000  Uiso   1.00
H1075  H     0.90520   0.96173   0.47500   0.00000  Uiso   1.00
H1076  H     0.76132   0.96149   0.52442   0.00000  Uiso   1.00
H1077  H     0.90558   0.70515   0.47581   0.00000  Uiso   1.00
H1078  H     0.67846   0.86365   0.35938   0.00000  Uiso   1.00
H1079  H     0.98844   0.80175   0.64041   0.00000  Uiso   1.00
H1080  H     0.79759   0.69285   0.39745   0.00000  Uiso   1.00
H1081  H     0.92973   0.95562   0.33624   0.00000  Uiso   1.00
H1082  H     0.83446   0.69243   0.63436   0.00000  Uiso   1.00
N1083  N     0.83335   0.83334   0.61736   0.00000  Uiso   1.00
N1084  N     0.83332   0.83332   0.38264   0.00000  Uiso   1.00
O1085  O     0.83333   0.77322   0.53958   0.00000  Uiso   1.00
O1086  O     0.95269   0.87727   0.41508   0.00000  Uiso   1.00
O1087  O     0.69243   0.84200   0.38222   0.00000  Uiso   1.00
O1088  O     0.71417   0.78860   0.58452   0.00000  Uiso   1.00
O1089  O     0.71390   0.86485   0.59318   0.00000  Uiso   1.00
O1090  O     0.97424   0.82335   0.61760   0.00000  Uiso   1.00
O1091  O     0.75019   0.76744   0.40167   0.00000  Uiso   1.00
O1092  O     0.75562   0.74033   0.65864   0.00000  Uiso   1.00
O1093  O     0.82197   0.71502   0.39255   0.00000  Uiso   1.00
O1094  O     0.91662   0.89938   0.59870   0.00000  Uiso   1.00
O1095  O     0.84714   0.94693   0.60798   0.00000  Uiso   1.00
O1096  O     0.83334   0.89345   0.46042   0.00000  Uiso   1.00
O1097  O     0.91314   0.93003   0.34573   0.00000  Uiso   1.00
O1098  O     0.90919   0.76132   0.59975   0.00000  Uiso   1.00
O1099  O     0.90148   0.73659   0.34366   0.00000  Uiso   1.00
O1100  O     0.83305   0.71405   0.60970   0.00000  Uiso   1.00
O1101  O     0.83208   0.94824   0.38907   0.00000  Uiso   1.00
O1102  O     0.76757   0.93197   0.65715   0.00000  Uiso   1.00
O1103  O     0.75351   0.90619   0.40426   0.00000  Uiso   1.00
O1104  O     0.83333   0.77321   0.46039   0.00000  Uiso   1.00
O1105  O     0.83334   0.89346   0.53961   0.00000  Uiso   1.00
O1106  O     0.75828   0.83334   0.53046   0.00000  Uiso   1.00
O1107  O     0.90839   0.83333   0.46954   0.00000  Uiso   1.00
O1108  O     0.75828   0.83333   0.45127   0.00000  Uiso   1.00
O1109  O     0.90839   0.83334   0.54873   0.00000  Uiso   1.00
O1110  O     0.95265   0.80098   0.40720   0.00000  Uiso   1.00
S1111  S     0.98484   0.83858   0.42056   0.00000  Uiso   1.00
S1112  S     0.68188   0.82724   0.57938   0.00000  Uiso   1.00
S1113  S     0.78626   0.75522   0.36950   0.00000  Uiso   1.00
S1114  S     0.87969   0.91185   0.62997   0.00000  Uiso   1.00
S1115  S     0.87199   0.75219   0.63209   0.00000  Uiso   1.00
S1116  S     0.79604   0.91522   0.36859   0.00000  Uiso   1.00
C1117  C     0.16676   0.08764   0.83350   0.00000  Uiso   1.00
C1118  C     0.20745   0.02166   0.81972   0.00000  Uiso   1.00
C1119  C     0.16651   0.29036   0.83287   0.00000  Uiso   1.00
C1120  C     0.16694   0.04296   0.83383   0.00000  Uiso   1.00
C1121  C     0.15893   0.13075   0.68976   0.00000  Uiso   1.00
C1122  C     0.17436   0.20265   0.97687   0.00000  Uiso   1.00
C1123  C     0.16937   0.13024   0.97693   0.00000  Uiso   1.00
C1124  C     0.16411   0.20318   0.68980   0.00000  Uiso   1.00
C1125  C     0.16664   0.24569   0.83318   0.00000  Uiso   1.00
C1126  C     0.06828   0.16662   0.82132   0.00000  Uiso   1.00
C1127  C     0.26506   0.16657   0.84535   0.00000  Uiso   1.00
C1128  C     0.01331   0.16732   0.81443   0.00000  Uiso   1.00
C1129  C     0.32005   0.16558   0.85221   0.00000  Uiso   1.00
C1130  C     0.12618   0.02152   0.84737   0.00000  Uiso   1.00
C1131  C     0.20717   0.31178   0.81913   0.00000  Uiso   1.00
C1132  C     0.12607   0.31165   0.84711   0.00000  Uiso   1.00
Cu1133 Cu    0.16667   0.16667   0.88022   0.00000  Uiso   1.00
Cu1134 Cu    0.16667   0.16666   0.78645   0.00000  Uiso   1.00
H1135  H     0.09472   0.03824   0.85799   0.00000  Uiso   1.00
H1136  H     0.07253   0.26727   0.74291   0.00000  Uiso   1.00
H1137  H     0.23853   0.29506   0.80833   0.00000  Uiso   1.00
H1138  H     0.09465   0.29482   0.85775   0.00000  Uiso   1.00
H1139  H     0.23891   0.03849   0.80914   0.00000  Uiso   1.00
H1140  H     0.01179   0.19699   0.69271   0.00000  Uiso   1.00
H1141  H     0.32177   0.13509   0.97374   0.00000  Uiso   1.00
H1142  H     0.13092   0.02619   0.73078   0.00000  Uiso   1.00
H1143  H     0.26306   0.28895   0.66957   0.00000  Uiso   1.00
H1144  H     0.16779   0.02576   0.96769   0.00000  Uiso   1.00
N1145  N     0.16668   0.16668   0.95069   0.00000  Uiso   1.00
N1146  N     0.16665   0.16666   0.71597   0.00000  Uiso   1.00
O1147  O     0.16666   0.10655   0.87291   0.00000  Uiso   1.00
O1148  O     0.28602   0.21061   0.74842   0.00000  Uiso   1.00
O1149  O     0.02576   0.17533   0.71555   0.00000  Uiso   1.00
O1150  O     0.04751   0.12194   0.91785   0.00000  Uiso   1.00
O1151  O     0.04724   0.19819   0.92651   0.00000  Uiso   1.00
O1152  O     0.30757   0.15668   0.95093   0.00000  Uiso   1.00
O1153  O     0.08353   0.10077   0.73501   0.00000  Uiso   1.00
O1154  O     0.08895   0.07366   0.99198   0.00000  Uiso   1.00
O1155  O     0.15531   0.04835   0.72588   0.00000  Uiso   1.00
O1156  O     0.24995   0.23271   0.93203   0.00000  Uiso   1.00
O1157  O     0.18047   0.28026   0.94131   0.00000  Uiso   1.00
O1158  O     0.16667   0.22678   0.79375   0.00000  Uiso   1.00
O1159  O     0.24648   0.26336   0.67907   0.00000  Uiso   1.00
O1160  O     0.24252   0.09465   0.93308   0.00000  Uiso   1.00
O1161  O     0.23481   0.06993   0.67699   0.00000  Uiso   1.00
O1162  O     0.16638   0.04738   0.94303   0.00000  Uiso   1.00
O1163  O     0.16541   0.28157   0.72240   0.00000  Uiso   1.00
O1164  O     0.10090   0.26531   0.99048   0.00000  Uiso   1.00
O1165  O     0.08685   0.23953   0.73759   0.00000  Uiso   1.00
O1166  O     0.16666   0.10654   0.79372   0.00000  Uiso   1.00
O1167  O     0.16667   0.22679   0.87294   0.00000  Uiso   1.00
O1168  O     0.09161   0.16667   0.86379   0.00000  Uiso   1.00
O1169  O     0.24172   0.16666   0.80288   0.00000  Uiso   1.00
O1170  O     0.09161   0.16666   0.78460   0.00000  Uiso   1.00
O1171  O     0.24172   0.16667   0.88207   0.00000  Uiso   1.00
O1172  O     0.28599   0.13431   0.74054   0.00000  Uiso   1.00
S1173  S     0.31817   0.17191   0.75389   0.00000  Uiso   1.00
S1174  S     0.01521   0.16058   0.91271   0.00000  Uiso   1.00
S1175  S     0.11960   0.08855   0.70284   0.00000  Uiso   1.00
S1176  S     0.21302   0.24518   0.96330   0.00000  Uiso   1.00
S1177  S     0.20533   0.08552   0.96542   0.00000  Uiso   1.00
S1178  S     0.12937   0.24855   0.70193   0.00000  Uiso   1.00
C1179  C     0.50010   0.08764   0.83350   0.00000  Uiso   1.00
C1180  C     0.54079   0.02166   0.81972   0.00000  Uiso   1.00
C1181  C     0.49984   0.29036   0.83287   0.00000  Uiso   1.00
C1182  C     0.50028   0.04296   0.83383   0.00000  Uiso   1.00
C1183  C     0.49226   0.13075   0.68976   0.00000  Uiso   1.00
C1184  C     0.50769   0.20265   0.97687   0.00000  Uiso   1.00
C1185  C     0.50270   0.13024   0.97693   0.00000  Uiso   1.00
C1186  C     0.49745   0.20318   0.68980   0.00000  Uiso   1.00
C1187  C     0.49998   0.24569   0.83318   0.00000  Uiso   1.00
C1188  C     0.40162   0.16662   0.82132   0.00000  Uiso   1.00
C1189  C     0.59839   0.16657   0.84535   0.00000  Uiso   1.00
C1190  C     0.34664   0.16732   0.81443   0.00000  Uiso   1.00
C1191  C     0.65338   0.16558   0.85221   0.00000  Uiso   1.00
C1192  C     0.45951   0.02152   0.84737   0.00000  Uiso   1.00
C1193  C     0.54051   0.31178   0.81913   0.00000  Uiso   1.00
C1194  C     0.45941   0.31165   0.84711   0.00000  Uiso   1.00
Cu1195 Cu    0.50000   0.16667   0.88022   0.00000  Uiso   1.00
Cu1196 Cu    0.50000   0.16666   0.78645   0.00000  Uiso   1.00
H1197  H     0.42805   0.03824   0.85799   0.00000  Uiso   1.00
H1198  H     0.40586   0.26727   0.74291   0.00000  Uiso   1.00
H1199  H     0.57187   0.29506   0.80833   0.00000  Uiso   1.00
H1200  H     0.42798   0.29482   0.85775   0.00000  Uiso   1.00
H1201  H     0.57224   0.03849   0.80914   0.00000  Uiso   1.00
H1202  H     0.34513   0.19699   0.69271   0.00000  Uiso   1.00
H1203  H     0.65510   0.13509   0.97374   0.00000  Uiso   1.00
H1204  H     0.46425   0.02619   0.73078   0.00000  Uiso   1.00
H1205  H     0.59639   0.28895   0.66957   0.00000  Uiso   1.00
H1206  H     0.50113   0.02576   0.96769   0.00000  Uiso   1.00
N1207  N     0.50001   0.16668   0.95069   0.00000  Uiso   1.00
N1208  N     0.49999   0.16666   0.71597   0.00000  Uiso   1.00
O1209  O     0.50000   0.10655   0.87291   0.00000  Uiso   1.00
O1210  O     0.61936   0.21061   0.74842   0.00000  Uiso   1.00
O1211  O     0.35909   0.17533   0.71555   0.00000  Uiso   1.00
O1212  O     0.38084   0.12194   0.91785   0.00000  Uiso   1.00
O1213  O     0.38057   0.19819   0.92651   0.00000  Uiso   1.00
O1214  O     0.64090   0.15668   0.95093   0.00000  Uiso   1.00
O1215  O     0.41686   0.10077   0.73501   0.00000  Uiso   1.00
O1216  O     0.42229   0.07366   0.99198   0.00000  Uiso   1.00
O1217  O     0.48864   0.04835   0.72588   0.00000  Uiso   1.00
O1218  O     0.58329   0.23271   0.93203   0.00000  Uiso   1.00
O1219  O     0.51380   0.28026   0.94131   0.00000  Uiso   1.00
O1220  O     0.50000   0.22678   0.79375   0.00000  Uiso   1.00
O1221  O     0.57981   0.26336   0.67907   0.00000  Uiso   1.00
O1222  O     0.57586   0.09465   0.93308   0.00000  Uiso   1.00
O1223  O     0.56814   0.06993   0.67699   0.00000  Uiso   1.00
O1224  O     0.49971   0.04738   0.94303   0.00000  Uiso   1.00
O1225  O     0.49875   0.28157   0.72240   0.00000  Uiso   1.00
O1226  O     0.43424   0.26531   0.99048   0.00000  Uiso   1.00
O1227  O     0.42018   0.23953   0.73759   0.00000  Uiso   1.00
O1228  O     0.50000   0.10654   0.79372   0.00000  Uiso   1.00
O1229  O     0.50000   0.22679   0.87294   0.00000  Uiso   1.00
O1230  O     0.42495   0.16667   0.86379   0.00000  Uiso   1.00
O1231  O     0.57505   0.16666   0.80288   0.00000  Uiso   1.00
O1232  O     0.42494   0.16666   0.78460   0.00000  Uiso   1.00
O1233  O     0.57506   0.16667   0.88207   0.00000  Uiso   1.00
O1234  O     0.61932   0.13431   0.74054   0.00000  Uiso   1.00
S1235  S     0.65151   0.17191   0.75389   0.00000  Uiso   1.00
S1236  S     0.34854   0.16058   0.91271   0.00000  Uiso   1.00
S1237  S     0.45293   0.08855   0.70284   0.00000  Uiso   1.00
S1238  S     0.54635   0.24518   0.96330   0.00000  Uiso   1.00
S1239  S     0.53866   0.08552   0.96542   0.00000  Uiso   1.00
S1240  S     0.46270   0.24855   0.70193   0.00000  Uiso   1.00
C1241  C     0.83343   0.08764   0.83350   0.00000  Uiso   1.00
C1242  C     0.87412   0.02166   0.81972   0.00000  Uiso   1.00
C1243  C     0.83317   0.29036   0.83287   0.00000  Uiso   1.00
C1244  C     0.83361   0.04296   0.83383   0.00000  Uiso   1.00
C1245  C     0.82559   0.13075   0.68976   0.00000  Uiso   1.00
C1246  C     0.84103   0.20265   0.97687   0.00000  Uiso   1.00
C1247  C     0.83604   0.13024   0.97693   0.00000  Uiso   1.00
C1248  C     0.83078   0.20318   0.68980   0.00000  Uiso   1.00
C1249  C     0.83331   0.24569   0.83318   0.00000  Uiso   1.00
C1250  C     0.73495   0.16662   0.82132   0.00000  Uiso   1.00
C1251  C     0.93173   0.16657   0.84535   0.00000  Uiso   1.00
C1252  C     0.67997   0.16732   0.81443   0.00000  Uiso   1.00
C1253  C     0.98672   0.16558   0.85221   0.00000  Uiso   1.00
C1254  C     0.79284   0.02152   0.84737   0.00000  Uiso   1.00
C1255  C     0.87384   0.31178   0.81913   0.00000  Uiso   1.00
C1256  C     0.79274   0.31165   0.84711   0.00000  Uiso   1.00
Cu1257 Cu    0.83333   0.16667   0.88022   0.00000  Uiso   1.00
Cu1258 Cu    0.83333   0.16666   0.78645   0.00000  Uiso   1.00
H1259  H     0.76139   0.03824   0.85799   0.00000  Uiso   1.00
H1260  H     0.73920   0.26727   0.74291   0.00000  Uiso   1.00
H1261  H     0.90520   0.29506   0.80833   0.00000  Uiso   1.00
H1262  H     0.76132   0.29482   0.85775   0.00000  Uiso   1.00
H1263  H     0.90558   0.03849   0.80914   0.00000  Uiso   1.00
H1264  H     0.67846   0.19699   0.69271   0.00000  Uiso   1.00
H1265  H     0.98844   0.13509   0.97374   0.00000  Uiso   1.00
H1266  H     0.79759   0.02619   0.73078   0.00000  Uiso   1.00
H1267  H     0.92973   0.28895   0.66957   0.00000  Uiso   1.00
H1268  H     0.83446   0.02576   0.96769   0.00000  Uiso   1.00
N1269  N     0.83335   0.16668   0.95069   0.00000  Uiso   1.00
N1270  N     0.83332   0.16666   0.71597   0.00000  Uiso   1.00
O1271  O     0.83333   0.10655   0.87291   0.00000  Uiso   1.00
O1272  O     0.95269   0.21061   0.74842   0.00000  Uiso   1.00
O1273  O     0.69243   0.17533   0.71555   0.00000  Uiso   1.00
O1274  O     0.71417   0.12194   0.91785   0.00000  Uiso   1.00
O1275  O     0.71390   0.19819   0.92651   0.00000  Uiso   1.00
O1276  O     0.97424   0.15668   0.95093   0.00000  Uiso   1.00
O1277  O     0.75019   0.10077   0.73501   0.00000  Uiso   1.00
O1278  O     0.75562   0.07366   0.99198   0.00000  Uiso   1.00
O1279  O     0.82197   0.04835   0.72588   0.00000  Uiso   1.00
O1280  O     0.91662   0.23271   0.93203   0.00000  Uiso   1.00
O1281  O     0.84714   0.28026   0.94131   0.00000  Uiso   1.00
O1282  O     0.83334   0.22678   0.79375   0.00000  Uiso   1.00
O1283  O     0.91314   0.26336   0.67907   0.00000  Uiso   1.00
O1284  O     0.90919   0.09465   0.93308   0.00000  Uiso   1.00
O1285  O     0.90148   0.06993   0.67699   0.00000  Uiso   1.00
O1286  O     0.83305   0.04738   0.94303   0.00000  Uiso   1.00
O1287  O     0.83208   0.28157   0.72240   0.00000  Uiso   1.00
O1288  O     0.76757   0.26531   0.99048   0.00000  Uiso   1.00
O1289  O     0.75351   0.23953   0.73759   0.00000  Uiso   1.00
O1290  O     0.83333   0.10654   0.79372   0.00000  Uiso   1.00
O1291  O     0.83334   0.22679   0.87294   0.00000  Uiso   1.00
O1292  O     0.75828   0.16667   0.86379   0.00000  Uiso   1.00
O1293  O     0.90839   0.16666   0.80288   0.00000  Uiso   1.00
O1294  O     0.75828   0.16666   0.78460   0.00000  Uiso   1.00
O1295  O     0.90839   0.16667   0.88207   0.00000  Uiso   1.00
O1296  O     0.95265   0.13431   0.74054   0.00000  Uiso   1.00
S1297  S     0.98484   0.17191   0.75389   0.00000  Uiso   1.00
S1298  S     0.68188   0.16058   0.91271   0.00000  Uiso   1.00
S1299  S     0.78626   0.08855   0.70284   0.00000  Uiso   1.00
S1300  S     0.87969   0.24518   0.96330   0.00000  Uiso   1.00
S1301  S     0.87199   0.08552   0.96542   0.00000  Uiso   1.00
S1302  S     0.79604   0.24855   0.70193   0.00000  Uiso   1.00
C1303  C     0.16676   0.42097   0.83350   0.00000  Uiso   1.00
C1304  C     0.20745   0.35499   0.81972   0.00000  Uiso   1.00
C1305  C     0.16651   0.62369   0.83287   0.00000  Uiso   1.00
C1306  C     0.16694   0.37629   0.83383   0.00000  Uiso   1.00
C1307  C     0.15893   0.46408   0.68976   0.00000  Uiso   1.00
C1308  C     0.17436   0.53598   0.97687   0.00000  Uiso   1.00
C1309  C     0.16937   0.46358   0.97693   0.00000  Uiso   1.00
C1310  C     0.16411   0.53651   0.68980   0.00000  Uiso   1.00
C1311  C     0.16664   0.57902   0.83318   0.00000  Uiso   1.00
C1312  C     0.06828   0.49995   0.82132   0.00000  Uiso   1.00
C1313  C     0.26506   0.49990   0.84535   0.00000  Uiso   1.00
C1314  C     0.01331   0.50066   0.81443   0.00000  Uiso   1.00
C1315  C     0.32005   0.49891   0.85221   0.00000  Uiso   1.00
C1316  C     0.12618   0.35486   0.84737   0.00000  Uiso   1.00
C1317  C     0.20717   0.64512   0.81913   0.00000  Uiso   1.00
C1318  C     0.12607   0.64498   0.84711   0.00000  Uiso   1.00
Cu1319 Cu    0.16667   0.50001   0.88022   0.00000  Uiso   1.00
Cu1320 Cu    0.16667   0.49999   0.78645   0.00000  Uiso   1.00
H1321  H     0.09472   0.37157   0.85799   0.00000  Uiso   1.00
H1322  H     0.07253   0.60061   0.74291   0.00000  Uiso   1.00
H1323  H     0.23853   0.62840   0.80833   0.00000  Uiso   1.00
H1324  H     0.09465   0.62815   0.85775   0.00000  Uiso   1.00
H1325  H     0.23891   0.37182   0.80914   0.00000  Uiso   1.00
H1326  H     0.01179   0.53032   0.69271   0.00000  Uiso   1.00
H1327  H     0.32177   0.46842   0.97374   0.00000  Uiso   1.00
H1328  H     0.13092   0.35952   0.73078   0.00000  Uiso   1.00
H1329  H     0.26306   0.62229   0.66957   0.00000  Uiso   1.00
H1330  H     0.16779   0.35910   0.96769   0.00000  Uiso   1.00
N1331  N     0.16668   0.50001   0.95069   0.00000  Uiso   1.00
N1332  N     0.16665   0.49999   0.71597   0.00000  Uiso   1.00
O1333  O     0.16666   0.43989   0.87291   0.00000  Uiso   1.00
O1334  O     0.28602   0.54394   0.74842   0.00000  Uiso   1.00
O1335  O     0.02576   0.50866   0.71555   0.00000  Uiso   1.00
O1336  O     0.04751   0.45527   0.91785   0.00000  Uiso   1.00
O1337  O     0.04724   0.53152   0.92651   0.00000  Uiso   1.00
O1338  O     0.30757   0.49001   0.95093   0.00000  Uiso   1.00
O1339  O     0.08353   0.43411   0.73501   0.00000  Uiso   1.00
O1340  O     0.08895   0.40699   0.99198   0.00000  Uiso   1.00
O1341  O     0.15531   0.38168   0.72588   0.00000  Uiso   1.00
O1342  O     0.24995   0.56604   0.93203   0.00000  Uiso   1.00
O1343  O     0.18047   0.61360   0.94131   0.00000  Uiso   1.00
O1344  O     0.16667   0.56011   0.79375   0.00000  Uiso   1.00
O1345  O     0.24648   0.59669   0.67907   0.00000  Uiso   1.00
O1346  O     0.24252   0.42799   0.93308   0.00000  Uiso   1.00
O1347  O     0.23481   0.40326   0.67699   0.00000  Uiso   1.00
O1348  O     0.16638   0.38072   0.94303   0.00000  Uiso   1.00
O1349  O     0.16541   0.61491   0.72240   0.00000  Uiso   1.00
O1350  O     0.10090   0.59864   0.99048   0.00000  Uiso   1.00
O1351  O     0.08685   0.57286   0.73759   0.00000  Uiso   1.00
O1352  O     0.16666   0.43988   0.79372   0.00000  Uiso   1.00
O1353  O     0.16667   0.56012   0.87294   0.00000  Uiso   1.00
O1354  O     0.09161   0.50000   0.86379   0.00000  Uiso   1.00
O1355  O     0.24172   0.50000   0.80288   0.00000  Uiso   1.00
O1356  O     0.09161   0.49999   0.78460   0.00000  Uiso   1.00
O1357  O     0.24172   0.50001   0.88207   0.00000  Uiso   1.00
O1358  O     0.28599   0.46764   0.74054   0.00000  Uiso   1.00
S1359  S     0.31817   0.50524   0.75389   0.00000  Uiso   1.00
S1360  S     0.01521   0.49391   0.91271   0.00000  Uiso   1.00
S1361  S     0.11960   0.42188   0.70284   0.00000  Uiso   1.00
S1362  S     0.21302   0.57852   0.96330   0.00000  Uiso   1.00
S1363  S     0.20533   0.41886   0.96542   0.00000  Uiso   1.00
S1364  S     0.12937   0.58188   0.70193   0.00000  Uiso   1.00
C1365  C     0.50010   0.42097   0.83350   0.00000  Uiso   1.00
C1366  C     0.54079   0.35499   0.81972   0.00000  Uiso   1.00
C1367  C     0.49984   0.62369   0.83287   0.00000  Uiso   1.00
C1368  C     0.50028   0.37629   0.83383   0.00000  Uiso   1.00
C1369  C     0.49226   0.46408   0.68976   0.00000  Uiso   1.00
C1370  C     0.50769   0.53598   0.97687   0.00000  Uiso   1.00
C1371  C     0.50270   0.46358   0.97693   0.00000  Uiso   1.00
C1372  C     0.49745   0.53651   0.68980   0.00000  Uiso   1.00
C1373  C     0.49998   0.57902   0.83318   0.00000  Uiso   1.00
C1374  C     0.40162   0.49995   0.82132   0.00000  Uiso   1.00
C1375  C     0.59839   0.49990   0.84535   0.00000  Uiso   1.00
C1376  C     0.34664   0.50066   0.81443   0.00000  Uiso   1.00
C1377  C     0.65338   0.49891   0.85221   0.00000  Uiso   1.00
C1378  C     0.45951   0.35486   0.84737   0.00000  Uiso   1.00
C1379  C     0.54051   0.64512   0.81913   0.00000  Uiso   1.00
C1380  C     0.45941   0.64498   0.84711   0.00000  Uiso   1.00
Cu1381 Cu    0.50000   0.50001   0.88022   0.00000  Uiso   1.00
Cu1382 Cu    0.50000   0.49999   0.78645   0.00000  Uiso   1.00
H1383  H     0.42805   0.37157   0.85799   0.00000  Uiso   1.00
H1384  H     0.40586   0.60061   0.74291   0.00000  Uiso   1.00
H1385  H     0.57187   0.62840   0.80833   0.00000  Uiso   1.00
H1386  H     0.42798   0.62815   0.85775   0.00000  Uiso   1.00
H1387  H     0.57224   0.37182   0.80914   0.00000  Uiso   1.00
H1388  H     0.34513   0.53032   0.69271   0.00000  Uiso   1.00
H1389  H     0.65510   0.46842   0.97374   0.00000  Uiso   1.00
H1390  H     0.46425   0.35952   0.73078   0.00000  Uiso   1.00
H1391  H     0.59639   0.62229   0.66957   0.00000  Uiso   1.00
H1392  H     0.50113   0.35910   0.96769   0.00000  Uiso   1.00
N1393  N     0.50001   0.50001   0.95069   0.00000  Uiso   1.00
N1394  N     0.49999   0.49999   0.71597   0.00000  Uiso   1.00
O1395  O     0.50000   0.43989   0.87291   0.00000  Uiso   1.00
O1396  O     0.61936   0.54394   0.74842   0.00000  Uiso   1.00
O1397  O     0.35909   0.50866   0.71555   0.00000  Uiso   1.00
O1398  O     0.38084   0.45527   0.91785   0.00000  Uiso   1.00
O1399  O     0.38057   0.53152   0.92651   0.00000  Uiso   1.00
O1400  O     0.64090   0.49001   0.95093   0.00000  Uiso   1.00
O1401  O     0.41686   0.43411   0.73501   0.00000  Uiso   1.00
O1402  O     0.42229   0.40699   0.99198   0.00000  Uiso   1.00
O1403  O     0.48864   0.38168   0.72588   0.00000  Uiso   1.00
O1404  O     0.58329   0.56604   0.93203   0.00000  Uiso   1.00
O1405  O     0.51380   0.61360   0.94131   0.00000  Uiso   1.00
O1406  O     0.50000   0.56011   0.79375   0.00000  Uiso   1.00
O1407  O     0.57981   0.59669   0.67907   0.00000  Uiso   1.00
O1408  O     0.57586   0.42799   0.93308   0.00000  Uiso   1.00
O1409  O     0.56814   0.40326   0.67699   0.00000  Uiso   1.00
O1410  O     0.49971   0.38072   0.94303   0.00000  Uiso   1.00
O1411  O     0.49875   0.61491   0.72240   0.00000  Uiso   1.00
O1412  O     0.43424   0.59864   0.99048   0.00000  Uiso   1.00
O1413  O     0.42018   0.57286   0.73759   0.00000  Uiso   1.00
O1414  O     0.50000   0.43988   0.79372   0.00000  Uiso   1.00
O1415  O     0.50000   0.56012   0.87294   0.00000  Uiso   1.00
O1416  O     0.42495   0.50000   0.86379   0.00000  Uiso   1.00
O1417  O     0.57505   0.50000   0.80288   0.00000  Uiso   1.00
O1418  O     0.42494   0.49999   0.78460   0.00000  Uiso   1.00
O1419  O     0.57506   0.50001   0.88207   0.00000  Uiso   1.00
O1420  O     0.61932   0.46764   0.74054   0.00000  Uiso   1.00
S1421  S     0.65151   0.50524   0.75389   0.00000  Uiso   1.00
S1422  S     0.34854   0.49391   0.91271   0.00000  Uiso   1.00
S1423  S     0.45293   0.42188   0.70284   0.00000  Uiso   1.00
S1424  S     0.54635   0.57852   0.96330   0.00000  Uiso   1.00
S1425  S     0.53866   0.41886   0.96542   0.00000  Uiso   1.00
S1426  S     0.46270   0.58188   0.70193   0.00000  Uiso   1.00
C1427  C     0.83343   0.42097   0.83350   0.00000  Uiso   1.00
C1428  C     0.87412   0.35499   0.81972   0.00000  Uiso   1.00
C1429  C     0.83317   0.62369   0.83287   0.00000  Uiso   1.00
C1430  C     0.83361   0.37629   0.83383   0.00000  Uiso   1.00
C1431  C     0.82559   0.46408   0.68976   0.00000  Uiso   1.00
C1432  C     0.84103   0.53598   0.97687   0.00000  Uiso   1.00
C1433  C     0.83604   0.46358   0.97693   0.00000  Uiso   1.00
C1434  C     0.83078   0.53651   0.68980   0.00000  Uiso   1.00
C1435  C     0.83331   0.57902   0.83318   0.00000  Uiso   1.00
C1436  C     0.73495   0.49995   0.82132   0.00000  Uiso   1.00
C1437  C     0.93173   0.49990   0.84535   0.00000  Uiso   1.00
C1438  C     0.67997   0.50066   0.81443   0.00000  Uiso   1.00
C1439  C     0.98672   0.49891   0.85221   0.00000  Uiso   1.00
C1440  C     0.79284   0.35486   0.84737   0.00000  Uiso   1.00
C1441  C     0.87384   0.64512   0.81913   0.00000  Uiso   1.00
C1442  C     0.79274   0.64498   0.84711   0.00000  Uiso   1.00
Cu1443 Cu    0.83333   0.50001   0.88022   0.00000  Uiso   1.00
Cu1444 Cu    0.83333   0.49999   0.78645   0.00000  Uiso   1.00
H1445  H     0.76139   0.37157   0.85799   0.00000  Uiso   1.00
H1446  H     0.73920   0.60061   0.74291   0.00000  Uiso   1.00
H1447  H     0.90520   0.62840   0.80833   0.00000  Uiso   1.00
H1448  H     0.76132   0.62815   0.85775   0.00000  Uiso   1.00
H1449  H     0.90558   0.37182   0.80914   0.00000  Uiso   1.00
H1450  H     0.67846   0.53032   0.69271   0.00000  Uiso   1.00
H1451  H     0.98844   0.46842   0.97374   0.00000  Uiso   1.00
H1452  H     0.79759   0.35952   0.73078   0.00000  Uiso   1.00
H1453  H     0.92973   0.62229   0.66957   0.00000  Uiso   1.00
H1454  H     0.83446   0.35910   0.96769   0.00000  Uiso   1.00
N1455  N     0.83335   0.50001   0.95069   0.00000  Uiso   1.00
N1456  N     0.83332   0.49999   0.71597   0.00000  Uiso   1.00
O1457  O     0.83333   0.43989   0.87291   0.00000  Uiso   1.00
O1458  O     0.95269   0.54394   0.74842   0.00000  Uiso   1.00
O1459  O     0.69243   0.50866   0.71555   0.00000  Uiso   1.00
O1460  O     0.71417   0.45527   0.91785   0.00000  Uiso   1.00
O1461  O     0.71390   0.53152   0.92651   0.00000  Uiso   1.00
O1462  O     0.97424   0.49001   0.95093   0.00000  Uiso   1.00
O1463  O     0.75019   0.43411   0.73501   0.00000  Uiso   1.00
O1464  O     0.75562   0.40699   0.99198   0.00000  Uiso   1.00
O1465  O     0.82197   0.38168   0.72588   0.00000  Uiso   1.00
O1466  O     0.91662   0.56604   0.93203   0.00000  Uiso   1.00
O1467  O     0.84714   0.61360   0.94131   0.00000  Uiso   1.00
O1468  O     0.83334   0.56011   0.79375   0.00000  Uiso   1.00
O1469  O     0.91314   0.59669   0.67907   0.00000  Uiso   1.00
O1470  O     0.90919   0.42799   0.93308   0.00000  Uiso   1.00
O1471  O     0.90148   0.40326   0.67699   0.00000  Uiso   1.00
O1472  O     0.83305   0.38072   0.94303   0.00000  Uiso   1.00
O1473  O     0.83208   0.61491   0.72240   0.00000  Uiso   1.00
O1474  O     0.76757   0.59864   0.99048   0.00000  Uiso   1.00
O1475  O     0.75351   0.57286   0.73759   0.00000  Uiso   1.00
O1476  O     0.83333   0.43988   0.79372   0.00000  Uiso   1.00
O1477  O     0.83334   0.56012   0.87294   0.00000  Uiso   1.00
O1478  O     0.75828   0.50000   0.86379   0.00000  Uiso   1.00
O1479  O     0.90839   0.50000   0.80288   0.00000  Uiso   1.00
O1480  O     0.75828   0.49999   0.78460   0.00000  Uiso   1.00
O1481  O     0.90839   0.50001   0.88207   0.00000  Uiso   1.00
O1482  O     0.95265   0.46764   0.74054   0.00000  Uiso   1.00
S1483  S     0.98484   0.50524   0.75389   0.00000  Uiso   1.00
S1484  S     0.68188   0.49391   0.91271   0.00000  Uiso   1.00
S1485  S     0.78626   0.42188   0.70284   0.00000  Uiso   1.00
S1486  S     0.87969   0.57852   0.96330   0.00000  Uiso   1.00
S1487  S     0.87199   0.41886   0.96542   0.00000  Uiso   1.00
S1488  S     0.79604   0.58188   0.70193   0.00000  Uiso   1.00
C1489  C     0.16676   0.75430   0.83350   0.00000  Uiso   1.00
C1490  C     0.20745   0.68833   0.81972   0.00000  Uiso   1.00
C1491  C     0.16651   0.95702   0.83287   0.00000  Uiso   1.00
C1492  C     0.16694   0.70963   0.83383   0.00000  Uiso   1.00
C1493  C     0.15893   0.79742   0.68976   0.00000  Uiso   1.00
C1494  C     0.17436   0.86931   0.97687   0.00000  Uiso   1.00
C1495  C     0.16937   0.79691   0.97693   0.00000  Uiso   1.00
C1496  C     0.16411   0.86984   0.68980   0.00000  Uiso   1.00
C1497  C     0.16664   0.91236   0.83318   0.00000  Uiso   1.00
C1498  C     0.06828   0.83328   0.82132   0.00000  Uiso   1.00
C1499  C     0.26506   0.83324   0.84535   0.00000  Uiso   1.00
C1500  C     0.01331   0.83399   0.81443   0.00000  Uiso   1.00
C1501  C     0.32005   0.83224   0.85221   0.00000  Uiso   1.00
C1502  C     0.12618   0.68819   0.84737   0.00000  Uiso   1.00
C1503  C     0.20717   0.97845   0.81913   0.00000  Uiso   1.00
C1504  C     0.12607   0.97832   0.84711   0.00000  Uiso   1.00
Cu1505 Cu    0.16667   0.83334   0.88022   0.00000  Uiso   1.00
Cu1506 Cu    0.16667   0.83333   0.78645   0.00000  Uiso   1.00
H1507  H     0.09472   0.70491   0.85799   0.00000  Uiso   1.00
H1508  H     0.07253   0.93394   0.74291   0.00000  Uiso   1.00
H1509  H     0.23853   0.96173   0.80833   0.00000  Uiso   1.00
H1510  H     0.09465   0.96149   0.85775   0.00000  Uiso   1.00
H1511  H     0.23891   0.70515   0.80914   0.00000  Uiso   1.00
H1512  H     0.01179   0.86365   0.69271   0.00000  Uiso   1.00
H1513  H     0.32177   0.80175   0.97374   0.00000  Uiso   1.00
H1514  H     0.13092   0.69285   0.73078   0.00000  Uiso   1.00
H1515  H     0.26306   0.95562   0.66957   0.00000  Uiso   1.00
H1516  H     0.16779   0.69243   0.96769   0.00000  Uiso   1.00
N1517  N     0.16668   0.83334   0.95069   0.00000  Uiso   1.00
N1518  N     0.16665   0.83332   0.71597   0.00000  Uiso   1.00
O1519  O     0.16666   0.77322   0.87291   0.00000  Uiso   1.00
O1520  O     0.28602   0.87727   0.74842   0.00000  Uiso   1.00
O1521  O     0.02576   0.84200   0.71555   0.00000  Uiso   1.00
O1522  O     0.04751   0.78860   0.91785   0.00000  Uiso   1.00
O1523  O     0.04724   0.86485   0.92651   0.00000  Uiso   1.00
O1524  O     0.30757   0.82335   0.95093   0.00000  Uiso   1.00
O1525  O     0.08353   0.76744   0.73501   0.00000  Uiso   1.00
O1526  O     0.08895   0.74033   0.99198   0.00000  Uiso   1.00
O1527  O     0.15531   0.71502   0.72588   0.00000  Uiso   1.00
O1528  O     0.24995   0.89938   0.93203   0.00000  Uiso   1.00
O1529  O     0.18047   0.94693   0.94131   0.00000  Uiso   1.00
O1530  O     0.16667   0.89345   0.79375   0.00000  Uiso   1.00
O1531  O     0.24648   0.93003   0.67907   0.00000  Uiso   1.00
O1532  O     0.24252   0.76132   0.93308   0.00000  Uiso   1.00
O1533  O     0.23481   0.73659   0.67699   0.00000  Uiso   1.00
O1534  O     0.16638   0.71405   0.94303   0.00000  Uiso   1.00
O1535  O     0.16541   0.94824   0.72240   0.00000  Uiso   1.00
O1536  O     0.10090   0.93197   0.99048   0.00000  Uiso   1.00
O1537  O     0.08685   0.90619   0.73759   0.00000  Uiso   1.00
O1538  O     0.16666   0.77321   0.79372   0.00000  Uiso   1.00
O1539  O     0.16667   0.89346   0.87294   0.00000  Uiso   1.00
O1540  O     0.09161   0.83334   0.86379   0.00000  Uiso   1.00
O1541  O     0.24172   0.83333   0.80288   0.00000  Uiso   1.00
O1542  O     0.09161   0.83333   0.78460   0.00000  Uiso   1.00
O1543  O     0.24172   0.83334   0.88207   0.00000  Uiso   1.00
O1544  O     0.28599   0.80098   0.74054   0.00000  Uiso   1.00
S1545  S     0.31817   0.83858   0.75389   0.00000  Uiso   1.00
S1546  S     0.01521   0.82724   0.91271   0.00000  Uiso   1.00
S1547  S     0.11960   0.75522   0.70284   0.00000  Uiso   1.00
S1548  S     0.21302   0.91185   0.96330   0.00000  Uiso   1.00
S1549  S     0.20533   0.75219   0.96542   0.00000  Uiso   1.00
S1550  S     0.12937   0.91522   0.70193   0.00000  Uiso   1.00
C1551  C     0.50010   0.75430   0.83350   0.00000  Uiso   1.00
C1552  C     0.54079   0.68833   0.81972   0.00000  Uiso   1.00
C1553  C     0.49984   0.95702   0.83287   0.00000  Uiso   1.00
C1554  C     0.50028   0.70963   0.83383   0.00000  Uiso   1.00
C1555  C     0.49226   0.79742   0.68976   0.00000  Uiso   1.00
C1556  C     0.50769   0.86931   0.97687   0.00000  Uiso   1.00
C1557  C     0.50270   0.79691   0.97693   0.00000  Uiso   1.00
C1558  C     0.49745   0.86984   0.68980   0.00000  Uiso   1.00
C1559  C     0.49998   0.91236   0.83318   0.00000  Uiso   1.00
C1560  C     0.40162   0.83328   0.82132   0.00000  Uiso   1.00
C1561  C     0.59839   0.83324   0.84535   0.00000  Uiso   1.00
C1562  C     0.34664   0.83399   0.81443   0.00000  Uiso   1.00
C1563  C     0.65338   0.83224   0.85221   0.00000  Uiso   1.00
C1564  C     0.45951   0.68819   0.84737   0.00000  Uiso   1.00
C1565  C     0.54051   0.97845   0.81913   0.00000  Uiso   1.00
C1566  C     0.45941   0.97832   0.84711   0.00000  Uiso   1.00
Cu1567 Cu    0.50000   0.83334   0.88022   0.00000  Uiso   1.00
Cu1568 Cu    0.50000   0.83333   0.78645   0.00000  Uiso   1.00
H1569  H     0.42805   0.70491   0.85799   0.00000  Uiso   1.00
H1570  H     0.40586   0.93394   0.74291   0.00000  Uiso   1.00
H1571  H     0.57187   0.96173   0.80833   0.00000  Uiso   1.00
H1572  H     0.42798   0.96149   0.85775   0.00000  Uiso   1.00
H1573  H     0.57224   0.70515   0.80914   0.00000  Uiso   1.00
H1574  H     0.34513   0.86365   0.69271   0.00000  Uiso   1.00
H1575  H     0.65510   0.80175   0.97374   0.00000  Uiso   1.00
H1576  H     0.46425   0.69285   0.73078   0.00000  Uiso   1.00
H1577  H     0.59639   0.95562   0.66957   0.00000  Uiso   1.00
H1578  H     0.50113   0.69243   0.96769   0.00000  Uiso   1.00
N1579  N     0.50001   0.83334   0.95069   0.00000  Uiso   1.00
N1580  N     0.49999   0.83332   0.71597   0.00000  Uiso   1.00
O1581  O     0.50000   0.77322   0.87291   0.00000  Uiso   1.00
O1582  O     0.61936   0.87727   0.74842   0.00000  Uiso   1.00
O1583  O     0.35909   0.84200   0.71555   0.00000  Uiso   1.00
O1584  O     0.38084   0.78860   0.91785   0.00000  Uiso   1.00
O1585  O     0.38057   0.86485   0.92651   0.00000  Uiso   1.00
O1586  O     0.64090   0.82335   0.95093   0.00000  Uiso   1.00
O1587  O     0.41686   0.76744   0.73501   0.00000  Uiso   1.00
O1588  O     0.42229   0.74033   0.99198   0.00000  Uiso   1.00
O1589  O     0.48864   0.71502   0.72588   0.00000  Uiso   1.00
O1590  O     0.58329   0.89938   0.93203   0.00000  Uiso   1.00
O1591  O     0.51380   0.94693   0.94131   0.00000  Uiso   1.00
O1592  O     0.50000   0.89345   0.79375   0.00000  Uiso   1.00
O1593  O     0.57981   0.93003   0.67907   0.00000  Uiso   1.00
O1594  O     0.57586   0.76132   0.93308   0.00000  Uiso   1.00
O1595  O     0.56814   0.73659   0.67699   0.00000  Uiso   1.00
O1596  O     0.49971   0.71405   0.94303   0.00000  Uiso   1.00
O1597  O     0.49875   0.94824   0.72240   0.00000  Uiso   1.00
O1598  O     0.43424   0.93197   0.99048   0.00000  Uiso   1.00
O1599  O     0.42018   0.90619   0.73759   0.00000  Uiso   1.00
O1600  O     0.50000   0.77321   0.79372   0.00000  Uiso   1.00
O1601  O     0.50000   0.89346   0.87294   0.00000  Uiso   1.00
O1602  O     0.42495   0.83334   0.86379   0.00000  Uiso   1.00
O1603  O     0.57505   0.83333   0.80288   0.00000  Uiso   1.00
O1604  O     0.42494   0.83333   0.78460   0.00000  Uiso   1.00
O1605  O     0.57506   0.83334   0.88207   0.00000  Uiso   1.00
O1606  O     0.61932   0.80098   0.74054   0.00000  Uiso   1.00
S1607  S     0.65151   0.83858   0.75389   0.00000  Uiso   1.00
S1608  S     0.34854   0.82724   0.91271   0.00000  Uiso   1.00
S1609  S     0.45293   0.75522   0.70284   0.00000  Uiso   1.00
S1610  S     0.54635   0.91185   0.96330   0.00000  Uiso   1.00
S1611  S     0.53866   0.75219   0.96542   0.00000  Uiso   1.00
S1612  S     0.46270   0.91522   0.70193   0.00000  Uiso   1.00
C1613  C     0.83343   0.75430   0.83350   0.00000  Uiso   1.00
C1614  C     0.87412   0.68833   0.81972   0.00000  Uiso   1.00
C1615  C     0.83317   0.95702   0.83287   0.00000  Uiso   1.00
C1616  C     0.83361   0.70963   0.83383   0.00000  Uiso   1.00
C1617  C     0.82559   0.79742   0.68976   0.00000  Uiso   1.00
C1618  C     0.84103   0.86931   0.97687   0.00000  Uiso   1.00
C1619  C     0.83604   0.79691   0.97693   0.00000  Uiso   1.00
C1620  C     0.83078   0.86984   0.68980   0.00000  Uiso   1.00
C1621  C     0.83331   0.91236   0.83318   0.00000  Uiso   1.00
C1622  C     0.73495   0.83328   0.82132   0.00000  Uiso   1.00
C1623  C     0.93173   0.83324   0.84535   0.00000  Uiso   1.00
C1624  C     0.67997   0.83399   0.81443   0.00000  Uiso   1.00
C1625  C     0.98672   0.83224   0.85221   0.00000  Uiso   1.00
C1626  C     0.79284   0.68819   0.84737   0.00000  Uiso   1.00
C1627  C     0.87384   0.97845   0.81913   0.00000  Uiso   1.00
C1628  C     0.79274   0.97832   0.84711   0.00000  Uiso   1.00
Cu1629 Cu    0.83333   0.83334   0.88022   0.00000  Uiso   1.00
Cu1630 Cu    0.83333   0.83333   0.78645   0.00000  Uiso   1.00
H1631  H     0.76139   0.70491   0.85799   0.00000  Uiso   1.00
H1632  H     0.73920   0.93394   0.74291   0.00000  Uiso   1.00
H1633  H     0.90520   0.96173   0.80833   0.00000  Uiso   1.00
H1634  H     0.76132   0.96149   0.85775   0.00000  Uiso   1.00
H1635  H     0.90558   0.70515   0.80914   0.00000  Uiso   1.00
H1636  H     0.67846   0.86365   0.69271   0.00000  Uiso   1.00
H1637  H     0.98844   0.80175   0.97374   0.00000  Uiso   1.00
H1638  H     0.79759   0.69285   0.73078   0.00000  Uiso   1.00
H1639  H     0.92973   0.95562   0.66957   0.00000  Uiso   1.00
H1640  H     0.83446   0.69243   0.96769   0.00000  Uiso   1.00
N1641  N     0.83335   0.83334   0.95069   0.00000  Uiso   1.00
N1642  N     0.83332   0.83332   0.71597   0.00000  Uiso   1.00
O1643  O     0.83333   0.77322   0.87291   0.00000  Uiso   1.00
O1644  O     0.95269   0.87727   0.74842   0.00000  Uiso   1.00
O1645  O     0.69243   0.84200   0.71555   0.00000  Uiso   1.00
O1646  O     0.71417   0.78860   0.91785   0.00000  Uiso   1.00
O1647  O     0.71390   0.86485   0.92651   0.00000  Uiso   1.00
O1648  O     0.97424   0.82335   0.95093   0.00000  Uiso   1.00
O1649  O     0.75019   0.76744   0.73501   0.00000  Uiso   1.00
O1650  O     0.75562   0.74033   0.99198   0.00000  Uiso   1.00
O1651  O     0.82197   0.71502   0.72588   0.00000  Uiso   1.00
O1652  O     0.91662   0.89938   0.93203   0.00000  Uiso   1.00
O1653  O     0.84714   0.94693   0.94131   0.00000  Uiso   1.00
O1654  O     0.83334   0.89345   0.79375   0.00000  Uiso   1.00
O1655  O     0.91314   0.93003   0.67907   0.00000  Uiso   1.00
O1656  O     0.90919   0.76132   0.93308   0.00000  Uiso   1.00
O1657  O     0.90148   0.73659   0.67699   0.00000  Uiso   1.00
O1658  O     0.83305   0.71405   0.94303   0.00000  Uiso   1.00
O1659  O     0.83208   0.94824   0.72240   0.00000  Uiso   1.00
O1660  O     0.76757   0.93197   0.99048   0.00000  Uiso   1.00
O1661  O     0.75351   0.90619   0.73759   0.00000  Uiso   1.00
O1662  O     0.83333   0.77321   0.79372   0.00000  Uiso   1.00
O1663  O     0.83334   0.89346   0.87294   0.00000  Uiso   1.00
O1664  O     0.75828   0.83334   0.86379   0.00000  Uiso   1.00
O1665  O     0.90839   0.83333   0.80288   0.00000  Uiso   1.00
O1666  O     0.75828   0.83333   0.78460   0.00000  Uiso   1.00
O1667  O     0.90839   0.83334   0.88207   0.00000  Uiso   1.00
O1668  O     0.95265   0.80098   0.74054   0.00000  Uiso   1.00
S1669  S     0.98484   0.83858   0.75389   0.00000  Uiso   1.00
S1670  S     0.68188   0.82724   0.91271   0.00000  Uiso   1.00
S1671  S     0.78626   0.75522   0.70284   0.00000  Uiso   1.00
S1672  S     0.87969   0.91185   0.96330   0.00000  Uiso   1.00
S1673  S     0.87199   0.75219   0.96542   0.00000  Uiso   1.00
S1674  S     0.79604   0.91522   0.70193   0.00000  Uiso   1.00
loop_
_geom_bond_atom_site_label_1
_geom_bond_atom_site_label_2
_geom_bond_distance
_geom_bond_site_symmetry_2
_ccdc_geom_bond_type
C1     O50     1.302   .     A
C1     O31     1.303   .     A
C1     C4      1.432   .     S
C2     C4      1.397   .     A
C2     H23     1.084   .     S
C2     C387    1.385   1_545 S
C3     C9      1.431   .     S
C3     C15     1.397   .     A
C3     C16     1.397   .     A
C4     C14     1.397   .     A
C5     N30     1.385   .     A
C5     S59     1.790   .     S
C5     C1123   1.414   1_554 S
C6     S60     1.791   .     S
C6     N29     1.386   .     A
C6     C566    1.415   .     S
C7     N29     1.386   .     A
C7     S61     1.788   .     S
C7     C563    1.414   .     S
C8     N30     1.387   .     A
C8     S62     1.792   .     S
C8     C1122   1.415   1_554 S
C9     O51     1.302   .     A
C9     O42     1.303   .     A
C10    O54     1.317   .     A
C10    O52     1.300   .     A
C10    C12     1.459   .     S
C11    C13     1.460   .     S
C11    O55     1.317   .     A
C11    O53     1.300   .     A
C12    C137    1.398   1_455 S
C12    S181    1.818   1_455 S
C13    C74     1.398   .     S
C13    S120    1.818   .     S
C14    H19     1.084   .     S
C14    C388    1.385   1_545 S
C15    H21     1.084   .     S
C15    C188    1.385   .     S
C16    H22     1.084   .     S
C16    C200    1.385   .     S
Cu17   N29     2.052   .     S
Cu17   O55     2.007   .     S
Cu17   O51     1.936   .     S
Cu17   Cu18    2.730   .     S
Cu17   O52     2.000   .     S
Cu17   O31     1.940   .     S
Cu18   N30     2.052   .     S
Cu18   O42     1.940   .     S
Cu18   O54     2.007   .     S
Cu18   O50     1.936   .     S
Cu18   O53     2.000   .     S
H20    O49     0.991   .     S
H24    O33     0.990   .     S
H25    O36     0.990   .     S
H26    O39     0.990   .     S
H27    O43     0.991   .     S
H28    O46     0.990   .     S
O32    S57     1.503   .     D
O33    S181    1.682   1_455 S
O34    S58     1.504   .     D
O35    S58     1.504   .     D
O36    S120    1.681   .     S
O37    S59     1.498   .     D
O38    S617    1.502   .     S
O39    S59     1.679   .     S
O40    S60     1.498   .     D
O41    S60     1.501   .     D
O43    S1176   1.680   1_554 S
O44    S61     1.498   .     D
O45    S1177   1.505   1_554 S
O46    S61     1.681   .     S
O47    S62     1.501   .     D
O48    S620    1.504   .     S
O49    S62     1.677   .     S
O56    S57     1.504   .     D
S57    O95     1.682   .     S
S57    C74     1.818   .     S
S58    C137    1.818   1_455 S
S58    O160    1.681   1_455 S
S59    O1154   1.502   1_554 S
S60    O601    1.680   .     S
S61    O603    1.505   .     S
S62    O1164   1.504   1_554 S
C63    O112    1.302   .     A
C63    O93     1.303   .     A
C63    C66     1.432   .     S
C64    C66     1.397   .     A
C64    H85     1.084   .     S
C64    C449    1.385   1_545 S
C65    C71     1.431   .     S
C65    C77     1.397   .     A
C65    C78     1.397   .     A
C66    C76     1.397   .     A
C67    N92     1.385   .     A
C67    S121    1.790   .     S
C67    C1185   1.414   1_554 S
C68    S122    1.791   .     S
C68    N91     1.386   .     A
C68    C628    1.415   .     S
C69    N91     1.386   .     A
C69    S123    1.788   .     S
C69    C625    1.414   .     S
C70    N92     1.387   .     A
C70    S124    1.792   .     S
C70    C1184   1.415   1_554 S
C71    O113    1.302   .     A
C71    O104    1.303   .     A
C72    O116    1.317   .     A
C72    O114    1.300   .     A
C72    C74     1.459   .     S
C73    C75     1.460   .     S
C73    O117    1.317   .     A
C73    O115    1.300   .     A
C75    C136    1.398   .     S
C75    S182    1.818   .     S
C76    H81     1.084   .     S
C76    C450    1.385   1_545 S
C77    H83     1.084   .     S
C77    C250    1.385   .     S
C78    H84     1.084   .     S
C78    C262    1.385   .     S
Cu79   N91     2.052   .     S
Cu79   O117    2.007   .     S
Cu79   O113    1.936   .     S
Cu79   Cu80    2.730   .     S
Cu79   O114    2.000   .     S
Cu79   O93     1.940   .     S
Cu80   N92     2.052   .     S
Cu80   O104    1.940   .     S
Cu80   O116    2.007   .     S
Cu80   O112    1.936   .     S
Cu80   O115    2.000   .     S
H82    O111    0.991   .     S
H86    O95     0.990   .     S
H87    O98     0.990   .     S
H88    O101    0.990   .     S
H89    O105    0.991   .     S
H90    O108    0.990   .     S
O94    S119    1.503   .     D
O96    S120    1.504   .     D
O97    S120    1.504   .     D
O98    S182    1.681   .     S
O99    S121    1.498   .     D
O100   S679    1.502   .     S
O101   S121    1.679   .     S
O102   S122    1.498   .     D
O103   S122    1.501   .     D
O105   S1238   1.680   1_554 S
O106   S123    1.498   .     D
O107   S1239   1.505   1_554 S
O108   S123    1.681   .     S
O109   S124    1.501   .     D
O110   S682    1.504   .     S
O111   S124    1.677   .     S
O118   S119    1.504   .     D
S119   O157    1.682   .     S
S119   C136    1.818   .     S
S121   O1216   1.502   1_554 S
S122   O663    1.680   .     S
S123   O665    1.505   .     S
S124   O1226   1.504   1_554 S
C125   O174    1.302   .     A
C125   O155    1.303   .     A
C125   C128    1.432   .     S
C126   C128    1.397   .     A
C126   H147    1.084   .     S
C126   C511    1.385   1_545 S
C127   C133    1.431   .     S
C127   C139    1.397   .     A
C127   C140    1.397   .     A
C128   C138    1.397   .     A
C129   N154    1.385   .     A
C129   S183    1.790   .     S
C129   C1247   1.414   1_554 S
C130   S184    1.791   .     S
C130   N153    1.386   .     A
C130   C690    1.415   .     S
C131   N153    1.386   .     A
C131   S185    1.788   .     S
C131   C687    1.414   .     S
C132   N154    1.387   .     A
C132   S186    1.792   .     S
C132   C1246   1.415   1_554 S
C133   O175    1.302   .     A
C133   O166    1.303   .     A
C134   O178    1.317   .     A
C134   O176    1.300   .     A
C134   C136    1.459   .     S
C135   C137    1.460   .     S
C135   O179    1.317   .     A
C135   O177    1.300   .     A
C137   C12     1.398   1_655 S
C137   S58     1.818   1_655 S
C138   H143    1.084   .     S
C138   C512    1.385   1_545 S
C139   H145    1.084   .     S
C139   C312    1.385   .     S
C140   H146    1.084   .     S
C140   C324    1.385   .     S
Cu141  N153    2.052   .     S
Cu141  O179    2.007   .     S
Cu141  O175    1.936   .     S
Cu141  Cu142   2.730   .     S
Cu141  O176    2.000   .     S
Cu141  O155    1.940   .     S
Cu142  N154    2.052   .     S
Cu142  O166    1.940   .     S
Cu142  O178    2.007   .     S
Cu142  O174    1.936   .     S
Cu142  O177    2.000   .     S
H144   O173    0.991   .     S
H148   O157    0.990   .     S
H149   O160    0.990   .     S
H150   O163    0.990   .     S
H151   O167    0.991   .     S
H152   O170    0.990   .     S
O156   S181    1.503   .     D
O158   S182    1.504   .     D
O159   S182    1.504   .     D
O160   S58     1.681   1_655 S
O161   S183    1.498   .     D
O162   S741    1.502   .     S
O163   S183    1.679   .     S
O164   S184    1.498   .     D
O165   S184    1.501   .     D
O167   S1300   1.680   1_554 S
O168   S185    1.498   .     D
O169   S1301   1.505   1_554 S
O170   S185    1.681   .     S
O171   S186    1.501   .     D
O172   S744    1.504   .     S
O173   S186    1.677   .     S
O180   S181    1.504   .     D
S181   O33     1.682   1_655 S
S181   C12     1.818   1_655 S
S183   O1278   1.502   1_554 S
S184   O725    1.680   .     S
S185   O727    1.505   .     S
S186   O1288   1.504   1_554 S
C187   O236    1.302   .     A
C187   O217    1.303   .     A
C187   C190    1.432   .     S
C188   C190    1.397   .     A
C188   H209    1.084   .     S
C189   C195    1.431   .     S
C189   C201    1.397   .     A
C189   C202    1.397   .     A
C190   C200    1.397   .     A
C191   N216    1.385   .     A
C191   S245    1.790   .     S
C191   C1309   1.414   1_554 S
C192   S246    1.791   .     S
C192   N215    1.386   .     A
C192   C752    1.415   .     S
C193   N215    1.386   .     A
C193   S247    1.788   .     S
C193   C749    1.414   .     S
C194   N216    1.387   .     A
C194   S248    1.792   .     S
C194   C1308   1.415   1_554 S
C195   O237    1.302   .     A
C195   O228    1.303   .     A
C196   O240    1.317   .     A
C196   O238    1.300   .     A
C196   C198    1.459   .     S
C197   C199    1.460   .     S
C197   O241    1.317   .     A
C197   O239    1.300   .     A
C198   C323    1.398   1_455 S
C198   S367    1.818   1_455 S
C199   C260    1.398   .     S
C199   S306    1.818   .     S
C200   H205    1.084   .     S
C201   H207    1.084   .     S
C201   C374    1.385   .     S
C202   H208    1.084   .     S
C202   C386    1.385   .     S
Cu203  N215    2.052   .     S
Cu203  O241    2.007   .     S
Cu203  O237    1.936   .     S
Cu203  Cu204   2.730   .     S
Cu203  O238    2.000   .     S
Cu203  O217    1.940   .     S
Cu204  N216    2.052   .     S
Cu204  O228    1.940   .     S
Cu204  O240    2.007   .     S
Cu204  O236    1.936   .     S
Cu204  O239    2.000   .     S
H206   O235    0.991   .     S
H210   O219    0.990   .     S
H211   O222    0.990   .     S
H212   O225    0.990   .     S
H213   O229    0.991   .     S
H214   O232    0.990   .     S
O218   S243    1.503   .     D
O219   S367    1.682   1_455 S
O220   S244    1.504   .     D
O221   S244    1.504   .     D
O222   S306    1.681   .     S
O223   S245    1.498   .     D
O224   S803    1.502   .     S
O225   S245    1.679   .     S
O226   S246    1.498   .     D
O227   S246    1.501   .     D
O229   S1362   1.680   1_554 S
O230   S247    1.498   .     D
O231   S1363   1.505   1_554 S
O232   S247    1.681   .     S
O233   S248    1.501   .     D
O234   S806    1.504   .     S
O235   S248    1.677   .     S
O242   S243    1.504   .     D
S243   O281    1.682   .     S
S243   C260    1.818   .     S
S244   C323    1.818   1_455 S
S244   O346    1.681   1_455 S
S245   O1340   1.502   1_554 S
S246   O787    1.680   .     S
S247   O789    1.505   .     S
S248   O1350   1.504   1_554 S
C249   O298    1.302   .     A
C249   O279    1.303   .     A
C249   C252    1.432   .     S
C250   C252    1.397   .     A
C250   H271    1.084   .     S
C251   C257    1.431   .     S
C251   C263    1.397   .     A
C251   C264    1.397   .     A
C252   C262    1.397   .     A
C253   N278    1.385   .     A
C253   S307    1.790   .     S
C253   C1371   1.414   1_554 S
C254   S308    1.791   .     S
C254   N277    1.386   .     A
C254   C814    1.415   .     S
C255   N277    1.386   .     A
C255   S309    1.788   .     S
C255   C811    1.414   .     S
C256   N278    1.387   .     A
C256   S310    1.792   .     S
C256   C1370   1.415   1_554 S
C257   O299    1.302   .     A
C257   O290    1.303   .     A
C258   O302    1.317   .     A
C258   O300    1.300   .     A
C258   C260    1.459   .     S
C259   C261    1.460   .     S
C259   O303    1.317   .     A
C259   O301    1.300   .     A
C261   C322    1.398   .     S
C261   S368    1.818   .     S
C262   H267    1.084   .     S
C263   H269    1.084   .     S
C263   C436    1.385   .     S
C264   H270    1.084   .     S
C264   C448    1.385   .     S
Cu265  N277    2.052   .     S
Cu265  O303    2.007   .     S
Cu265  O299    1.936   .     S
Cu265  Cu266   2.730   .     S
Cu265  O300    2.000   .     S
Cu265  O279    1.940   .     S
Cu266  N278    2.052   .     S
Cu266  O290    1.940   .     S
Cu266  O302    2.007   .     S
Cu266  O298    1.936   .     S
Cu266  O301    2.000   .     S
H268   O297    0.991   .     S
H272   O281    0.990   .     S
H273   O284    0.990   .     S
H274   O287    0.990   .     S
H275   O291    0.991   .     S
H276   O294    0.990   .     S
O280   S305    1.503   .     D
O282   S306    1.504   .     D
O283   S306    1.504   .     D
O284   S368    1.681   .     S
O285   S307    1.498   .     D
O286   S865    1.502   .     S
O287   S307    1.679   .     S
O288   S308    1.498   .     D
O289   S308    1.501   .     D
O291   S1424   1.680   1_554 S
O292   S309    1.498   .     D
O293   S1425   1.505   1_554 S
O294   S309    1.681   .     S
O295   S310    1.501   .     D
O296   S868    1.504   .     S
O297   S310    1.677   .     S
O304   S305    1.504   .     D
S305   O343    1.682   .     S
S305   C322    1.818   .     S
S307   O1402   1.502   1_554 S
S308   O849    1.680   .     S
S309   O851    1.505   .     S
S310   O1412   1.504   1_554 S
C311   O360    1.302   .     A
C311   O341    1.303   .     A
C311   C314    1.432   .     S
C312   C314    1.397   .     A
C312   H333    1.084   .     S
C313   C319    1.431   .     S
C313   C325    1.397   .     A
C313   C326    1.397   .     A
C314   C324    1.397   .     A
C315   N340    1.385   .     A
C315   S369    1.790   .     S
C315   C1433   1.414   1_554 S
C316   S370    1.791   .     S
C316   N339    1.386   .     A
C316   C876    1.415   .     S
C317   N339    1.386   .     A
C317   S371    1.788   .     S
C317   C873    1.414   .     S
C318   N340    1.387   .     A
C318   S372    1.792   .     S
C318   C1432   1.415   1_554 S
C319   O361    1.302   .     A
C319   O352    1.303   .     A
C320   O364    1.317   .     A
C320   O362    1.300   .     A
C320   C322    1.459   .     S
C321   C323    1.460   .     S
C321   O365    1.317   .     A
C321   O363    1.300   .     A
C323   C198    1.398   1_655 S
C323   S244    1.818   1_655 S
C324   H329    1.084   .     S
C325   H331    1.084   .     S
C325   C498    1.385   .     S
C326   H332    1.084   .     S
C326   C510    1.385   .     S
Cu327  N339    2.052   .     S
Cu327  O365    2.007   .     S
Cu327  O361    1.936   .     S
Cu327  Cu328   2.730   .     S
Cu327  O362    2.000   .     S
Cu327  O341    1.940   .     S
Cu328  N340    2.052   .     S
Cu328  O352    1.940   .     S
Cu328  O364    2.007   .     S
Cu328  O360    1.936   .     S
Cu328  O363    2.000   .     S
H330   O359    0.991   .     S
H334   O343    0.990   .     S
H335   O346    0.990   .     S
H336   O349    0.990   .     S
H337   O353    0.991   .     S
H338   O356    0.990   .     S
O342   S367    1.503   .     D
O344   S368    1.504   .     D
O345   S368    1.504   .     D
O346   S244    1.681   1_655 S
O347   S369    1.498   .     D
O348   S927    1.502   .     S
O349   S369    1.679   .     S
O350   S370    1.498   .     D
O351   S370    1.501   .     D
O353   S1486   1.680   1_554 S
O354   S371    1.498   .     D
O355   S1487   1.505   1_554 S
O356   S371    1.681   .     S
O357   S372    1.501   .     D
O358   S930    1.504   .     S
O359   S372    1.677   .     S
O366   S367    1.504   .     D
S367   O219    1.682   1_655 S
S367   C198    1.818   1_655 S
S369   O1464   1.502   1_554 S
S370   O911    1.680   .     S
S371   O913    1.505   .     S
S372   O1474   1.504   1_554 S
C373   O422    1.302   .     A
C373   O403    1.303   .     A
C373   C376    1.432   .     S
C374   C376    1.397   .     A
C374   H395    1.084   .     S
C375   C381    1.431   .     S
C375   C387    1.397   .     A
C375   C388    1.397   .     A
C376   C386    1.397   .     A
C377   N402    1.385   .     A
C377   S431    1.790   .     S
C377   C1495   1.414   1_554 S
C378   S432    1.791   .     S
C378   N401    1.386   .     A
C378   C938    1.415   .     S
C379   N401    1.386   .     A
C379   S433    1.788   .     S
C379   C935    1.414   .     S
C380   N402    1.387   .     A
C380   S434    1.792   .     S
C380   C1494   1.415   1_554 S
C381   O423    1.302   .     A
C381   O414    1.303   .     A
C382   O426    1.317   .     A
C382   O424    1.300   .     A
C382   C384    1.459   .     S
C383   C385    1.460   .     S
C383   O427    1.317   .     A
C383   O425    1.300   .     A
C384   C509    1.398   1_455 S
C384   S553    1.818   1_455 S
C385   C446    1.398   .     S
C385   S492    1.818   .     S
C386   H391    1.084   .     S
C387   H393    1.084   .     S
C387   C2      1.385   1_565 S
C388   H394    1.084   .     S
C388   C14     1.385   1_565 S
Cu389  N401    2.052   .     S
Cu389  O427    2.007   .     S
Cu389  O423    1.936   .     S
Cu389  Cu390   2.730   .     S
Cu389  O424    2.000   .     S
Cu389  O403    1.940   .     S
Cu390  N402    2.052   .     S
Cu390  O414    1.940   .     S
Cu390  O426    2.007   .     S
Cu390  O422    1.936   .     S
Cu390  O425    2.000   .     S
H392   O421    0.991   .     S
H396   O405    0.990   .     S
H397   O408    0.990   .     S
H398   O411    0.990   .     S
H399   O415    0.991   .     S
H400   O418    0.990   .     S
O404   S429    1.503   .     D
O405   S553    1.682   1_455 S
O406   S430    1.504   .     D
O407   S430    1.504   .     D
O408   S492    1.681   .     S
O409   S431    1.498   .     D
O410   S989    1.502   .     S
O411   S431    1.679   .     S
O412   S432    1.498   .     D
O413   S432    1.501   .     D
O415   S1548   1.680   1_554 S
O416   S433    1.498   .     D
O417   S1549   1.505   1_554 S
O418   S433    1.681   .     S
O419   S434    1.501   .     D
O420   S992    1.504   .     S
O421   S434    1.677   .     S
O428   S429    1.504   .     D
S429   O467    1.682   .     S
S429   C446    1.818   .     S
S430   C509    1.818   1_455 S
S430   O532    1.681   1_455 S
S431   O1526   1.502   1_554 S
S432   O973    1.680   .     S
S433   O975    1.505   .     S
S434   O1536   1.504   1_554 S
C435   O484    1.302   .     A
C435   O465    1.303   .     A
C435   C438    1.432   .     S
C436   C438    1.397   .     A
C436   H457    1.084   .     S
C437   C443    1.431   .     S
C437   C449    1.397   .     A
C437   C450    1.397   .     A
C438   C448    1.397   .     A
C439   N464    1.385   .     A
C439   S493    1.790   .     S
C439   C1557   1.414   1_554 S
C440   S494    1.791   .     S
C440   N463    1.386   .     A
C440   C1000   1.415   .     S
C441   N463    1.386   .     A
C441   S495    1.788   .     S
C441   C997    1.414   .     S
C442   N464    1.387   .     A
C442   S496    1.792   .     S
C442   C1556   1.415   1_554 S
C443   O485    1.302   .     A
C443   O476    1.303   .     A
C444   O488    1.317   .     A
C444   O486    1.300   .     A
C444   C446    1.459   .     S
C445   C447    1.460   .     S
C445   O489    1.317   .     A
C445   O487    1.300   .     A
C447   C508    1.398   .     S
C447   S554    1.818   .     S
C448   H453    1.084   .     S
C449   H455    1.084   .     S
C449   C64     1.385   1_565 S
C450   H456    1.084   .     S
C450   C76     1.385   1_565 S
Cu451  N463    2.052   .     S
Cu451  O489    2.007   .     S
Cu451  O485    1.936   .     S
Cu451  Cu452   2.730   .     S
Cu451  O486    2.000   .     S
Cu451  O465    1.940   .     S
Cu452  N464    2.052   .     S
Cu452  O476    1.940   .     S
Cu452  O488    2.007   .     S
Cu452  O484    1.936   .     S
Cu452  O487    2.000   .     S
H454   O483    0.991   .     S
H458   O467    0.990   .     S
H459   O470    0.990   .     S
H460   O473    0.990   .     S
H461   O477    0.991   .     S
H462   O480    0.990   .     S
O466   S491    1.503   .     D
O468   S492    1.504   .     D
O469   S492    1.504   .     D
O470   S554    1.681   .     S
O471   S493    1.498   .     D
O472   S1051   1.502   .     S
O473   S493    1.679   .     S
O474   S494    1.498   .     D
O475   S494    1.501   .     D
O477   S1610   1.680   1_554 S
O478   S495    1.498   .     D
O479   S1611   1.505   1_554 S
O480   S495    1.681   .     S
O481   S496    1.501   .     D
O482   S1054   1.504   .     S
O483   S496    1.677   .     S
O490   S491    1.504   .     D
S491   O529    1.682   .     S
S491   C508    1.818   .     S
S493   O1588   1.502   1_554 S
S494   O1035   1.680   .     S
S495   O1037   1.505   .     S
S496   O1598   1.504   1_554 S
C497   O546    1.302   .     A
C497   O527    1.303   .     A
C497   C500    1.432   .     S
C498   C500    1.397   .     A
C498   H519    1.084   .     S
C499   C505    1.431   .     S
C499   C511    1.397   .     A
C499   C512    1.397   .     A
C500   C510    1.397   .     A
C501   N526    1.385   .     A
C501   S555    1.790   .     S
C501   C1619   1.414   1_554 S
C502   S556    1.791   .     S
C502   N525    1.386   .     A
C502   C1062   1.415   .     S
C503   N525    1.386   .     A
C503   S557    1.788   .     S
C503   C1059   1.414   .     S
C504   N526    1.387   .     A
C504   S558    1.792   .     S
C504   C1618   1.415   1_554 S
C505   O547    1.302   .     A
C505   O538    1.303   .     A
C506   O550    1.317   .     A
C506   O548    1.300   .     A
C506   C508    1.459   .     S
C507   C509    1.460   .     S
C507   O551    1.317   .     A
C507   O549    1.300   .     A
C509   C384    1.398   1_655 S
C509   S430    1.818   1_655 S
C510   H515    1.084   .     S
C511   H517    1.084   .     S
C511   C126    1.385   1_565 S
C512   H518    1.084   .     S
C512   C138    1.385   1_565 S
Cu513  N525    2.052   .     S
Cu513  O551    2.007   .     S
Cu513  O547    1.936   .     S
Cu513  Cu514   2.730   .     S
Cu513  O548    2.000   .     S
Cu513  O527    1.940   .     S
Cu514  N526    2.052   .     S
Cu514  O538    1.940   .     S
Cu514  O550    2.007   .     S
Cu514  O546    1.936   .     S
Cu514  O549    2.000   .     S
H516   O545    0.991   .     S
H520   O529    0.990   .     S
H521   O532    0.990   .     S
H522   O535    0.990   .     S
H523   O539    0.991   .     S
H524   O542    0.990   .     S
O528   S553    1.503   .     D
O530   S554    1.504   .     D
O531   S554    1.504   .     D
O532   S430    1.681   1_655 S
O533   S555    1.498   .     D
O534   S1113   1.502   .     S
O535   S555    1.679   .     S
O536   S556    1.498   .     D
O537   S556    1.501   .     D
O539   S1672   1.680   1_554 S
O540   S557    1.498   .     D
O541   S1673   1.505   1_554 S
O542   S557    1.681   .     S
O543   S558    1.501   .     D
O544   S1116   1.504   .     S
O545   S558    1.677   .     S
O552   S553    1.504   .     D
S553   O405    1.682   1_655 S
S553   C384    1.818   1_655 S
S555   O1650   1.502   1_554 S
S556   O1097   1.680   .     S
S557   O1099   1.505   .     S
S558   O1660   1.504   1_554 S
C559   O608    1.302   .     A
C559   O589    1.303   .     A
C559   C562    1.432   .     S
C560   C562    1.397   .     A
C560   H581    1.084   .     S
C560   C945    1.385   1_545 S
C561   C567    1.431   .     S
C561   C573    1.397   .     A
C561   C574    1.397   .     A
C562   C572    1.397   .     A
C563   N588    1.385   .     A
C563   S617    1.790   .     S
C564   S618    1.791   .     S
C564   N587    1.386   .     A
C564   C1124   1.415   .     S
C565   N587    1.386   .     A
C565   S619    1.788   .     S
C565   C1121   1.414   .     S
C566   N588    1.387   .     A
C566   S620    1.792   .     S
C567   O609    1.302   .     A
C567   O600    1.303   .     A
C568   O612    1.317   .     A
C568   O610    1.300   .     A
C568   C570    1.459   .     S
C569   C571    1.460   .     S
C569   O613    1.317   .     A
C569   O611    1.300   .     A
C570   C695    1.398   1_455 S
C570   S739    1.818   1_455 S
C571   C632    1.398   .     S
C571   S678    1.818   .     S
C572   H577    1.084   .     S
C572   C946    1.385   1_545 S
C573   H579    1.084   .     S
C573   C746    1.385   .     S
C574   H580    1.084   .     S
C574   C758    1.385   .     S
Cu575  N587    2.052   .     S
Cu575  O613    2.007   .     S
Cu575  O609    1.936   .     S
Cu575  Cu576   2.730   .     S
Cu575  O610    2.000   .     S
Cu575  O589    1.940   .     S
Cu576  N588    2.052   .     S
Cu576  O600    1.940   .     S
Cu576  O612    2.007   .     S
Cu576  O608    1.936   .     S
Cu576  O611    2.000   .     S
H578   O607    0.991   .     S
H582   O591    0.990   .     S
H583   O594    0.990   .     S
H584   O597    0.990   .     S
H585   O601    0.991   .     S
H586   O604    0.990   .     S
O590   S615    1.503   .     D
O591   S739    1.682   1_455 S
O592   S616    1.504   .     D
O593   S616    1.504   .     D
O594   S678    1.681   .     S
O595   S617    1.498   .     D
O596   S1175   1.502   .     S
O597   S617    1.679   .     S
O598   S618    1.498   .     D
O599   S618    1.501   .     D
O602   S619    1.498   .     D
O604   S619    1.681   .     S
O605   S620    1.501   .     D
O606   S1178   1.504   .     S
O607   S620    1.677   .     S
O614   S615    1.504   .     D
S615   O653    1.682   .     S
S615   C632    1.818   .     S
S616   C695    1.818   1_455 S
S616   O718    1.681   1_455 S
S618   O1159   1.680   .     S
S619   O1161   1.505   .     S
C621   O670    1.302   .     A
C621   O651    1.303   .     A
C621   C624    1.432   .     S
C622   C624    1.397   .     A
C622   H643    1.084   .     S
C622   C1007   1.385   1_545 S
C623   C629    1.431   .     S
C623   C635    1.397   .     A
C623   C636    1.397   .     A
C624   C634    1.397   .     A
C625   N650    1.385   .     A
C625   S679    1.790   .     S
C626   S680    1.791   .     S
C626   N649    1.386   .     A
C626   C1186   1.415   .     S
C627   N649    1.386   .     A
C627   S681    1.788   .     S
C627   C1183   1.414   .     S
C628   N650    1.387   .     A
C628   S682    1.792   .     S
C629   O671    1.302   .     A
C629   O662    1.303   .     A
C630   O674    1.317   .     A
C630   O672    1.300   .     A
C630   C632    1.459   .     S
C631   C633    1.460   .     S
C631   O675    1.317   .     A
C631   O673    1.300   .     A
C633   C694    1.398   .     S
C633   S740    1.818   .     S
C634   H639    1.084   .     S
C634   C1008   1.385   1_545 S
C635   H641    1.084   .     S
C635   C808    1.385   .     S
C636   H642    1.084   .     S
C636   C820    1.385   .     S
Cu637  N649    2.052   .     S
Cu637  O675    2.007   .     S
Cu637  O671    1.936   .     S
Cu637  Cu638   2.730   .     S
Cu637  O672    2.000   .     S
Cu637  O651    1.940   .     S
Cu638  N650    2.052   .     S
Cu638  O662    1.940   .     S
Cu638  O674    2.007   .     S
Cu638  O670    1.936   .     S
Cu638  O673    2.000   .     S
H640   O669    0.991   .     S
H644   O653    0.990   .     S
H645   O656    0.990   .     S
H646   O659    0.990   .     S
H647   O663    0.991   .     S
H648   O666    0.990   .     S
O652   S677    1.503   .     D
O654   S678    1.504   .     D
O655   S678    1.504   .     D
O656   S740    1.681   .     S
O657   S679    1.498   .     D
O658   S1237   1.502   .     S
O659   S679    1.679   .     S
O660   S680    1.498   .     D
O661   S680    1.501   .     D
O664   S681    1.498   .     D
O666   S681    1.681   .     S
O667   S682    1.501   .     D
O668   S1240   1.504   .     S
O669   S682    1.677   .     S
O676   S677    1.504   .     D
S677   O715    1.682   .     S
S677   C694    1.818   .     S
S680   O1221   1.680   .     S
S681   O1223   1.505   .     S
C683   O732    1.302   .     A
C683   O713    1.303   .     A
C683   C686    1.432   .     S
C684   C686    1.397   .     A
C684   H705    1.084   .     S
C684   C1069   1.385   1_545 S
C685   C691    1.431   .     S
C685   C697    1.397   .     A
C685   C698    1.397   .     A
C686   C696    1.397   .     A
C687   N712    1.385   .     A
C687   S741    1.790   .     S
C688   S742    1.791   .     S
C688   N711    1.386   .     A
C688   C1248   1.415   .     S
C689   N711    1.386   .     A
C689   S743    1.788   .     S
C689   C1245   1.414   .     S
C690   N712    1.387   .     A
C690   S744    1.792   .     S
C691   O733    1.302   .     A
C691   O724    1.303   .     A
C692   O736    1.317   .     A
C692   O734    1.300   .     A
C692   C694    1.459   .     S
C693   C695    1.460   .     S
C693   O737    1.317   .     A
C693   O735    1.300   .     A
C695   C570    1.398   1_655 S
C695   S616    1.818   1_655 S
C696   H701    1.084   .     S
C696   C1070   1.385   1_545 S
C697   H703    1.084   .     S
C697   C870    1.385   .     S
C698   H704    1.084   .     S
C698   C882    1.385   .     S
Cu699  N711    2.052   .     S
Cu699  O737    2.007   .     S
Cu699  O733    1.936   .     S
Cu699  Cu700   2.730   .     S
Cu699  O734    2.000   .     S
Cu699  O713    1.940   .     S
Cu700  N712    2.052   .     S
Cu700  O724    1.940   .     S
Cu700  O736    2.007   .     S
Cu700  O732    1.936   .     S
Cu700  O735    2.000   .     S
H702   O731    0.991   .     S
H706   O715    0.990   .     S
H707   O718    0.990   .     S
H708   O721    0.990   .     S
H709   O725    0.991   .     S
H710   O728    0.990   .     S
O714   S739    1.503   .     D
O716   S740    1.504   .     D
O717   S740    1.504   .     D
O718   S616    1.681   1_655 S
O719   S741    1.498   .     D
O720   S1299   1.502   .     S
O721   S741    1.679   .     S
O722   S742    1.498   .     D
O723   S742    1.501   .     D
O726   S743    1.498   .     D
O728   S743    1.681   .     S
O729   S744    1.501   .     D
O730   S1302   1.504   .     S
O731   S744    1.677   .     S
O738   S739    1.504   .     D
S739   O591    1.682   1_655 S
S739   C570    1.818   1_655 S
S742   O1283   1.680   .     S
S743   O1285   1.505   .     S
C745   O794    1.302   .     A
C745   O775    1.303   .     A
C745   C748    1.432   .     S
C746   C748    1.397   .     A
C746   H767    1.084   .     S
C747   C753    1.431   .     S
C747   C759    1.397   .     A
C747   C760    1.397   .     A
C748   C758    1.397   .     A
C749   N774    1.385   .     A
C749   S803    1.790   .     S
C750   S804    1.791   .     S
C750   N773    1.386   .     A
C750   C1310   1.415   .     S
C751   N773    1.386   .     A
C751   S805    1.788   .     S
C751   C1307   1.414   .     S
C752   N774    1.387   .     A
C752   S806    1.792   .     S
C753   O795    1.302   .     A
C753   O786    1.303   .     A
C754   O798    1.317   .     A
C754   O796    1.300   .     A
C754   C756    1.459   .     S
C755   C757    1.460   .     S
C755   O799    1.317   .     A
C755   O797    1.300   .     A
C756   C881    1.398   1_455 S
C756   S925    1.818   1_455 S
C757   C818    1.398   .     S
C757   S864    1.818   .     S
C758   H763    1.084   .     S
C759   H765    1.084   .     S
C759   C932    1.385   .     S
C760   H766    1.084   .     S
C760   C944    1.385   .     S
Cu761  N773    2.052   .     S
Cu761  O799    2.007   .     S
Cu761  O795    1.936   .     S
Cu761  Cu762   2.730   .     S
Cu761  O796    2.000   .     S
Cu761  O775    1.940   .     S
Cu762  N774    2.052   .     S
Cu762  O786    1.940   .     S
Cu762  O798    2.007   .     S
Cu762  O794    1.936   .     S
Cu762  O797    2.000   .     S
H764   O793    0.991   .     S
H768   O777    0.990   .     S
H769   O780    0.990   .     S
H770   O783    0.990   .     S
H771   O787    0.991   .     S
H772   O790    0.990   .     S
O776   S801    1.503   .     D
O777   S925    1.682   1_455 S
O778   S802    1.504   .     D
O779   S802    1.504   .     D
O780   S864    1.681   .     S
O781   S803    1.498   .     D
O782   S1361   1.502   .     S
O783   S803    1.679   .     S
O784   S804    1.498   .     D
O785   S804    1.501   .     D
O788   S805    1.498   .     D
O790   S805    1.681   .     S
O791   S806    1.501   .     D
O792   S1364   1.504   .     S
O793   S806    1.677   .     S
O800   S801    1.504   .     D
S801   O839    1.682   .     S
S801   C818    1.818   .     S
S802   C881    1.818   1_455 S
S802   O904    1.681   1_455 S
S804   O1345   1.680   .     S
S805   O1347   1.505   .     S
C807   O856    1.302   .     A
C807   O837    1.303   .     A
C807   C810    1.432   .     S
C808   C810    1.397   .     A
C808   H829    1.084   .     S
C809   C815    1.431   .     S
C809   C821    1.397   .     A
C809   C822    1.397   .     A
C810   C820    1.397   .     A
C811   N836    1.385   .     A
C811   S865    1.790   .     S
C812   S866    1.791   .     S
C812   N835    1.386   .     A
C812   C1372   1.415   .     S
C813   N835    1.386   .     A
C813   S867    1.788   .     S
C813   C1369   1.414   .     S
C814   N836    1.387   .     A
C814   S868    1.792   .     S
C815   O857    1.302   .     A
C815   O848    1.303   .     A
C816   O860    1.317   .     A
C816   O858    1.300   .     A
C816   C818    1.459   .     S
C817   C819    1.460   .     S
C817   O861    1.317   .     A
C817   O859    1.300   .     A
C819   C880    1.398   .     S
C819   S926    1.818   .     S
C820   H825    1.084   .     S
C821   H827    1.084   .     S
C821   C994    1.385   .     S
C822   H828    1.084   .     S
C822   C1006   1.385   .     S
Cu823  N835    2.052   .     S
Cu823  O861    2.007   .     S
Cu823  O857    1.936   .     S
Cu823  Cu824   2.730   .     S
Cu823  O858    2.000   .     S
Cu823  O837    1.940   .     S
Cu824  N836    2.052   .     S
Cu824  O848    1.940   .     S
Cu824  O860    2.007   .     S
Cu824  O856    1.936   .     S
Cu824  O859    2.000   .     S
H826   O855    0.991   .     S
H830   O839    0.990   .     S
H831   O842    0.990   .     S
H832   O845    0.990   .     S
H833   O849    0.991   .     S
H834   O852    0.990   .     S
O838   S863    1.503   .     D
O840   S864    1.504   .     D
O841   S864    1.504   .     D
O842   S926    1.681   .     S
O843   S865    1.498   .     D
O844   S1423   1.502   .     S
O845   S865    1.679   .     S
O846   S866    1.498   .     D
O847   S866    1.501   .     D
O850   S867    1.498   .     D
O852   S867    1.681   .     S
O853   S868    1.501   .     D
O854   S1426   1.504   .     S
O855   S868    1.677   .     S
O862   S863    1.504   .     D
S863   O901    1.682   .     S
S863   C880    1.818   .     S
S866   O1407   1.680   .     S
S867   O1409   1.505   .     S
C869   O918    1.302   .     A
C869   O899    1.303   .     A
C869   C872    1.432   .     S
C870   C872    1.397   .     A
C870   H891    1.084   .     S
C871   C877    1.431   .     S
C871   C883    1.397   .     A
C871   C884    1.397   .     A
C872   C882    1.397   .     A
C873   N898    1.385   .     A
C873   S927    1.790   .     S
C874   S928    1.791   .     S
C874   N897    1.386   .     A
C874   C1434   1.415   .     S
C875   N897    1.386   .     A
C875   S929    1.788   .     S
C875   C1431   1.414   .     S
C876   N898    1.387   .     A
C876   S930    1.792   .     S
C877   O919    1.302   .     A
C877   O910    1.303   .     A
C878   O922    1.317   .     A
C878   O920    1.300   .     A
C878   C880    1.459   .     S
C879   C881    1.460   .     S
C879   O923    1.317   .     A
C879   O921    1.300   .     A
C881   C756    1.398   1_655 S
C881   S802    1.818   1_655 S
C882   H887    1.084   .     S
C883   H889    1.084   .     S
C883   C1056   1.385   .     S
C884   H890    1.084   .     S
C884   C1068   1.385   .     S
Cu885  N897    2.052   .     S
Cu885  O923    2.007   .     S
Cu885  O919    1.936   .     S
Cu885  Cu886   2.730   .     S
Cu885  O920    2.000   .     S
Cu885  O899    1.940   .     S
Cu886  N898    2.052   .     S
Cu886  O910    1.940   .     S
Cu886  O922    2.007   .     S
Cu886  O918    1.936   .     S
Cu886  O921    2.000   .     S
H888   O917    0.991   .     S
H892   O901    0.990   .     S
H893   O904    0.990   .     S
H894   O907    0.990   .     S
H895   O911    0.991   .     S
H896   O914    0.990   .     S
O900   S925    1.503   .     D
O902   S926    1.504   .     D
O903   S926    1.504   .     D
O904   S802    1.681   1_655 S
O905   S927    1.498   .     D
O906   S1485   1.502   .     S
O907   S927    1.679   .     S
O908   S928    1.498   .     D
O909   S928    1.501   .     D
O912   S929    1.498   .     D
O914   S929    1.681   .     S
O915   S930    1.501   .     D
O916   S1488   1.504   .     S
O917   S930    1.677   .     S
O924   S925    1.504   .     D
S925   O777    1.682   1_655 S
S925   C756    1.818   1_655 S
S928   O1469   1.680   .     S
S929   O1471   1.505   .     S
C931   O980    1.302   .     A
C931   O961    1.303   .     A
C931   C934    1.432   .     S
C932   C934    1.397   .     A
C932   H953    1.084   .     S
C933   C939    1.431   .     S
C933   C945    1.397   .     A
C933   C946    1.397   .     A
C934   C944    1.397   .     A
C935   N960    1.385   .     A
C935   S989    1.790   .     S
C936   S990    1.791   .     S
C936   N959    1.386   .     A
C936   C1496   1.415   .     S
C937   N959    1.386   .     A
C937   S991    1.788   .     S
C937   C1493   1.414   .     S
C938   N960    1.387   .     A
C938   S992    1.792   .     S
C939   O981    1.302   .     A
C939   O972    1.303   .     A
C940   O984    1.317   .     A
C940   O982    1.300   .     A
C940   C942    1.459   .     S
C941   C943    1.460   .     S
C941   O985    1.317   .     A
C941   O983    1.300   .     A
C942   C1067   1.398   1_455 S
C942   S1111   1.818   1_455 S
C943   C1004   1.398   .     S
C943   S1050   1.818   .     S
C944   H949    1.084   .     S
C945   H951    1.084   .     S
C945   C560    1.385   1_565 S
C946   H952    1.084   .     S
C946   C572    1.385   1_565 S
Cu947  N959    2.052   .     S
Cu947  O985    2.007   .     S
Cu947  O981    1.936   .     S
Cu947  Cu948   2.730   .     S
Cu947  O982    2.000   .     S
Cu947  O961    1.940   .     S
Cu948  N960    2.052   .     S
Cu948  O972    1.940   .     S
Cu948  O984    2.007   .     S
Cu948  O980    1.936   .     S
Cu948  O983    2.000   .     S
H950   O979    0.991   .     S
H954   O963    0.990   .     S
H955   O966    0.990   .     S
H956   O969    0.990   .     S
H957   O973    0.991   .     S
H958   O976    0.990   .     S
O962   S987    1.503   .     D
O963   S1111   1.682   1_455 S
O964   S988    1.504   .     D
O965   S988    1.504   .     D
O966   S1050   1.681   .     S
O967   S989    1.498   .     D
O968   S1547   1.502   .     S
O969   S989    1.679   .     S
O970   S990    1.498   .     D
O971   S990    1.501   .     D
O974   S991    1.498   .     D
O976   S991    1.681   .     S
O977   S992    1.501   .     D
O978   S1550   1.504   .     S
O979   S992    1.677   .     S
O986   S987    1.504   .     D
S987   O1025   1.682   .     S
S987   C1004   1.818   .     S
S988   C1067   1.818   1_455 S
S988   O1090   1.681   1_455 S
S990   O1531   1.680   .     S
S991   O1533   1.505   .     S
C993   O1042   1.302   .     A
C993   O1023   1.303   .     A
C993   C996    1.432   .     S
C994   C996    1.397   .     A
C994   H1015   1.084   .     S
C995   C1001   1.431   .     S
C995   C1007   1.397   .     A
C995   C1008   1.397   .     A
C996   C1006   1.397   .     A
C997   N1022   1.385   .     A
C997   S1051   1.790   .     S
C998   S1052   1.791   .     S
C998   N1021   1.386   .     A
C998   C1558   1.415   .     S
C999   N1021   1.386   .     A
C999   S1053   1.788   .     S
C999   C1555   1.414   .     S
C1000  N1022   1.387   .     A
C1000  S1054   1.792   .     S
C1001  O1043   1.302   .     A
C1001  O1034   1.303   .     A
C1002  O1046   1.317   .     A
C1002  O1044   1.300   .     A
C1002  C1004   1.459   .     S
C1003  C1005   1.460   .     S
C1003  O1047   1.317   .     A
C1003  O1045   1.300   .     A
C1005  C1066   1.398   .     S
C1005  S1112   1.818   .     S
C1006  H1011   1.084   .     S
C1007  H1013   1.084   .     S
C1007  C622    1.385   1_565 S
C1008  H1014   1.084   .     S
C1008  C634    1.385   1_565 S
Cu1009 N1021   2.052   .     S
Cu1009 O1047   2.007   .     S
Cu1009 O1043   1.936   .     S
Cu1009 Cu1010  2.730   .     S
Cu1009 O1044   2.000   .     S
Cu1009 O1023   1.940   .     S
Cu1010 N1022   2.052   .     S
Cu1010 O1034   1.940   .     S
Cu1010 O1046   2.007   .     S
Cu1010 O1042   1.936   .     S
Cu1010 O1045   2.000   .     S
H1012  O1041   0.991   .     S
H1016  O1025   0.990   .     S
H1017  O1028   0.990   .     S
H1018  O1031   0.990   .     S
H1019  O1035   0.991   .     S
H1020  O1038   0.990   .     S
O1024  S1049   1.503   .     D
O1026  S1050   1.504   .     D
O1027  S1050   1.504   .     D
O1028  S1112   1.681   .     S
O1029  S1051   1.498   .     D
O1030  S1609   1.502   .     S
O1031  S1051   1.679   .     S
O1032  S1052   1.498   .     D
O1033  S1052   1.501   .     D
O1036  S1053   1.498   .     D
O1038  S1053   1.681   .     S
O1039  S1054   1.501   .     D
O1040  S1612   1.504   .     S
O1041  S1054   1.677   .     S
O1048  S1049   1.504   .     D
S1049  O1087   1.682   .     S
S1049  C1066   1.818   .     S
S1052  O1593   1.680   .     S
S1053  O1595   1.505   .     S
C1055  O1104   1.302   .     A
C1055  O1085   1.303   .     A
C1055  C1058   1.432   .     S
C1056  C1058   1.397   .     A
C1056  H1077   1.084   .     S
C1057  C1063   1.431   .     S
C1057  C1069   1.397   .     A
C1057  C1070   1.397   .     A
C1058  C1068   1.397   .     A
C1059  N1084   1.385   .     A
C1059  S1113   1.790   .     S
C1060  S1114   1.791   .     S
C1060  N1083   1.386   .     A
C1060  C1620   1.415   .     S
C1061  N1083   1.386   .     A
C1061  S1115   1.788   .     S
C1061  C1617   1.414   .     S
C1062  N1084   1.387   .     A
C1062  S1116   1.792   .     S
C1063  O1105   1.302   .     A
C1063  O1096   1.303   .     A
C1064  O1108   1.317   .     A
C1064  O1106   1.300   .     A
C1064  C1066   1.459   .     S
C1065  C1067   1.460   .     S
C1065  O1109   1.317   .     A
C1065  O1107   1.300   .     A
C1067  C942    1.398   1_655 S
C1067  S988    1.818   1_655 S
C1068  H1073   1.084   .     S
C1069  H1075   1.084   .     S
C1069  C684    1.385   1_565 S
C1070  H1076   1.084   .     S
C1070  C696    1.385   1_565 S
Cu1071 N1083   2.052   .     S
Cu1071 O1109   2.007   .     S
Cu1071 O1105   1.936   .     S
Cu1071 Cu1072  2.730   .     S
Cu1071 O1106   2.000   .     S
Cu1071 O1085   1.940   .     S
Cu1072 N1084   2.052   .     S
Cu1072 O1096   1.940   .     S
Cu1072 O1108   2.007   .     S
Cu1072 O1104   1.936   .     S
Cu1072 O1107   2.000   .     S
H1074  O1103   0.991   .     S
H1078  O1087   0.990   .     S
H1079  O1090   0.990   .     S
H1080  O1093   0.990   .     S
H1081  O1097   0.991   .     S
H1082  O1100   0.990   .     S
O1086  S1111   1.503   .     D
O1088  S1112   1.504   .     D
O1089  S1112   1.504   .     D
O1090  S988    1.681   1_655 S
O1091  S1113   1.498   .     D
O1092  S1671   1.502   .     S
O1093  S1113   1.679   .     S
O1094  S1114   1.498   .     D
O1095  S1114   1.501   .     D
O1098  S1115   1.498   .     D
O1100  S1115   1.681   .     S
O1101  S1116   1.501   .     D
O1102  S1674   1.504   .     S
O1103  S1116   1.677   .     S
O1110  S1111   1.504   .     D
S1111  O963    1.682   1_655 S
S1111  C942    1.818   1_655 S
S1114  O1655   1.680   .     S
S1115  O1657   1.505   .     S
C1117  O1166   1.302   .     A
C1117  O1147   1.303   .     A
C1117  C1120   1.432   .     S
C1118  C1120   1.397   .     A
C1118  H1139   1.084   .     S
C1118  C1503   1.385   1_545 S
C1119  C1125   1.431   .     S
C1119  C1131   1.397   .     A
C1119  C1132   1.397   .     A
C1120  C1130   1.397   .     A
C1121  N1146   1.385   .     A
C1121  S1175   1.790   .     S
C1122  S1176   1.791   .     S
C1122  N1145   1.386   .     A
C1122  C8      1.415   1_556 S
C1123  N1145   1.386   .     A
C1123  S1177   1.788   .     S
C1123  C5      1.414   1_556 S
C1124  N1146   1.387   .     A
C1124  S1178   1.792   .     S
C1125  O1167   1.302   .     A
C1125  O1158   1.303   .     A
C1126  O1170   1.317   .     A
C1126  O1168   1.300   .     A
C1126  C1128   1.459   .     S
C1127  C1129   1.460   .     S
C1127  O1171   1.317   .     A
C1127  O1169   1.300   .     A
C1128  C1253   1.398   1_455 S
C1128  S1297   1.818   1_455 S
C1129  C1190   1.398   .     S
C1129  S1236   1.818   .     S
C1130  H1135   1.084   .     S
C1130  C1504   1.385   1_545 S
C1131  H1137   1.084   .     S
C1131  C1304   1.385   .     S
C1132  H1138   1.084   .     S
C1132  C1316   1.385   .     S
Cu1133 N1145   2.052   .     S
Cu1133 O1171   2.007   .     S
Cu1133 O1167   1.936   .     S
Cu1133 Cu1134  2.730   .     S
Cu1133 O1168   2.000   .     S
Cu1133 O1147   1.940   .     S
Cu1134 N1146   2.052   .     S
Cu1134 O1158   1.940   .     S
Cu1134 O1170   2.007   .     S
Cu1134 O1166   1.936   .     S
Cu1134 O1169   2.000   .     S
H1136  O1165   0.991   .     S
H1140  O1149   0.990   .     S
H1141  O1152   0.990   .     S
H1142  O1155   0.990   .     S
H1143  O1159   0.991   .     S
H1144  O1162   0.990   .     S
O1148  S1173   1.503   .     D
O1149  S1297   1.682   1_455 S
O1150  S1174   1.504   .     D
O1151  S1174   1.504   .     D
O1152  S1236   1.681   .     S
O1153  S1175   1.498   .     D
O1154  S59     1.502   1_556 S
O1155  S1175   1.679   .     S
O1156  S1176   1.498   .     D
O1157  S1176   1.501   .     D
O1160  S1177   1.498   .     D
O1162  S1177   1.681   .     S
O1163  S1178   1.501   .     D
O1164  S62     1.504   1_556 S
O1165  S1178   1.677   .     S
O1172  S1173   1.504   .     D
S1173  O1211   1.682   .     S
S1173  C1190   1.818   .     S
S1174  C1253   1.818   1_455 S
S1174  O1276   1.681   1_455 S
S1176  O43     1.680   1_556 S
S1177  O45     1.505   1_556 S
C1179  O1228   1.302   .     A
C1179  O1209   1.303   .     A
C1179  C1182   1.432   .     S
C1180  C1182   1.397   .     A
C1180  H1201   1.084   .     S
C1180  C1565   1.385   1_545 S
C1181  C1187   1.431   .     S
C1181  C1193   1.397   .     A
C1181  C1194   1.397   .     A
C1182  C1192   1.397   .     A
C1183  N1208   1.385   .     A
C1183  S1237   1.790   .     S
C1184  S1238   1.791   .     S
C1184  N1207   1.386   .     A
C1184  C70     1.415   1_556 S
C1185  N1207   1.386   .     A
C1185  S1239   1.788   .     S
C1185  C67     1.414   1_556 S
C1186  N1208   1.387   .     A
C1186  S1240   1.792   .     S
C1187  O1229   1.302   .     A
C1187  O1220   1.303   .     A
C1188  O1232   1.317   .     A
C1188  O1230   1.300   .     A
C1188  C1190   1.459   .     S
C1189  C1191   1.460   .     S
C1189  O1233   1.317   .     A
C1189  O1231   1.300   .     A
C1191  C1252   1.398   .     S
C1191  S1298   1.818   .     S
C1192  H1197   1.084   .     S
C1192  C1566   1.385   1_545 S
C1193  H1199   1.084   .     S
C1193  C1366   1.385   .     S
C1194  H1200   1.084   .     S
C1194  C1378   1.385   .     S
Cu1195 N1207   2.052   .     S
Cu1195 O1233   2.007   .     S
Cu1195 O1229   1.936   .     S
Cu1195 Cu1196  2.730   .     S
Cu1195 O1230   2.000   .     S
Cu1195 O1209   1.940   .     S
Cu1196 N1208   2.052   .     S
Cu1196 O1220   1.940   .     S
Cu1196 O1232   2.007   .     S
Cu1196 O1228   1.936   .     S
Cu1196 O1231   2.000   .     S
H1198  O1227   0.991   .     S
H1202  O1211   0.990   .     S
H1203  O1214   0.990   .     S
H1204  O1217   0.990   .     S
H1205  O1221   0.991   .     S
H1206  O1224   0.990   .     S
O1210  S1235   1.503   .     D
O1212  S1236   1.504   .     D
O1213  S1236   1.504   .     D
O1214  S1298   1.681   .     S
O1215  S1237   1.498   .     D
O1216  S121    1.502   1_556 S
O1217  S1237   1.679   .     S
O1218  S1238   1.498   .     D
O1219  S1238   1.501   .     D
O1222  S1239   1.498   .     D
O1224  S1239   1.681   .     S
O1225  S1240   1.501   .     D
O1226  S124    1.504   1_556 S
O1227  S1240   1.677   .     S
O1234  S1235   1.504   .     D
S1235  O1273   1.682   .     S
S1235  C1252   1.818   .     S
S1238  O105    1.680   1_556 S
S1239  O107    1.505   1_556 S
C1241  O1290   1.302   .     A
C1241  O1271   1.303   .     A
C1241  C1244   1.432   .     S
C1242  C1244   1.397   .     A
C1242  H1263   1.084   .     S
C1242  C1627   1.385   1_545 S
C1243  C1249   1.431   .     S
C1243  C1255   1.397   .     A
C1243  C1256   1.397   .     A
C1244  C1254   1.397   .     A
C1245  N1270   1.385   .     A
C1245  S1299   1.790   .     S
C1246  S1300   1.791   .     S
C1246  N1269   1.386   .     A
C1246  C132    1.415   1_556 S
C1247  N1269   1.386   .     A
C1247  S1301   1.788   .     S
C1247  C129    1.414   1_556 S
C1248  N1270   1.387   .     A
C1248  S1302   1.792   .     S
C1249  O1291   1.302   .     A
C1249  O1282   1.303   .     A
C1250  O1294   1.317   .     A
C1250  O1292   1.300   .     A
C1250  C1252   1.459   .     S
C1251  C1253   1.460   .     S
C1251  O1295   1.317   .     A
C1251  O1293   1.300   .     A
C1253  C1128   1.398   1_655 S
C1253  S1174   1.818   1_655 S
C1254  H1259   1.084   .     S
C1254  C1628   1.385   1_545 S
C1255  H1261   1.084   .     S
C1255  C1428   1.385   .     S
C1256  H1262   1.084   .     S
C1256  C1440   1.385   .     S
Cu1257 N1269   2.052   .     S
Cu1257 O1295   2.007   .     S
Cu1257 O1291   1.936   .     S
Cu1257 Cu1258  2.730   .     S
Cu1257 O1292   2.000   .     S
Cu1257 O1271   1.940   .     S
Cu1258 N1270   2.052   .     S
Cu1258 O1282   1.940   .     S
Cu1258 O1294   2.007   .     S
Cu1258 O1290   1.936   .     S
Cu1258 O1293   2.000   .     S
H1260  O1289   0.991   .     S
H1264  O1273   0.990   .     S
H1265  O1276   0.990   .     S
H1266  O1279   0.990   .     S
H1267  O1283   0.991   .     S
H1268  O1286   0.990   .     S
O1272  S1297   1.503   .     D
O1274  S1298   1.504   .     D
O1275  S1298   1.504   .     D
O1276  S1174   1.681   1_655 S
O1277  S1299   1.498   .     D
O1278  S183    1.502   1_556 S
O1279  S1299   1.679   .     S
O1280  S1300   1.498   .     D
O1281  S1300   1.501   .     D
O1284  S1301   1.498   .     D
O1286  S1301   1.681   .     S
O1287  S1302   1.501   .     D
O1288  S186    1.504   1_556 S
O1289  S1302   1.677   .     S
O1296  S1297   1.504   .     D
S1297  O1149   1.682   1_655 S
S1297  C1128   1.818   1_655 S
S1300  O167    1.680   1_556 S
S1301  O169    1.505   1_556 S
C1303  O1352   1.302   .     A
C1303  O1333   1.303   .     A
C1303  C1306   1.432   .     S
C1304  C1306   1.397   .     A
C1304  H1325   1.084   .     S
C1305  C1311   1.431   .     S
C1305  C1317   1.397   .     A
C1305  C1318   1.397   .     A
C1306  C1316   1.397   .     A
C1307  N1332   1.385   .     A
C1307  S1361   1.790   .     S
C1308  S1362   1.791   .     S
C1308  N1331   1.386   .     A
C1308  C194    1.415   1_556 S
C1309  N1331   1.386   .     A
C1309  S1363   1.788   .     S
C1309  C191    1.414   1_556 S
C1310  N1332   1.387   .     A
C1310  S1364   1.792   .     S
C1311  O1353   1.302   .     A
C1311  O1344   1.303   .     A
C1312  O1356   1.317   .     A
C1312  O1354   1.300   .     A
C1312  C1314   1.459   .     S
C1313  C1315   1.460   .     S
C1313  O1357   1.317   .     A
C1313  O1355   1.300   .     A
C1314  C1439   1.398   1_455 S
C1314  S1483   1.818   1_455 S
C1315  C1376   1.398   .     S
C1315  S1422   1.818   .     S
C1316  H1321   1.084   .     S
C1317  H1323   1.084   .     S
C1317  C1490   1.385   .     S
C1318  H1324   1.084   .     S
C1318  C1502   1.385   .     S
Cu1319 N1331   2.052   .     S
Cu1319 O1357   2.007   .     S
Cu1319 O1353   1.936   .     S
Cu1319 Cu1320  2.730   .     S
Cu1319 O1354   2.000   .     S
Cu1319 O1333   1.940   .     S
Cu1320 N1332   2.052   .     S
Cu1320 O1344   1.940   .     S
Cu1320 O1356   2.007   .     S
Cu1320 O1352   1.936   .     S
Cu1320 O1355   2.000   .     S
H1322  O1351   0.991   .     S
H1326  O1335   0.990   .     S
H1327  O1338   0.990   .     S
H1328  O1341   0.990   .     S
H1329  O1345   0.991   .     S
H1330  O1348   0.990   .     S
O1334  S1359   1.503   .     D
O1335  S1483   1.682   1_455 S
O1336  S1360   1.504   .     D
O1337  S1360   1.504   .     D
O1338  S1422   1.681   .     S
O1339  S1361   1.498   .     D
O1340  S245    1.502   1_556 S
O1341  S1361   1.679   .     S
O1342  S1362   1.498   .     D
O1343  S1362   1.501   .     D
O1346  S1363   1.498   .     D
O1348  S1363   1.681   .     S
O1349  S1364   1.501   .     D
O1350  S248    1.504   1_556 S
O1351  S1364   1.677   .     S
O1358  S1359   1.504   .     D
S1359  O1397   1.682   .     S
S1359  C1376   1.818   .     S
S1360  C1439   1.818   1_455 S
S1360  O1462   1.681   1_455 S
S1362  O229    1.680   1_556 S
S1363  O231    1.505   1_556 S
C1365  O1414   1.302   .     A
C1365  O1395   1.303   .     A
C1365  C1368   1.432   .     S
C1366  C1368   1.397   .     A
C1366  H1387   1.084   .     S
C1367  C1373   1.431   .     S
C1367  C1379   1.397   .     A
C1367  C1380   1.397   .     A
C1368  C1378   1.397   .     A
C1369  N1394   1.385   .     A
C1369  S1423   1.790   .     S
C1370  S1424   1.791   .     S
C1370  N1393   1.386   .     A
C1370  C256    1.415   1_556 S
C1371  N1393   1.386   .     A
C1371  S1425   1.788   .     S
C1371  C253    1.414   1_556 S
C1372  N1394   1.387   .     A
C1372  S1426   1.792   .     S
C1373  O1415   1.302   .     A
C1373  O1406   1.303   .     A
C1374  O1418   1.317   .     A
C1374  O1416   1.300   .     A
C1374  C1376   1.459   .     S
C1375  C1377   1.460   .     S
C1375  O1419   1.317   .     A
C1375  O1417   1.300   .     A
C1377  C1438   1.398   .     S
C1377  S1484   1.818   .     S
C1378  H1383   1.084   .     S
C1379  H1385   1.084   .     S
C1379  C1552   1.385   .     S
C1380  H1386   1.084   .     S
C1380  C1564   1.385   .     S
Cu1381 N1393   2.052   .     S
Cu1381 O1419   2.007   .     S
Cu1381 O1415   1.936   .     S
Cu1381 Cu1382  2.730   .     S
Cu1381 O1416   2.000   .     S
Cu1381 O1395   1.940   .     S
Cu1382 N1394   2.052   .     S
Cu1382 O1406   1.940   .     S
Cu1382 O1418   2.007   .     S
Cu1382 O1414   1.936   .     S
Cu1382 O1417   2.000   .     S
H1384  O1413   0.991   .     S
H1388  O1397   0.990   .     S
H1389  O1400   0.990   .     S
H1390  O1403   0.990   .     S
H1391  O1407   0.991   .     S
H1392  O1410   0.990   .     S
O1396  S1421   1.503   .     D
O1398  S1422   1.504   .     D
O1399  S1422   1.504   .     D
O1400  S1484   1.681   .     S
O1401  S1423   1.498   .     D
O1402  S307    1.502   1_556 S
O1403  S1423   1.679   .     S
O1404  S1424   1.498   .     D
O1405  S1424   1.501   .     D
O1408  S1425   1.498   .     D
O1410  S1425   1.681   .     S
O1411  S1426   1.501   .     D
O1412  S310    1.504   1_556 S
O1413  S1426   1.677   .     S
O1420  S1421   1.504   .     D
S1421  O1459   1.682   .     S
S1421  C1438   1.818   .     S
S1424  O291    1.680   1_556 S
S1425  O293    1.505   1_556 S
C1427  O1476   1.302   .     A
C1427  O1457   1.303   .     A
C1427  C1430   1.432   .     S
C1428  C1430   1.397   .     A
C1428  H1449   1.084   .     S
C1429  C1435   1.431   .     S
C1429  C1441   1.397   .     A
C1429  C1442   1.397   .     A
C1430  C1440   1.397   .     A
C1431  N1456   1.385   .     A
C1431  S1485   1.790   .     S
C1432  S1486   1.791   .     S
C1432  N1455   1.386   .     A
C1432  C318    1.415   1_556 S
C1433  N1455   1.386   .     A
C1433  S1487   1.788   .     S
C1433  C315    1.414   1_556 S
C1434  N1456   1.387   .     A
C1434  S1488   1.792   .     S
C1435  O1477   1.302   .     A
C1435  O1468   1.303   .     A
C1436  O1480   1.317   .     A
C1436  O1478   1.300   .     A
C1436  C1438   1.459   .     S
C1437  C1439   1.460   .     S
C1437  O1481   1.317   .     A
C1437  O1479   1.300   .     A
C1439  C1314   1.398   1_655 S
C1439  S1360   1.818   1_655 S
C1440  H1445   1.084   .     S
C1441  H1447   1.084   .     S
C1441  C1614   1.385   .     S
C1442  H1448   1.084   .     S
C1442  C1626   1.385   .     S
Cu1443 N1455   2.052   .     S
Cu1443 O1481   2.007   .     S
Cu1443 O1477   1.936   .     S
Cu1443 Cu1444  2.730   .     S
Cu1443 O1478   2.000   .     S
Cu1443 O1457   1.940   .     S
Cu1444 N1456   2.052   .     S
Cu1444 O1468   1.940   .     S
Cu1444 O1480   2.007   .     S
Cu1444 O1476   1.936   .     S
Cu1444 O1479   2.000   .     S
H1446  O1475   0.991   .     S
H1450  O1459   0.990   .     S
H1451  O1462   0.990   .     S
H1452  O1465   0.990   .     S
H1453  O1469   0.991   .     S
H1454  O1472   0.990   .     S
O1458  S1483   1.503   .     D
O1460  S1484   1.504   .     D
O1461  S1484   1.504   .     D
O1462  S1360   1.681   1_655 S
O1463  S1485   1.498   .     D
O1464  S369    1.502   1_556 S
O1465  S1485   1.679   .     S
O1466  S1486   1.498   .     D
O1467  S1486   1.501   .     D
O1470  S1487   1.498   .     D
O1472  S1487   1.681   .     S
O1473  S1488   1.501   .     D
O1474  S372    1.504   1_556 S
O1475  S1488   1.677   .     S
O1482  S1483   1.504   .     D
S1483  O1335   1.682   1_655 S
S1483  C1314   1.818   1_655 S
S1486  O353    1.680   1_556 S
S1487  O355    1.505   1_556 S
C1489  O1538   1.302   .     A
C1489  O1519   1.303   .     A
C1489  C1492   1.432   .     S
C1490  C1492   1.397   .     A
C1490  H1511   1.084   .     S
C1491  C1497   1.431   .     S
C1491  C1503   1.397   .     A
C1491  C1504   1.397   .     A
C1492  C1502   1.397   .     A
C1493  N1518   1.385   .     A
C1493  S1547   1.790   .     S
C1494  S1548   1.791   .     S
C1494  N1517   1.386   .     A
C1494  C380    1.415   1_556 S
C1495  N1517   1.386   .     A
C1495  S1549   1.788   .     S
C1495  C377    1.414   1_556 S
C1496  N1518   1.387   .     A
C1496  S1550   1.792   .     S
C1497  O1539   1.302   .     A
C1497  O1530   1.303   .     A
C1498  O1542   1.317   .     A
C1498  O1540   1.300   .     A
C1498  C1500   1.459   .     S
C1499  C1501   1.460   .     S
C1499  O1543   1.317   .     A
C1499  O1541   1.300   .     A
C1500  C1625   1.398   1_455 S
C1500  S1669   1.818   1_455 S
C1501  C1562   1.398   .     S
C1501  S1608   1.818   .     S
C1502  H1507   1.084   .     S
C1503  H1509   1.084   .     S
C1503  C1118   1.385   1_565 S
C1504  H1510   1.084   .     S
C1504  C1130   1.385   1_565 S
Cu1505 N1517   2.052   .     S
Cu1505 O1543   2.007   .     S
Cu1505 O1539   1.936   .     S
Cu1505 Cu1506  2.730   .     S
Cu1505 O1540   2.000   .     S
Cu1505 O1519   1.940   .     S
Cu1506 N1518   2.052   .     S
Cu1506 O1530   1.940   .     S
Cu1506 O1542   2.007   .     S
Cu1506 O1538   1.936   .     S
Cu1506 O1541   2.000   .     S
H1508  O1537   0.991   .     S
H1512  O1521   0.990   .     S
H1513  O1524   0.990   .     S
H1514  O1527   0.990   .     S
H1515  O1531   0.991   .     S
H1516  O1534   0.990   .     S
O1520  S1545   1.503   .     D
O1521  S1669   1.682   1_455 S
O1522  S1546   1.504   .     D
O1523  S1546   1.504   .     D
O1524  S1608   1.681   .     S
O1525  S1547   1.498   .     D
O1526  S431    1.502   1_556 S
O1527  S1547   1.679   .     S
O1528  S1548   1.498   .     D
O1529  S1548   1.501   .     D
O1532  S1549   1.498   .     D
O1534  S1549   1.681   .     S
O1535  S1550   1.501   .     D
O1536  S434    1.504   1_556 S
O1537  S1550   1.677   .     S
O1544  S1545   1.504   .     D
S1545  O1583   1.682   .     S
S1545  C1562   1.818   .     S
S1546  C1625   1.818   1_455 S
S1546  O1648   1.681   1_455 S
S1548  O415    1.680   1_556 S
S1549  O417    1.505   1_556 S
C1551  O1600   1.302   .     A
C1551  O1581   1.303   .     A
C1551  C1554   1.432   .     S
C1552  C1554   1.397   .     A
C1552  H1573   1.084   .     S
C1553  C1559   1.431   .     S
C1553  C1565   1.397   .     A
C1553  C1566   1.397   .     A
C1554  C1564   1.397   .     A
C1555  N1580   1.385   .     A
C1555  S1609   1.790   .     S
C1556  S1610   1.791   .     S
C1556  N1579   1.386   .     A
C1556  C442    1.415   1_556 S
C1557  N1579   1.386   .     A
C1557  S1611   1.788   .     S
C1557  C439    1.414   1_556 S
C1558  N1580   1.387   .     A
C1558  S1612   1.792   .     S
C1559  O1601   1.302   .     A
C1559  O1592   1.303   .     A
C1560  O1604   1.317   .     A
C1560  O1602   1.300   .     A
C1560  C1562   1.459   .     S
C1561  C1563   1.460   .     S
C1561  O1605   1.317   .     A
C1561  O1603   1.300   .     A
C1563  C1624   1.398   .     S
C1563  S1670   1.818   .     S
C1564  H1569   1.084   .     S
C1565  H1571   1.084   .     S
C1565  C1180   1.385   1_565 S
C1566  H1572   1.084   .     S
C1566  C1192   1.385   1_565 S
Cu1567 N1579   2.052   .     S
Cu1567 O1605   2.007   .     S
Cu1567 O1601   1.936   .     S
Cu1567 Cu1568  2.730   .     S
Cu1567 O1602   2.000   .     S
Cu1567 O1581   1.940   .     S
Cu1568 N1580   2.052   .     S
Cu1568 O1592   1.940   .     S
Cu1568 O1604   2.007   .     S
Cu1568 O1600   1.936   .     S
Cu1568 O1603   2.000   .     S
H1570  O1599   0.991   .     S
H1574  O1583   0.990   .     S
H1575  O1586   0.990   .     S
H1576  O1589   0.990   .     S
H1577  O1593   0.991   .     S
H1578  O1596   0.990   .     S
O1582  S1607   1.503   .     D
O1584  S1608   1.504   .     D
O1585  S1608   1.504   .     D
O1586  S1670   1.681   .     S
O1587  S1609   1.498   .     D
O1588  S493    1.502   1_556 S
O1589  S1609   1.679   .     S
O1590  S1610   1.498   .     D
O1591  S1610   1.501   .     D
O1594  S1611   1.498   .     D
O1596  S1611   1.681   .     S
O1597  S1612   1.501   .     D
O1598  S496    1.504   1_556 S
O1599  S1612   1.677   .     S
O1606  S1607   1.504   .     D
S1607  O1645   1.682   .     S
S1607  C1624   1.818   .     S
S1610  O477    1.680   1_556 S
S1611  O479    1.505   1_556 S
C1613  O1662   1.302   .     A
C1613  O1643   1.303   .     A
C1613  C1616   1.432   .     S
C1614  C1616   1.397   .     A
C1614  H1635   1.084   .     S
C1615  C1621   1.431   .     S
C1615  C1627   1.397   .     A
C1615  C1628   1.397   .     A
C1616  C1626   1.397   .     A
C1617  N1642   1.385   .     A
C1617  S1671   1.790   .     S
C1618  S1672   1.791   .     S
C1618  N1641   1.386   .     A
C1618  C504    1.415   1_556 S
C1619  N1641   1.386   .     A
C1619  S1673   1.788   .     S
C1619  C501    1.414   1_556 S
C1620  N1642   1.387   .     A
C1620  S1674   1.792   .     S
C1621  O1663   1.302   .     A
C1621  O1654   1.303   .     A
C1622  O1666   1.317   .     A
C1622  O1664   1.300   .     A
C1622  C1624   1.459   .     S
C1623  C1625   1.460   .     S
C1623  O1667   1.317   .     A
C1623  O1665   1.300   .     A
C1625  C1500   1.398   1_655 S
C1625  S1546   1.818   1_655 S
C1626  H1631   1.084   .     S
C1627  H1633   1.084   .     S
C1627  C1242   1.385   1_565 S
C1628  H1634   1.084   .     S
C1628  C1254   1.385   1_565 S
Cu1629 N1641   2.052   .     S
Cu1629 O1667   2.007   .     S
Cu1629 O1663   1.936   .     S
Cu1629 Cu1630  2.730   .     S
Cu1629 O1664   2.000   .     S
Cu1629 O1643   1.940   .     S
Cu1630 N1642   2.052   .     S
Cu1630 O1654   1.940   .     S
Cu1630 O1666   2.007   .     S
Cu1630 O1662   1.936   .     S
Cu1630 O1665   2.000   .     S
H1632  O1661   0.991   .     S
H1636  O1645   0.990   .     S
H1637  O1648   0.990   .     S
H1638  O1651   0.990   .     S
H1639  O1655   0.991   .     S
H1640  O1658   0.990   .     S
O1644  S1669   1.503   .     D
O1646  S1670   1.504   .     D
O1647  S1670   1.504   .     D
O1648  S1546   1.681   1_655 S
O1649  S1671   1.498   .     D
O1650  S555    1.502   1_556 S
O1651  S1671   1.679   .     S
O1652  S1672   1.498   .     D
O1653  S1672   1.501   .     D
O1656  S1673   1.498   .     D
O1658  S1673   1.681   .     S
O1659  S1674   1.501   .     D
O1660  S558    1.504   1_556 S
O1661  S1674   1.677   .     S
O1668  S1669   1.504   .     D
S1669  O1521   1.682   1_655 S
S1669  C1500   1.818   1_655 S
S1672  O539    1.680   1_556 S
S1673  O541    1.505   1_556 S
