data_str_m2_o2_o10_pcu_sym.43
_audit_creation_date              2020-01-03
_audit_creation_method            'Materials Studio'
_symmetry_space_group_name_H-M    'P1'
_symmetry_Int_Tables_number       1
_symmetry_cell_setting            triclinic
loop_
_symmetry_equiv_pos_as_xyz
  x,y,z
_cell_length_a                    26.4070
_cell_length_b                    30.2993
_cell_length_c                    27.7905
_cell_angle_alpha                 90.1399
_cell_angle_beta                  97.3842
_cell_angle_gamma                 90.5637
loop_
_atom_site_label
_atom_site_type_symbol
_atom_site_fract_x
_atom_site_fract_y
_atom_site_fract_z
_atom_site_U_iso_or_equiv
_atom_site_adp_type
_atom_site_occupancy
C1     C     0.16743   0.16495   0.24992   0.00000  Uiso   1.00
C2     C     0.20466   0.27302   0.45035   0.00000  Uiso   1.00
C3     C     0.16748   0.24928   0.02748   0.00000  Uiso   1.00
C4     C     0.16755   0.24946   0.47273   0.00000  Uiso   1.00
C5     C     0.06819   0.24935   0.23789   0.00000  Uiso   1.00
C6     C     0.26513   0.25084   0.26208   0.00000  Uiso   1.00
C7     C     0.01369   0.24365   0.23217   0.00000  Uiso   1.00
C8     C     0.31959   0.25687   0.26765   0.00000  Uiso   1.00
C9     C     0.15015   0.04756   0.28777   0.00000  Uiso   1.00
C10    C     0.15057   0.45207   0.20783   0.00000  Uiso   1.00
C11    C     0.15058   0.09340   0.28765   0.00000  Uiso   1.00
C12    C     0.16752   0.33506   0.25026   0.00000  Uiso   1.00
C13    C     0.15103   0.40623   0.20816   0.00000  Uiso   1.00
C14    C     0.16846   0.11660   0.24949   0.00000  Uiso   1.00
C15    C     0.16861   0.38343   0.25084   0.00000  Uiso   1.00
C16    C     0.18676   0.09311   0.21134   0.00000  Uiso   1.00
C17    C     0.18672   0.40731   0.29344   0.00000  Uiso   1.00
C18    C     0.18608   0.04705   0.21179   0.00000  Uiso   1.00
C19    C     0.18600   0.45335   0.29272   0.00000  Uiso   1.00
C20    C     0.16776   0.02418   0.24979   0.00000  Uiso   1.00
C21    C     0.16786   0.47583   0.25014   0.00000  Uiso   1.00
C22    C     0.32522   0.21884   0.18941   0.00000  Uiso   1.00
C23    C     0.19468   0.28142   0.05743   0.00000  Uiso   1.00
C24    C     0.00789   0.28235   0.30994   0.00000  Uiso   1.00
C25    C     0.13031   0.22597   0.44164   0.00000  Uiso   1.00
C26    C     0.19490   0.28073   0.10814   0.00000  Uiso   1.00
C27    C     0.13108   0.22569   0.39105   0.00000  Uiso   1.00
C28    C     0.13982   0.21848   0.10153   0.00000  Uiso   1.00
C29    C     0.20303   0.27338   0.39957   0.00000  Uiso   1.00
C30    C     0.14032   0.21711   0.05101   0.00000  Uiso   1.00
Cu31   Cu    0.16667   0.25000   0.29821   0.00000  Uiso   1.00
Cu32   Cu    0.16667   0.25001   0.20178   0.00000  Uiso   1.00
H33    H     0.13551   0.03033   0.31726   0.00000  Uiso   1.00
H34    H     0.23152   0.29205   0.38331   0.00000  Uiso   1.00
H35    H     0.11981   0.19038   0.03118   0.00000  Uiso   1.00
H36    H     0.23553   0.29085   0.47137   0.00000  Uiso   1.00
H37    H     0.24496   0.10554   0.17250   0.00000  Uiso   1.00
H38    H     0.18626   0.10597   0.13997   0.00000  Uiso   1.00
H39    H     0.24474   0.39598   0.34670   0.00000  Uiso   1.00
H40    H     0.18595   0.39461   0.36469   0.00000  Uiso   1.00
H41    H     0.26356   0.30819   0.13145   0.00000  Uiso   1.00
H42    H     0.21421   0.34374   0.12623   0.00000  Uiso   1.00
H43    H     0.05818   0.20874   0.36691   0.00000  Uiso   1.00
H44    H     0.13611   0.46898   0.17467   0.00000  Uiso   1.00
H45    H     0.09939   0.16632   0.37238   0.00000  Uiso   1.00
H46    H     0.13625   0.11070   0.31717   0.00000  Uiso   1.00
H47    H     0.13691   0.38859   0.17511   0.00000  Uiso   1.00
H48    H     0.20077   0.02917   0.18281   0.00000  Uiso   1.00
H49    H     0.20050   0.47155   0.32530   0.00000  Uiso   1.00
H50    H     0.21582   0.30751   0.04232   0.00000  Uiso   1.00
H51    H     0.10012   0.20774   0.45572   0.00000  Uiso   1.00
H52    H     0.11831   0.19378   0.11859   0.00000  Uiso   1.00
N53    N     0.16667   0.25001   0.12934   0.00000  Uiso   1.00
N54    N     0.16667   0.24999   0.37065   0.00000  Uiso   1.00
N55    N     0.30802   0.19909   0.15539   0.00000  Uiso   1.00
N56    N     0.02492   0.30268   0.34360   0.00000  Uiso   1.00
N57    N     0.20728   0.11571   0.17281   0.00000  Uiso   1.00
N58    N     0.20707   0.38516   0.33709   0.00000  Uiso   1.00
N59    N     0.22563   0.31209   0.13762   0.00000  Uiso   1.00
N60    N     0.09478   0.19906   0.36101   0.00000  Uiso   1.00
O61    O     0.16667   0.18573   0.29071   0.00000  Uiso   1.00
O62    O     0.16666   0.31428   0.20928   0.00000  Uiso   1.00
O63    O     0.16667   0.18573   0.20928   0.00000  Uiso   1.00
O64    O     0.16666   0.31427   0.29072   0.00000  Uiso   1.00
O65    O     0.09161   0.25000   0.28132   0.00000  Uiso   1.00
O66    O     0.24172   0.25001   0.21868   0.00000  Uiso   1.00
O67    O     0.09161   0.25000   0.19988   0.00000  Uiso   1.00
O68    O     0.24172   0.25000   0.30011   0.00000  Uiso   1.00
C69    C     0.50077   0.16495   0.24992   0.00000  Uiso   1.00
C70    C     0.53799   0.27302   0.45035   0.00000  Uiso   1.00
C71    C     0.50082   0.24928   0.02748   0.00000  Uiso   1.00
C72    C     0.50089   0.24946   0.47273   0.00000  Uiso   1.00
C73    C     0.40153   0.24935   0.23789   0.00000  Uiso   1.00
C74    C     0.59847   0.25084   0.26208   0.00000  Uiso   1.00
C75    C     0.34702   0.24365   0.23217   0.00000  Uiso   1.00
C76    C     0.65292   0.25687   0.26765   0.00000  Uiso   1.00
C77    C     0.48349   0.04756   0.28777   0.00000  Uiso   1.00
C78    C     0.48390   0.45207   0.20783   0.00000  Uiso   1.00
C79    C     0.48392   0.09340   0.28765   0.00000  Uiso   1.00
C80    C     0.50085   0.33506   0.25026   0.00000  Uiso   1.00
C81    C     0.48436   0.40623   0.20816   0.00000  Uiso   1.00
C82    C     0.50179   0.11660   0.24949   0.00000  Uiso   1.00
C83    C     0.50194   0.38343   0.25084   0.00000  Uiso   1.00
C84    C     0.52009   0.09311   0.21134   0.00000  Uiso   1.00
C85    C     0.52006   0.40731   0.29344   0.00000  Uiso   1.00
C86    C     0.51941   0.04705   0.21179   0.00000  Uiso   1.00
C87    C     0.51934   0.45335   0.29272   0.00000  Uiso   1.00
C88    C     0.50109   0.02418   0.24979   0.00000  Uiso   1.00
C89    C     0.50119   0.47583   0.25014   0.00000  Uiso   1.00
C90    C     0.65856   0.21884   0.18941   0.00000  Uiso   1.00
C91    C     0.52801   0.28142   0.05743   0.00000  Uiso   1.00
C92    C     0.34123   0.28235   0.30994   0.00000  Uiso   1.00
C93    C     0.46364   0.22597   0.44164   0.00000  Uiso   1.00
C94    C     0.52823   0.28073   0.10814   0.00000  Uiso   1.00
C95    C     0.46442   0.22569   0.39105   0.00000  Uiso   1.00
C96    C     0.47315   0.21848   0.10153   0.00000  Uiso   1.00
C97    C     0.53636   0.27338   0.39957   0.00000  Uiso   1.00
C98    C     0.47365   0.21711   0.05101   0.00000  Uiso   1.00
Cu99   Cu    0.50000   0.25000   0.29821   0.00000  Uiso   1.00
Cu100  Cu    0.50000   0.25001   0.20178   0.00000  Uiso   1.00
H101   H     0.46884   0.03033   0.31726   0.00000  Uiso   1.00
H102   H     0.56485   0.29205   0.38331   0.00000  Uiso   1.00
H103   H     0.45314   0.19038   0.03118   0.00000  Uiso   1.00
H104   H     0.56886   0.29085   0.47137   0.00000  Uiso   1.00
H105   H     0.57829   0.10554   0.17250   0.00000  Uiso   1.00
H106   H     0.51959   0.10597   0.13997   0.00000  Uiso   1.00
H107   H     0.57808   0.39598   0.34670   0.00000  Uiso   1.00
H108   H     0.51929   0.39461   0.36469   0.00000  Uiso   1.00
H109   H     0.59690   0.30819   0.13145   0.00000  Uiso   1.00
H110   H     0.54755   0.34374   0.12623   0.00000  Uiso   1.00
H111   H     0.39152   0.20874   0.36691   0.00000  Uiso   1.00
H112   H     0.46944   0.46898   0.17467   0.00000  Uiso   1.00
H113   H     0.43273   0.16632   0.37238   0.00000  Uiso   1.00
H114   H     0.46959   0.11070   0.31717   0.00000  Uiso   1.00
H115   H     0.47024   0.38859   0.17511   0.00000  Uiso   1.00
H116   H     0.53410   0.02917   0.18281   0.00000  Uiso   1.00
H117   H     0.53383   0.47155   0.32530   0.00000  Uiso   1.00
H118   H     0.54915   0.30751   0.04232   0.00000  Uiso   1.00
H119   H     0.43346   0.20774   0.45572   0.00000  Uiso   1.00
H120   H     0.45165   0.19378   0.11859   0.00000  Uiso   1.00
N121   N     0.50000   0.25001   0.12934   0.00000  Uiso   1.00
N122   N     0.50000   0.24999   0.37065   0.00000  Uiso   1.00
N123   N     0.64135   0.19909   0.15539   0.00000  Uiso   1.00
N124   N     0.35825   0.30268   0.34360   0.00000  Uiso   1.00
N125   N     0.54061   0.11571   0.17281   0.00000  Uiso   1.00
N126   N     0.54040   0.38516   0.33709   0.00000  Uiso   1.00
N127   N     0.55896   0.31209   0.13762   0.00000  Uiso   1.00
N128   N     0.42811   0.19906   0.36101   0.00000  Uiso   1.00
O129   O     0.50000   0.18573   0.29071   0.00000  Uiso   1.00
O130   O     0.50000   0.31428   0.20928   0.00000  Uiso   1.00
O131   O     0.50000   0.18573   0.20928   0.00000  Uiso   1.00
O132   O     0.50000   0.31427   0.29072   0.00000  Uiso   1.00
O133   O     0.42495   0.25000   0.28132   0.00000  Uiso   1.00
O134   O     0.57505   0.25001   0.21868   0.00000  Uiso   1.00
O135   O     0.42495   0.25000   0.19988   0.00000  Uiso   1.00
O136   O     0.57505   0.25000   0.30011   0.00000  Uiso   1.00
C137   C     0.83410   0.16495   0.24992   0.00000  Uiso   1.00
C138   C     0.87133   0.27302   0.45035   0.00000  Uiso   1.00
C139   C     0.83415   0.24928   0.02748   0.00000  Uiso   1.00
C140   C     0.83422   0.24946   0.47273   0.00000  Uiso   1.00
C141   C     0.73486   0.24935   0.23789   0.00000  Uiso   1.00
C142   C     0.93180   0.25084   0.26208   0.00000  Uiso   1.00
C143   C     0.68035   0.24365   0.23217   0.00000  Uiso   1.00
C144   C     0.98626   0.25687   0.26765   0.00000  Uiso   1.00
C145   C     0.81682   0.04756   0.28777   0.00000  Uiso   1.00
C146   C     0.81724   0.45207   0.20783   0.00000  Uiso   1.00
C147   C     0.81725   0.09340   0.28765   0.00000  Uiso   1.00
C148   C     0.83419   0.33506   0.25026   0.00000  Uiso   1.00
C149   C     0.81769   0.40623   0.20816   0.00000  Uiso   1.00
C150   C     0.83512   0.11660   0.24949   0.00000  Uiso   1.00
C151   C     0.83528   0.38343   0.25084   0.00000  Uiso   1.00
C152   C     0.85343   0.09311   0.21134   0.00000  Uiso   1.00
C153   C     0.85339   0.40731   0.29344   0.00000  Uiso   1.00
C154   C     0.85274   0.04705   0.21179   0.00000  Uiso   1.00
C155   C     0.85267   0.45335   0.29272   0.00000  Uiso   1.00
C156   C     0.83442   0.02418   0.24979   0.00000  Uiso   1.00
C157   C     0.83452   0.47583   0.25014   0.00000  Uiso   1.00
C158   C     0.99189   0.21884   0.18941   0.00000  Uiso   1.00
C159   C     0.86134   0.28142   0.05743   0.00000  Uiso   1.00
C160   C     0.67456   0.28235   0.30994   0.00000  Uiso   1.00
C161   C     0.79698   0.22597   0.44164   0.00000  Uiso   1.00
C162   C     0.86157   0.28073   0.10814   0.00000  Uiso   1.00
C163   C     0.79775   0.22569   0.39105   0.00000  Uiso   1.00
C164   C     0.80649   0.21848   0.10153   0.00000  Uiso   1.00
C165   C     0.86970   0.27338   0.39957   0.00000  Uiso   1.00
C166   C     0.80698   0.21711   0.05101   0.00000  Uiso   1.00
Cu167  Cu    0.83333   0.25000   0.29821   0.00000  Uiso   1.00
Cu168  Cu    0.83333   0.25001   0.20178   0.00000  Uiso   1.00
H169   H     0.80218   0.03033   0.31726   0.00000  Uiso   1.00
H170   H     0.89819   0.29205   0.38331   0.00000  Uiso   1.00
H171   H     0.78647   0.19038   0.03118   0.00000  Uiso   1.00
H172   H     0.90220   0.29085   0.47137   0.00000  Uiso   1.00
H173   H     0.91163   0.10554   0.17250   0.00000  Uiso   1.00
H174   H     0.85292   0.10597   0.13997   0.00000  Uiso   1.00
H175   H     0.91141   0.39598   0.34670   0.00000  Uiso   1.00
H176   H     0.85262   0.39461   0.36469   0.00000  Uiso   1.00
H177   H     0.93023   0.30819   0.13145   0.00000  Uiso   1.00
H178   H     0.88088   0.34374   0.12623   0.00000  Uiso   1.00
H179   H     0.72485   0.20874   0.36691   0.00000  Uiso   1.00
H180   H     0.80277   0.46898   0.17467   0.00000  Uiso   1.00
H181   H     0.76606   0.16632   0.37238   0.00000  Uiso   1.00
H182   H     0.80292   0.11070   0.31717   0.00000  Uiso   1.00
H183   H     0.80357   0.38859   0.17511   0.00000  Uiso   1.00
H184   H     0.86743   0.02917   0.18281   0.00000  Uiso   1.00
H185   H     0.86717   0.47155   0.32530   0.00000  Uiso   1.00
H186   H     0.88249   0.30751   0.04232   0.00000  Uiso   1.00
H187   H     0.76679   0.20774   0.45572   0.00000  Uiso   1.00
H188   H     0.78498   0.19378   0.11859   0.00000  Uiso   1.00
N189   N     0.83333   0.25001   0.12934   0.00000  Uiso   1.00
N190   N     0.83333   0.24999   0.37065   0.00000  Uiso   1.00
N191   N     0.97469   0.19909   0.15539   0.00000  Uiso   1.00
N192   N     0.69159   0.30268   0.34360   0.00000  Uiso   1.00
N193   N     0.87394   0.11571   0.17281   0.00000  Uiso   1.00
N194   N     0.87374   0.38516   0.33709   0.00000  Uiso   1.00
N195   N     0.89229   0.31209   0.13762   0.00000  Uiso   1.00
N196   N     0.76145   0.19906   0.36101   0.00000  Uiso   1.00
O197   O     0.83334   0.18573   0.29071   0.00000  Uiso   1.00
O198   O     0.83333   0.31428   0.20928   0.00000  Uiso   1.00
O199   O     0.83334   0.18573   0.20928   0.00000  Uiso   1.00
O200   O     0.83333   0.31427   0.29072   0.00000  Uiso   1.00
O201   O     0.75828   0.25000   0.28132   0.00000  Uiso   1.00
O202   O     0.90839   0.25001   0.21868   0.00000  Uiso   1.00
O203   O     0.75828   0.25000   0.19988   0.00000  Uiso   1.00
O204   O     0.90839   0.25000   0.30011   0.00000  Uiso   1.00
C205   C     0.16743   0.66495   0.24992   0.00000  Uiso   1.00
C206   C     0.20466   0.77302   0.45035   0.00000  Uiso   1.00
C207   C     0.16748   0.74928   0.02748   0.00000  Uiso   1.00
C208   C     0.16755   0.74946   0.47273   0.00000  Uiso   1.00
C209   C     0.06819   0.74935   0.23789   0.00000  Uiso   1.00
C210   C     0.26513   0.75084   0.26208   0.00000  Uiso   1.00
C211   C     0.01369   0.74365   0.23217   0.00000  Uiso   1.00
C212   C     0.31959   0.75687   0.26765   0.00000  Uiso   1.00
C213   C     0.15015   0.54756   0.28777   0.00000  Uiso   1.00
C214   C     0.15057   0.95207   0.20783   0.00000  Uiso   1.00
C215   C     0.15058   0.59340   0.28765   0.00000  Uiso   1.00
C216   C     0.16752   0.83506   0.25026   0.00000  Uiso   1.00
C217   C     0.15103   0.90623   0.20816   0.00000  Uiso   1.00
C218   C     0.16846   0.61660   0.24949   0.00000  Uiso   1.00
C219   C     0.16861   0.88343   0.25084   0.00000  Uiso   1.00
C220   C     0.18676   0.59311   0.21134   0.00000  Uiso   1.00
C221   C     0.18672   0.90731   0.29344   0.00000  Uiso   1.00
C222   C     0.18608   0.54705   0.21179   0.00000  Uiso   1.00
C223   C     0.18600   0.95335   0.29272   0.00000  Uiso   1.00
C224   C     0.16776   0.52418   0.24979   0.00000  Uiso   1.00
C225   C     0.16786   0.97583   0.25014   0.00000  Uiso   1.00
C226   C     0.32522   0.71884   0.18941   0.00000  Uiso   1.00
C227   C     0.19468   0.78142   0.05743   0.00000  Uiso   1.00
C228   C     0.00789   0.78235   0.30994   0.00000  Uiso   1.00
C229   C     0.13031   0.72597   0.44164   0.00000  Uiso   1.00
C230   C     0.19490   0.78073   0.10814   0.00000  Uiso   1.00
C231   C     0.13108   0.72569   0.39105   0.00000  Uiso   1.00
C232   C     0.13982   0.71848   0.10153   0.00000  Uiso   1.00
C233   C     0.20303   0.77338   0.39957   0.00000  Uiso   1.00
C234   C     0.14032   0.71711   0.05101   0.00000  Uiso   1.00
Cu235  Cu    0.16667   0.75000   0.29821   0.00000  Uiso   1.00
Cu236  Cu    0.16667   0.75001   0.20178   0.00000  Uiso   1.00
H237   H     0.13551   0.53033   0.31726   0.00000  Uiso   1.00
H238   H     0.23152   0.79205   0.38331   0.00000  Uiso   1.00
H239   H     0.11981   0.69038   0.03118   0.00000  Uiso   1.00
H240   H     0.23553   0.79085   0.47137   0.00000  Uiso   1.00
H241   H     0.24496   0.60554   0.17250   0.00000  Uiso   1.00
H242   H     0.18626   0.60597   0.13997   0.00000  Uiso   1.00
H243   H     0.24474   0.89598   0.34670   0.00000  Uiso   1.00
H244   H     0.18595   0.89461   0.36469   0.00000  Uiso   1.00
H245   H     0.26356   0.80819   0.13145   0.00000  Uiso   1.00
H246   H     0.21421   0.84374   0.12623   0.00000  Uiso   1.00
H247   H     0.05818   0.70874   0.36691   0.00000  Uiso   1.00
H248   H     0.13611   0.96898   0.17467   0.00000  Uiso   1.00
H249   H     0.09939   0.66632   0.37238   0.00000  Uiso   1.00
H250   H     0.13625   0.61070   0.31717   0.00000  Uiso   1.00
H251   H     0.13691   0.88859   0.17511   0.00000  Uiso   1.00
H252   H     0.20077   0.52917   0.18281   0.00000  Uiso   1.00
H253   H     0.20050   0.97155   0.32530   0.00000  Uiso   1.00
H254   H     0.21582   0.80751   0.04232   0.00000  Uiso   1.00
H255   H     0.10012   0.70774   0.45572   0.00000  Uiso   1.00
H256   H     0.11831   0.69378   0.11859   0.00000  Uiso   1.00
N257   N     0.16667   0.75001   0.12934   0.00000  Uiso   1.00
N258   N     0.16667   0.74999   0.37065   0.00000  Uiso   1.00
N259   N     0.30802   0.69909   0.15539   0.00000  Uiso   1.00
N260   N     0.02492   0.80268   0.34360   0.00000  Uiso   1.00
N261   N     0.20728   0.61571   0.17281   0.00000  Uiso   1.00
N262   N     0.20707   0.88516   0.33709   0.00000  Uiso   1.00
N263   N     0.22563   0.81209   0.13762   0.00000  Uiso   1.00
N264   N     0.09478   0.69906   0.36101   0.00000  Uiso   1.00
O265   O     0.16667   0.68573   0.29071   0.00000  Uiso   1.00
O266   O     0.16666   0.81428   0.20928   0.00000  Uiso   1.00
O267   O     0.16667   0.68573   0.20928   0.00000  Uiso   1.00
O268   O     0.16666   0.81427   0.29072   0.00000  Uiso   1.00
O269   O     0.09161   0.75000   0.28132   0.00000  Uiso   1.00
O270   O     0.24172   0.75001   0.21868   0.00000  Uiso   1.00
O271   O     0.09161   0.75000   0.19988   0.00000  Uiso   1.00
O272   O     0.24172   0.75000   0.30011   0.00000  Uiso   1.00
C273   C     0.50077   0.66495   0.24992   0.00000  Uiso   1.00
C274   C     0.53799   0.77302   0.45035   0.00000  Uiso   1.00
C275   C     0.50082   0.74928   0.02748   0.00000  Uiso   1.00
C276   C     0.50089   0.74946   0.47273   0.00000  Uiso   1.00
C277   C     0.40153   0.74935   0.23789   0.00000  Uiso   1.00
C278   C     0.59847   0.75084   0.26208   0.00000  Uiso   1.00
C279   C     0.34702   0.74365   0.23217   0.00000  Uiso   1.00
C280   C     0.65292   0.75687   0.26765   0.00000  Uiso   1.00
C281   C     0.48349   0.54756   0.28777   0.00000  Uiso   1.00
C282   C     0.48390   0.95207   0.20783   0.00000  Uiso   1.00
C283   C     0.48392   0.59340   0.28765   0.00000  Uiso   1.00
C284   C     0.50085   0.83506   0.25026   0.00000  Uiso   1.00
C285   C     0.48436   0.90623   0.20816   0.00000  Uiso   1.00
C286   C     0.50179   0.61660   0.24949   0.00000  Uiso   1.00
C287   C     0.50194   0.88343   0.25084   0.00000  Uiso   1.00
C288   C     0.52009   0.59311   0.21134   0.00000  Uiso   1.00
C289   C     0.52006   0.90731   0.29344   0.00000  Uiso   1.00
C290   C     0.51941   0.54705   0.21179   0.00000  Uiso   1.00
C291   C     0.51934   0.95335   0.29272   0.00000  Uiso   1.00
C292   C     0.50109   0.52418   0.24979   0.00000  Uiso   1.00
C293   C     0.50119   0.97583   0.25014   0.00000  Uiso   1.00
C294   C     0.65856   0.71884   0.18941   0.00000  Uiso   1.00
C295   C     0.52801   0.78142   0.05743   0.00000  Uiso   1.00
C296   C     0.34123   0.78235   0.30994   0.00000  Uiso   1.00
C297   C     0.46364   0.72597   0.44164   0.00000  Uiso   1.00
C298   C     0.52823   0.78073   0.10814   0.00000  Uiso   1.00
C299   C     0.46442   0.72569   0.39105   0.00000  Uiso   1.00
C300   C     0.47315   0.71848   0.10153   0.00000  Uiso   1.00
C301   C     0.53636   0.77338   0.39957   0.00000  Uiso   1.00
C302   C     0.47365   0.71711   0.05101   0.00000  Uiso   1.00
Cu303  Cu    0.50000   0.75000   0.29821   0.00000  Uiso   1.00
Cu304  Cu    0.50000   0.75001   0.20178   0.00000  Uiso   1.00
H305   H     0.46884   0.53033   0.31726   0.00000  Uiso   1.00
H306   H     0.56485   0.79205   0.38331   0.00000  Uiso   1.00
H307   H     0.45314   0.69038   0.03118   0.00000  Uiso   1.00
H308   H     0.56886   0.79085   0.47137   0.00000  Uiso   1.00
H309   H     0.57829   0.60554   0.17250   0.00000  Uiso   1.00
H310   H     0.51959   0.60597   0.13997   0.00000  Uiso   1.00
H311   H     0.57808   0.89598   0.34670   0.00000  Uiso   1.00
H312   H     0.51929   0.89461   0.36469   0.00000  Uiso   1.00
H313   H     0.59690   0.80819   0.13145   0.00000  Uiso   1.00
H314   H     0.54755   0.84374   0.12623   0.00000  Uiso   1.00
H315   H     0.39152   0.70874   0.36691   0.00000  Uiso   1.00
H316   H     0.46944   0.96898   0.17467   0.00000  Uiso   1.00
H317   H     0.43273   0.66632   0.37238   0.00000  Uiso   1.00
H318   H     0.46959   0.61070   0.31717   0.00000  Uiso   1.00
H319   H     0.47024   0.88859   0.17511   0.00000  Uiso   1.00
H320   H     0.53410   0.52917   0.18281   0.00000  Uiso   1.00
H321   H     0.53383   0.97155   0.32530   0.00000  Uiso   1.00
H322   H     0.54915   0.80751   0.04232   0.00000  Uiso   1.00
H323   H     0.43346   0.70774   0.45572   0.00000  Uiso   1.00
H324   H     0.45165   0.69378   0.11859   0.00000  Uiso   1.00
N325   N     0.50000   0.75001   0.12934   0.00000  Uiso   1.00
N326   N     0.50000   0.74999   0.37065   0.00000  Uiso   1.00
N327   N     0.64135   0.69909   0.15539   0.00000  Uiso   1.00
N328   N     0.35825   0.80268   0.34360   0.00000  Uiso   1.00
N329   N     0.54061   0.61571   0.17281   0.00000  Uiso   1.00
N330   N     0.54040   0.88516   0.33709   0.00000  Uiso   1.00
N331   N     0.55896   0.81209   0.13762   0.00000  Uiso   1.00
N332   N     0.42811   0.69906   0.36101   0.00000  Uiso   1.00
O333   O     0.50000   0.68573   0.29071   0.00000  Uiso   1.00
O334   O     0.50000   0.81428   0.20928   0.00000  Uiso   1.00
O335   O     0.50000   0.68573   0.20928   0.00000  Uiso   1.00
O336   O     0.50000   0.81427   0.29072   0.00000  Uiso   1.00
O337   O     0.42495   0.75000   0.28132   0.00000  Uiso   1.00
O338   O     0.57505   0.75001   0.21868   0.00000  Uiso   1.00
O339   O     0.42495   0.75000   0.19988   0.00000  Uiso   1.00
O340   O     0.57505   0.75000   0.30011   0.00000  Uiso   1.00
C341   C     0.83410   0.66495   0.24992   0.00000  Uiso   1.00
C342   C     0.87133   0.77302   0.45035   0.00000  Uiso   1.00
C343   C     0.83415   0.74928   0.02748   0.00000  Uiso   1.00
C344   C     0.83422   0.74946   0.47273   0.00000  Uiso   1.00
C345   C     0.73486   0.74935   0.23789   0.00000  Uiso   1.00
C346   C     0.93180   0.75084   0.26208   0.00000  Uiso   1.00
C347   C     0.68035   0.74365   0.23217   0.00000  Uiso   1.00
C348   C     0.98626   0.75687   0.26765   0.00000  Uiso   1.00
C349   C     0.81682   0.54756   0.28777   0.00000  Uiso   1.00
C350   C     0.81724   0.95207   0.20783   0.00000  Uiso   1.00
C351   C     0.81725   0.59340   0.28765   0.00000  Uiso   1.00
C352   C     0.83419   0.83506   0.25026   0.00000  Uiso   1.00
C353   C     0.81769   0.90623   0.20816   0.00000  Uiso   1.00
C354   C     0.83512   0.61660   0.24949   0.00000  Uiso   1.00
C355   C     0.83528   0.88343   0.25084   0.00000  Uiso   1.00
C356   C     0.85343   0.59311   0.21134   0.00000  Uiso   1.00
C357   C     0.85339   0.90731   0.29344   0.00000  Uiso   1.00
C358   C     0.85274   0.54705   0.21179   0.00000  Uiso   1.00
C359   C     0.85267   0.95335   0.29272   0.00000  Uiso   1.00
C360   C     0.83442   0.52418   0.24979   0.00000  Uiso   1.00
C361   C     0.83452   0.97583   0.25014   0.00000  Uiso   1.00
C362   C     0.99189   0.71884   0.18941   0.00000  Uiso   1.00
C363   C     0.86134   0.78142   0.05743   0.00000  Uiso   1.00
C364   C     0.67456   0.78235   0.30994   0.00000  Uiso   1.00
C365   C     0.79698   0.72597   0.44164   0.00000  Uiso   1.00
C366   C     0.86157   0.78073   0.10814   0.00000  Uiso   1.00
C367   C     0.79775   0.72569   0.39105   0.00000  Uiso   1.00
C368   C     0.80649   0.71848   0.10153   0.00000  Uiso   1.00
C369   C     0.86970   0.77338   0.39957   0.00000  Uiso   1.00
C370   C     0.80698   0.71711   0.05101   0.00000  Uiso   1.00
Cu371  Cu    0.83333   0.75000   0.29821   0.00000  Uiso   1.00
Cu372  Cu    0.83333   0.75001   0.20178   0.00000  Uiso   1.00
H373   H     0.80218   0.53033   0.31726   0.00000  Uiso   1.00
H374   H     0.89819   0.79205   0.38331   0.00000  Uiso   1.00
H375   H     0.78647   0.69038   0.03118   0.00000  Uiso   1.00
H376   H     0.90220   0.79085   0.47137   0.00000  Uiso   1.00
H377   H     0.91163   0.60554   0.17250   0.00000  Uiso   1.00
H378   H     0.85292   0.60597   0.13997   0.00000  Uiso   1.00
H379   H     0.91141   0.89598   0.34670   0.00000  Uiso   1.00
H380   H     0.85262   0.89461   0.36469   0.00000  Uiso   1.00
H381   H     0.93023   0.80819   0.13145   0.00000  Uiso   1.00
H382   H     0.88088   0.84374   0.12623   0.00000  Uiso   1.00
H383   H     0.72485   0.70874   0.36691   0.00000  Uiso   1.00
H384   H     0.80277   0.96898   0.17467   0.00000  Uiso   1.00
H385   H     0.76606   0.66632   0.37238   0.00000  Uiso   1.00
H386   H     0.80292   0.61070   0.31717   0.00000  Uiso   1.00
H387   H     0.80357   0.88859   0.17511   0.00000  Uiso   1.00
H388   H     0.86743   0.52917   0.18281   0.00000  Uiso   1.00
H389   H     0.86717   0.97155   0.32530   0.00000  Uiso   1.00
H390   H     0.88249   0.80751   0.04232   0.00000  Uiso   1.00
H391   H     0.76679   0.70774   0.45572   0.00000  Uiso   1.00
H392   H     0.78498   0.69378   0.11859   0.00000  Uiso   1.00
N393   N     0.83333   0.75001   0.12934   0.00000  Uiso   1.00
N394   N     0.83333   0.74999   0.37065   0.00000  Uiso   1.00
N395   N     0.97469   0.69909   0.15539   0.00000  Uiso   1.00
N396   N     0.69159   0.80268   0.34360   0.00000  Uiso   1.00
N397   N     0.87394   0.61571   0.17281   0.00000  Uiso   1.00
N398   N     0.87374   0.88516   0.33709   0.00000  Uiso   1.00
N399   N     0.89229   0.81209   0.13762   0.00000  Uiso   1.00
N400   N     0.76145   0.69906   0.36101   0.00000  Uiso   1.00
O401   O     0.83334   0.68573   0.29071   0.00000  Uiso   1.00
O402   O     0.83333   0.81428   0.20928   0.00000  Uiso   1.00
O403   O     0.83334   0.68573   0.20928   0.00000  Uiso   1.00
O404   O     0.83333   0.81427   0.29072   0.00000  Uiso   1.00
O405   O     0.75828   0.75000   0.28132   0.00000  Uiso   1.00
O406   O     0.90839   0.75001   0.21868   0.00000  Uiso   1.00
O407   O     0.75828   0.75000   0.19988   0.00000  Uiso   1.00
O408   O     0.90839   0.75000   0.30011   0.00000  Uiso   1.00
C409   C     0.16743   0.16495   0.74992   0.00000  Uiso   1.00
C410   C     0.20466   0.27302   0.95035   0.00000  Uiso   1.00
C411   C     0.16748   0.24928   0.52748   0.00000  Uiso   1.00
C412   C     0.16755   0.24946   0.97273   0.00000  Uiso   1.00
C413   C     0.06819   0.24935   0.73789   0.00000  Uiso   1.00
C414   C     0.26513   0.25084   0.76208   0.00000  Uiso   1.00
C415   C     0.01369   0.24365   0.73217   0.00000  Uiso   1.00
C416   C     0.31959   0.25687   0.76765   0.00000  Uiso   1.00
C417   C     0.15015   0.04756   0.78777   0.00000  Uiso   1.00
C418   C     0.15057   0.45207   0.70783   0.00000  Uiso   1.00
C419   C     0.15058   0.09340   0.78765   0.00000  Uiso   1.00
C420   C     0.16752   0.33506   0.75026   0.00000  Uiso   1.00
C421   C     0.15103   0.40623   0.70816   0.00000  Uiso   1.00
C422   C     0.16846   0.11660   0.74949   0.00000  Uiso   1.00
C423   C     0.16861   0.38343   0.75084   0.00000  Uiso   1.00
C424   C     0.18676   0.09311   0.71134   0.00000  Uiso   1.00
C425   C     0.18672   0.40731   0.79344   0.00000  Uiso   1.00
C426   C     0.18608   0.04705   0.71179   0.00000  Uiso   1.00
C427   C     0.18600   0.45335   0.79272   0.00000  Uiso   1.00
C428   C     0.16776   0.02418   0.74979   0.00000  Uiso   1.00
C429   C     0.16786   0.47583   0.75014   0.00000  Uiso   1.00
C430   C     0.32522   0.21884   0.68941   0.00000  Uiso   1.00
C431   C     0.19468   0.28142   0.55743   0.00000  Uiso   1.00
C432   C     0.00789   0.28235   0.80994   0.00000  Uiso   1.00
C433   C     0.13031   0.22597   0.94164   0.00000  Uiso   1.00
C434   C     0.19490   0.28073   0.60814   0.00000  Uiso   1.00
C435   C     0.13108   0.22569   0.89105   0.00000  Uiso   1.00
C436   C     0.13982   0.21848   0.60153   0.00000  Uiso   1.00
C437   C     0.20303   0.27338   0.89957   0.00000  Uiso   1.00
C438   C     0.14032   0.21711   0.55101   0.00000  Uiso   1.00
Cu439  Cu    0.16667   0.25000   0.79821   0.00000  Uiso   1.00
Cu440  Cu    0.16667   0.25001   0.70178   0.00000  Uiso   1.00
H441   H     0.13551   0.03033   0.81726   0.00000  Uiso   1.00
H442   H     0.23152   0.29205   0.88331   0.00000  Uiso   1.00
H443   H     0.11981   0.19038   0.53118   0.00000  Uiso   1.00
H444   H     0.23553   0.29085   0.97137   0.00000  Uiso   1.00
H445   H     0.24496   0.10554   0.67250   0.00000  Uiso   1.00
H446   H     0.18626   0.10597   0.63997   0.00000  Uiso   1.00
H447   H     0.24474   0.39598   0.84670   0.00000  Uiso   1.00
H448   H     0.18595   0.39461   0.86469   0.00000  Uiso   1.00
H449   H     0.26356   0.30819   0.63145   0.00000  Uiso   1.00
H450   H     0.21421   0.34374   0.62623   0.00000  Uiso   1.00
H451   H     0.05818   0.20874   0.86691   0.00000  Uiso   1.00
H452   H     0.13611   0.46898   0.67467   0.00000  Uiso   1.00
H453   H     0.09939   0.16632   0.87238   0.00000  Uiso   1.00
H454   H     0.13625   0.11070   0.81717   0.00000  Uiso   1.00
H455   H     0.13691   0.38859   0.67511   0.00000  Uiso   1.00
H456   H     0.20077   0.02917   0.68281   0.00000  Uiso   1.00
H457   H     0.20050   0.47155   0.82530   0.00000  Uiso   1.00
H458   H     0.21582   0.30751   0.54232   0.00000  Uiso   1.00
H459   H     0.10012   0.20774   0.95572   0.00000  Uiso   1.00
H460   H     0.11831   0.19378   0.61859   0.00000  Uiso   1.00
N461   N     0.16667   0.25001   0.62934   0.00000  Uiso   1.00
N462   N     0.16667   0.24999   0.87065   0.00000  Uiso   1.00
N463   N     0.30802   0.19909   0.65539   0.00000  Uiso   1.00
N464   N     0.02492   0.30268   0.84360   0.00000  Uiso   1.00
N465   N     0.20728   0.11571   0.67281   0.00000  Uiso   1.00
N466   N     0.20707   0.38516   0.83709   0.00000  Uiso   1.00
N467   N     0.22563   0.31209   0.63762   0.00000  Uiso   1.00
N468   N     0.09478   0.19906   0.86101   0.00000  Uiso   1.00
O469   O     0.16667   0.18573   0.79071   0.00000  Uiso   1.00
O470   O     0.16666   0.31428   0.70928   0.00000  Uiso   1.00
O471   O     0.16667   0.18573   0.70928   0.00000  Uiso   1.00
O472   O     0.16666   0.31427   0.79072   0.00000  Uiso   1.00
O473   O     0.09161   0.25000   0.78132   0.00000  Uiso   1.00
O474   O     0.24172   0.25001   0.71868   0.00000  Uiso   1.00
O475   O     0.09161   0.25000   0.69988   0.00000  Uiso   1.00
O476   O     0.24172   0.25000   0.80011   0.00000  Uiso   1.00
C477   C     0.50077   0.16495   0.74992   0.00000  Uiso   1.00
C478   C     0.53799   0.27302   0.95035   0.00000  Uiso   1.00
C479   C     0.50082   0.24928   0.52748   0.00000  Uiso   1.00
C480   C     0.50089   0.24946   0.97273   0.00000  Uiso   1.00
C481   C     0.40153   0.24935   0.73789   0.00000  Uiso   1.00
C482   C     0.59847   0.25084   0.76208   0.00000  Uiso   1.00
C483   C     0.34702   0.24365   0.73217   0.00000  Uiso   1.00
C484   C     0.65292   0.25687   0.76765   0.00000  Uiso   1.00
C485   C     0.48349   0.04756   0.78777   0.00000  Uiso   1.00
C486   C     0.48390   0.45207   0.70783   0.00000  Uiso   1.00
C487   C     0.48392   0.09340   0.78765   0.00000  Uiso   1.00
C488   C     0.50085   0.33506   0.75026   0.00000  Uiso   1.00
C489   C     0.48436   0.40623   0.70816   0.00000  Uiso   1.00
C490   C     0.50179   0.11660   0.74949   0.00000  Uiso   1.00
C491   C     0.50194   0.38343   0.75084   0.00000  Uiso   1.00
C492   C     0.52009   0.09311   0.71134   0.00000  Uiso   1.00
C493   C     0.52006   0.40731   0.79344   0.00000  Uiso   1.00
C494   C     0.51941   0.04705   0.71179   0.00000  Uiso   1.00
C495   C     0.51934   0.45335   0.79272   0.00000  Uiso   1.00
C496   C     0.50109   0.02418   0.74979   0.00000  Uiso   1.00
C497   C     0.50119   0.47583   0.75014   0.00000  Uiso   1.00
C498   C     0.65856   0.21884   0.68941   0.00000  Uiso   1.00
C499   C     0.52801   0.28142   0.55743   0.00000  Uiso   1.00
C500   C     0.34123   0.28235   0.80994   0.00000  Uiso   1.00
C501   C     0.46364   0.22597   0.94164   0.00000  Uiso   1.00
C502   C     0.52823   0.28073   0.60814   0.00000  Uiso   1.00
C503   C     0.46442   0.22569   0.89105   0.00000  Uiso   1.00
C504   C     0.47315   0.21848   0.60153   0.00000  Uiso   1.00
C505   C     0.53636   0.27338   0.89957   0.00000  Uiso   1.00
C506   C     0.47365   0.21711   0.55101   0.00000  Uiso   1.00
Cu507  Cu    0.50000   0.25000   0.79821   0.00000  Uiso   1.00
Cu508  Cu    0.50000   0.25001   0.70178   0.00000  Uiso   1.00
H509   H     0.46884   0.03033   0.81726   0.00000  Uiso   1.00
H510   H     0.56485   0.29205   0.88331   0.00000  Uiso   1.00
H511   H     0.45314   0.19038   0.53118   0.00000  Uiso   1.00
H512   H     0.56886   0.29085   0.97137   0.00000  Uiso   1.00
H513   H     0.57829   0.10554   0.67250   0.00000  Uiso   1.00
H514   H     0.51959   0.10597   0.63997   0.00000  Uiso   1.00
H515   H     0.57808   0.39598   0.84670   0.00000  Uiso   1.00
H516   H     0.51929   0.39461   0.86469   0.00000  Uiso   1.00
H517   H     0.59690   0.30819   0.63145   0.00000  Uiso   1.00
H518   H     0.54755   0.34374   0.62623   0.00000  Uiso   1.00
H519   H     0.39152   0.20874   0.86691   0.00000  Uiso   1.00
H520   H     0.46944   0.46898   0.67467   0.00000  Uiso   1.00
H521   H     0.43273   0.16632   0.87238   0.00000  Uiso   1.00
H522   H     0.46959   0.11070   0.81717   0.00000  Uiso   1.00
H523   H     0.47024   0.38859   0.67511   0.00000  Uiso   1.00
H524   H     0.53410   0.02917   0.68281   0.00000  Uiso   1.00
H525   H     0.53383   0.47155   0.82530   0.00000  Uiso   1.00
H526   H     0.54915   0.30751   0.54232   0.00000  Uiso   1.00
H527   H     0.43346   0.20774   0.95572   0.00000  Uiso   1.00
H528   H     0.45165   0.19378   0.61859   0.00000  Uiso   1.00
N529   N     0.50000   0.25001   0.62934   0.00000  Uiso   1.00
N530   N     0.50000   0.24999   0.87065   0.00000  Uiso   1.00
N531   N     0.64135   0.19909   0.65539   0.00000  Uiso   1.00
N532   N     0.35825   0.30268   0.84360   0.00000  Uiso   1.00
N533   N     0.54061   0.11571   0.67281   0.00000  Uiso   1.00
N534   N     0.54040   0.38516   0.83709   0.00000  Uiso   1.00
N535   N     0.55896   0.31209   0.63762   0.00000  Uiso   1.00
N536   N     0.42811   0.19906   0.86101   0.00000  Uiso   1.00
O537   O     0.50000   0.18573   0.79071   0.00000  Uiso   1.00
O538   O     0.50000   0.31428   0.70928   0.00000  Uiso   1.00
O539   O     0.50000   0.18573   0.70928   0.00000  Uiso   1.00
O540   O     0.50000   0.31427   0.79072   0.00000  Uiso   1.00
O541   O     0.42495   0.25000   0.78132   0.00000  Uiso   1.00
O542   O     0.57505   0.25001   0.71868   0.00000  Uiso   1.00
O543   O     0.42495   0.25000   0.69988   0.00000  Uiso   1.00
O544   O     0.57505   0.25000   0.80011   0.00000  Uiso   1.00
C545   C     0.83410   0.16495   0.74992   0.00000  Uiso   1.00
C546   C     0.87133   0.27302   0.95035   0.00000  Uiso   1.00
C547   C     0.83415   0.24928   0.52748   0.00000  Uiso   1.00
C548   C     0.83422   0.24946   0.97273   0.00000  Uiso   1.00
C549   C     0.73486   0.24935   0.73789   0.00000  Uiso   1.00
C550   C     0.93180   0.25084   0.76208   0.00000  Uiso   1.00
C551   C     0.68035   0.24365   0.73217   0.00000  Uiso   1.00
C552   C     0.98626   0.25687   0.76765   0.00000  Uiso   1.00
C553   C     0.81682   0.04756   0.78777   0.00000  Uiso   1.00
C554   C     0.81724   0.45207   0.70783   0.00000  Uiso   1.00
C555   C     0.81725   0.09340   0.78765   0.00000  Uiso   1.00
C556   C     0.83419   0.33506   0.75026   0.00000  Uiso   1.00
C557   C     0.81769   0.40623   0.70816   0.00000  Uiso   1.00
C558   C     0.83512   0.11660   0.74949   0.00000  Uiso   1.00
C559   C     0.83528   0.38343   0.75084   0.00000  Uiso   1.00
C560   C     0.85343   0.09311   0.71134   0.00000  Uiso   1.00
C561   C     0.85339   0.40731   0.79344   0.00000  Uiso   1.00
C562   C     0.85274   0.04705   0.71179   0.00000  Uiso   1.00
C563   C     0.85267   0.45335   0.79272   0.00000  Uiso   1.00
C564   C     0.83442   0.02418   0.74979   0.00000  Uiso   1.00
C565   C     0.83452   0.47583   0.75014   0.00000  Uiso   1.00
C566   C     0.99189   0.21884   0.68941   0.00000  Uiso   1.00
C567   C     0.86134   0.28142   0.55743   0.00000  Uiso   1.00
C568   C     0.67456   0.28235   0.80994   0.00000  Uiso   1.00
C569   C     0.79698   0.22597   0.94164   0.00000  Uiso   1.00
C570   C     0.86157   0.28073   0.60814   0.00000  Uiso   1.00
C571   C     0.79775   0.22569   0.89105   0.00000  Uiso   1.00
C572   C     0.80649   0.21848   0.60153   0.00000  Uiso   1.00
C573   C     0.86970   0.27338   0.89957   0.00000  Uiso   1.00
C574   C     0.80698   0.21711   0.55101   0.00000  Uiso   1.00
Cu575  Cu    0.83333   0.25000   0.79821   0.00000  Uiso   1.00
Cu576  Cu    0.83333   0.25001   0.70178   0.00000  Uiso   1.00
H577   H     0.80218   0.03033   0.81726   0.00000  Uiso   1.00
H578   H     0.89819   0.29205   0.88331   0.00000  Uiso   1.00
H579   H     0.78647   0.19038   0.53118   0.00000  Uiso   1.00
H580   H     0.90220   0.29085   0.97137   0.00000  Uiso   1.00
H581   H     0.91163   0.10554   0.67250   0.00000  Uiso   1.00
H582   H     0.85292   0.10597   0.63997   0.00000  Uiso   1.00
H583   H     0.91141   0.39598   0.84670   0.00000  Uiso   1.00
H584   H     0.85262   0.39461   0.86469   0.00000  Uiso   1.00
H585   H     0.93023   0.30819   0.63145   0.00000  Uiso   1.00
H586   H     0.88088   0.34374   0.62623   0.00000  Uiso   1.00
H587   H     0.72485   0.20874   0.86691   0.00000  Uiso   1.00
H588   H     0.80277   0.46898   0.67467   0.00000  Uiso   1.00
H589   H     0.76606   0.16632   0.87238   0.00000  Uiso   1.00
H590   H     0.80292   0.11070   0.81717   0.00000  Uiso   1.00
H591   H     0.80357   0.38859   0.67511   0.00000  Uiso   1.00
H592   H     0.86743   0.02917   0.68281   0.00000  Uiso   1.00
H593   H     0.86717   0.47155   0.82530   0.00000  Uiso   1.00
H594   H     0.88249   0.30751   0.54232   0.00000  Uiso   1.00
H595   H     0.76679   0.20774   0.95572   0.00000  Uiso   1.00
H596   H     0.78498   0.19378   0.61859   0.00000  Uiso   1.00
N597   N     0.83333   0.25001   0.62934   0.00000  Uiso   1.00
N598   N     0.83333   0.24999   0.87065   0.00000  Uiso   1.00
N599   N     0.97469   0.19909   0.65539   0.00000  Uiso   1.00
N600   N     0.69159   0.30268   0.84360   0.00000  Uiso   1.00
N601   N     0.87394   0.11571   0.67281   0.00000  Uiso   1.00
N602   N     0.87374   0.38516   0.83709   0.00000  Uiso   1.00
N603   N     0.89229   0.31209   0.63762   0.00000  Uiso   1.00
N604   N     0.76145   0.19906   0.86101   0.00000  Uiso   1.00
O605   O     0.83334   0.18573   0.79071   0.00000  Uiso   1.00
O606   O     0.83333   0.31428   0.70928   0.00000  Uiso   1.00
O607   O     0.83334   0.18573   0.70928   0.00000  Uiso   1.00
O608   O     0.83333   0.31427   0.79072   0.00000  Uiso   1.00
O609   O     0.75828   0.25000   0.78132   0.00000  Uiso   1.00
O610   O     0.90839   0.25001   0.71868   0.00000  Uiso   1.00
O611   O     0.75828   0.25000   0.69988   0.00000  Uiso   1.00
O612   O     0.90839   0.25000   0.80011   0.00000  Uiso   1.00
C613   C     0.16743   0.66495   0.74992   0.00000  Uiso   1.00
C614   C     0.20466   0.77302   0.95035   0.00000  Uiso   1.00
C615   C     0.16748   0.74928   0.52748   0.00000  Uiso   1.00
C616   C     0.16755   0.74946   0.97273   0.00000  Uiso   1.00
C617   C     0.06819   0.74935   0.73789   0.00000  Uiso   1.00
C618   C     0.26513   0.75084   0.76208   0.00000  Uiso   1.00
C619   C     0.01369   0.74365   0.73217   0.00000  Uiso   1.00
C620   C     0.31959   0.75687   0.76765   0.00000  Uiso   1.00
C621   C     0.15015   0.54756   0.78777   0.00000  Uiso   1.00
C622   C     0.15057   0.95207   0.70783   0.00000  Uiso   1.00
C623   C     0.15058   0.59340   0.78765   0.00000  Uiso   1.00
C624   C     0.16752   0.83506   0.75026   0.00000  Uiso   1.00
C625   C     0.15103   0.90623   0.70816   0.00000  Uiso   1.00
C626   C     0.16846   0.61660   0.74949   0.00000  Uiso   1.00
C627   C     0.16861   0.88343   0.75084   0.00000  Uiso   1.00
C628   C     0.18676   0.59311   0.71134   0.00000  Uiso   1.00
C629   C     0.18672   0.90731   0.79344   0.00000  Uiso   1.00
C630   C     0.18608   0.54705   0.71179   0.00000  Uiso   1.00
C631   C     0.18600   0.95335   0.79272   0.00000  Uiso   1.00
C632   C     0.16776   0.52418   0.74979   0.00000  Uiso   1.00
C633   C     0.16786   0.97583   0.75014   0.00000  Uiso   1.00
C634   C     0.32522   0.71884   0.68941   0.00000  Uiso   1.00
C635   C     0.19468   0.78142   0.55743   0.00000  Uiso   1.00
C636   C     0.00789   0.78235   0.80994   0.00000  Uiso   1.00
C637   C     0.13031   0.72597   0.94164   0.00000  Uiso   1.00
C638   C     0.19490   0.78073   0.60814   0.00000  Uiso   1.00
C639   C     0.13108   0.72569   0.89105   0.00000  Uiso   1.00
C640   C     0.13982   0.71848   0.60153   0.00000  Uiso   1.00
C641   C     0.20303   0.77338   0.89957   0.00000  Uiso   1.00
C642   C     0.14032   0.71711   0.55101   0.00000  Uiso   1.00
Cu643  Cu    0.16667   0.75000   0.79821   0.00000  Uiso   1.00
Cu644  Cu    0.16667   0.75001   0.70178   0.00000  Uiso   1.00
H645   H     0.13551   0.53033   0.81726   0.00000  Uiso   1.00
H646   H     0.23152   0.79205   0.88331   0.00000  Uiso   1.00
H647   H     0.11981   0.69038   0.53118   0.00000  Uiso   1.00
H648   H     0.23553   0.79085   0.97137   0.00000  Uiso   1.00
H649   H     0.24496   0.60554   0.67250   0.00000  Uiso   1.00
H650   H     0.18626   0.60597   0.63997   0.00000  Uiso   1.00
H651   H     0.24474   0.89598   0.84670   0.00000  Uiso   1.00
H652   H     0.18595   0.89461   0.86469   0.00000  Uiso   1.00
H653   H     0.26356   0.80819   0.63145   0.00000  Uiso   1.00
H654   H     0.21421   0.84374   0.62623   0.00000  Uiso   1.00
H655   H     0.05818   0.70874   0.86691   0.00000  Uiso   1.00
H656   H     0.13611   0.96898   0.67467   0.00000  Uiso   1.00
H657   H     0.09939   0.66632   0.87238   0.00000  Uiso   1.00
H658   H     0.13625   0.61070   0.81717   0.00000  Uiso   1.00
H659   H     0.13691   0.88859   0.67511   0.00000  Uiso   1.00
H660   H     0.20077   0.52917   0.68281   0.00000  Uiso   1.00
H661   H     0.20050   0.97155   0.82530   0.00000  Uiso   1.00
H662   H     0.21582   0.80751   0.54232   0.00000  Uiso   1.00
H663   H     0.10012   0.70774   0.95572   0.00000  Uiso   1.00
H664   H     0.11831   0.69378   0.61859   0.00000  Uiso   1.00
N665   N     0.16667   0.75001   0.62934   0.00000  Uiso   1.00
N666   N     0.16667   0.74999   0.87065   0.00000  Uiso   1.00
N667   N     0.30802   0.69909   0.65539   0.00000  Uiso   1.00
N668   N     0.02492   0.80268   0.84360   0.00000  Uiso   1.00
N669   N     0.20728   0.61571   0.67281   0.00000  Uiso   1.00
N670   N     0.20707   0.88516   0.83709   0.00000  Uiso   1.00
N671   N     0.22563   0.81209   0.63762   0.00000  Uiso   1.00
N672   N     0.09478   0.69906   0.86101   0.00000  Uiso   1.00
O673   O     0.16667   0.68573   0.79071   0.00000  Uiso   1.00
O674   O     0.16666   0.81428   0.70928   0.00000  Uiso   1.00
O675   O     0.16667   0.68573   0.70928   0.00000  Uiso   1.00
O676   O     0.16666   0.81427   0.79072   0.00000  Uiso   1.00
O677   O     0.09161   0.75000   0.78132   0.00000  Uiso   1.00
O678   O     0.24172   0.75001   0.71868   0.00000  Uiso   1.00
O679   O     0.09161   0.75000   0.69988   0.00000  Uiso   1.00
O680   O     0.24172   0.75000   0.80011   0.00000  Uiso   1.00
C681   C     0.50077   0.66495   0.74992   0.00000  Uiso   1.00
C682   C     0.53799   0.77302   0.95035   0.00000  Uiso   1.00
C683   C     0.50082   0.74928   0.52748   0.00000  Uiso   1.00
C684   C     0.50089   0.74946   0.97273   0.00000  Uiso   1.00
C685   C     0.40153   0.74935   0.73789   0.00000  Uiso   1.00
C686   C     0.59847   0.75084   0.76208   0.00000  Uiso   1.00
C687   C     0.34702   0.74365   0.73217   0.00000  Uiso   1.00
C688   C     0.65292   0.75687   0.76765   0.00000  Uiso   1.00
C689   C     0.48349   0.54756   0.78777   0.00000  Uiso   1.00
C690   C     0.48390   0.95207   0.70783   0.00000  Uiso   1.00
C691   C     0.48392   0.59340   0.78765   0.00000  Uiso   1.00
C692   C     0.50085   0.83506   0.75026   0.00000  Uiso   1.00
C693   C     0.48436   0.90623   0.70816   0.00000  Uiso   1.00
C694   C     0.50179   0.61660   0.74949   0.00000  Uiso   1.00
C695   C     0.50194   0.88343   0.75084   0.00000  Uiso   1.00
C696   C     0.52009   0.59311   0.71134   0.00000  Uiso   1.00
C697   C     0.52006   0.90731   0.79344   0.00000  Uiso   1.00
C698   C     0.51941   0.54705   0.71179   0.00000  Uiso   1.00
C699   C     0.51934   0.95335   0.79272   0.00000  Uiso   1.00
C700   C     0.50109   0.52418   0.74979   0.00000  Uiso   1.00
C701   C     0.50119   0.97583   0.75014   0.00000  Uiso   1.00
C702   C     0.65856   0.71884   0.68941   0.00000  Uiso   1.00
C703   C     0.52801   0.78142   0.55743   0.00000  Uiso   1.00
C704   C     0.34123   0.78235   0.80994   0.00000  Uiso   1.00
C705   C     0.46364   0.72597   0.94164   0.00000  Uiso   1.00
C706   C     0.52823   0.78073   0.60814   0.00000  Uiso   1.00
C707   C     0.46442   0.72569   0.89105   0.00000  Uiso   1.00
C708   C     0.47315   0.71848   0.60153   0.00000  Uiso   1.00
C709   C     0.53636   0.77338   0.89957   0.00000  Uiso   1.00
C710   C     0.47365   0.71711   0.55101   0.00000  Uiso   1.00
Cu711  Cu    0.50000   0.75000   0.79821   0.00000  Uiso   1.00
Cu712  Cu    0.50000   0.75001   0.70178   0.00000  Uiso   1.00
H713   H     0.46884   0.53033   0.81726   0.00000  Uiso   1.00
H714   H     0.56485   0.79205   0.88331   0.00000  Uiso   1.00
H715   H     0.45314   0.69038   0.53118   0.00000  Uiso   1.00
H716   H     0.56886   0.79085   0.97137   0.00000  Uiso   1.00
H717   H     0.57829   0.60554   0.67250   0.00000  Uiso   1.00
H718   H     0.51959   0.60597   0.63997   0.00000  Uiso   1.00
H719   H     0.57808   0.89598   0.84670   0.00000  Uiso   1.00
H720   H     0.51929   0.89461   0.86469   0.00000  Uiso   1.00
H721   H     0.59690   0.80819   0.63145   0.00000  Uiso   1.00
H722   H     0.54755   0.84374   0.62623   0.00000  Uiso   1.00
H723   H     0.39152   0.70874   0.86691   0.00000  Uiso   1.00
H724   H     0.46944   0.96898   0.67467   0.00000  Uiso   1.00
H725   H     0.43273   0.66632   0.87238   0.00000  Uiso   1.00
H726   H     0.46959   0.61070   0.81717   0.00000  Uiso   1.00
H727   H     0.47024   0.88859   0.67511   0.00000  Uiso   1.00
H728   H     0.53410   0.52917   0.68281   0.00000  Uiso   1.00
H729   H     0.53383   0.97155   0.82530   0.00000  Uiso   1.00
H730   H     0.54915   0.80751   0.54232   0.00000  Uiso   1.00
H731   H     0.43346   0.70774   0.95572   0.00000  Uiso   1.00
H732   H     0.45165   0.69378   0.61859   0.00000  Uiso   1.00
N733   N     0.50000   0.75001   0.62934   0.00000  Uiso   1.00
N734   N     0.50000   0.74999   0.87065   0.00000  Uiso   1.00
N735   N     0.64135   0.69909   0.65539   0.00000  Uiso   1.00
N736   N     0.35825   0.80268   0.84360   0.00000  Uiso   1.00
N737   N     0.54061   0.61571   0.67281   0.00000  Uiso   1.00
N738   N     0.54040   0.88516   0.83709   0.00000  Uiso   1.00
N739   N     0.55896   0.81209   0.63762   0.00000  Uiso   1.00
N740   N     0.42811   0.69906   0.86101   0.00000  Uiso   1.00
O741   O     0.50000   0.68573   0.79071   0.00000  Uiso   1.00
O742   O     0.50000   0.81428   0.70928   0.00000  Uiso   1.00
O743   O     0.50000   0.68573   0.70928   0.00000  Uiso   1.00
O744   O     0.50000   0.81427   0.79072   0.00000  Uiso   1.00
O745   O     0.42495   0.75000   0.78132   0.00000  Uiso   1.00
O746   O     0.57505   0.75001   0.71868   0.00000  Uiso   1.00
O747   O     0.42495   0.75000   0.69988   0.00000  Uiso   1.00
O748   O     0.57505   0.75000   0.80011   0.00000  Uiso   1.00
C749   C     0.83410   0.66495   0.74992   0.00000  Uiso   1.00
C750   C     0.87133   0.77302   0.95035   0.00000  Uiso   1.00
C751   C     0.83415   0.74928   0.52748   0.00000  Uiso   1.00
C752   C     0.83422   0.74946   0.97273   0.00000  Uiso   1.00
C753   C     0.73486   0.74935   0.73789   0.00000  Uiso   1.00
C754   C     0.93180   0.75084   0.76208   0.00000  Uiso   1.00
C755   C     0.68035   0.74365   0.73217   0.00000  Uiso   1.00
C756   C     0.98626   0.75687   0.76765   0.00000  Uiso   1.00
C757   C     0.81682   0.54756   0.78777   0.00000  Uiso   1.00
C758   C     0.81724   0.95207   0.70783   0.00000  Uiso   1.00
C759   C     0.81725   0.59340   0.78765   0.00000  Uiso   1.00
C760   C     0.83419   0.83506   0.75026   0.00000  Uiso   1.00
C761   C     0.81769   0.90623   0.70816   0.00000  Uiso   1.00
C762   C     0.83512   0.61660   0.74949   0.00000  Uiso   1.00
C763   C     0.83528   0.88343   0.75084   0.00000  Uiso   1.00
C764   C     0.85343   0.59311   0.71134   0.00000  Uiso   1.00
C765   C     0.85339   0.90731   0.79344   0.00000  Uiso   1.00
C766   C     0.85274   0.54705   0.71179   0.00000  Uiso   1.00
C767   C     0.85267   0.95335   0.79272   0.00000  Uiso   1.00
C768   C     0.83442   0.52418   0.74979   0.00000  Uiso   1.00
C769   C     0.83452   0.97583   0.75014   0.00000  Uiso   1.00
C770   C     0.99189   0.71884   0.68941   0.00000  Uiso   1.00
C771   C     0.86134   0.78142   0.55743   0.00000  Uiso   1.00
C772   C     0.67456   0.78235   0.80994   0.00000  Uiso   1.00
C773   C     0.79698   0.72597   0.94164   0.00000  Uiso   1.00
C774   C     0.86157   0.78073   0.60814   0.00000  Uiso   1.00
C775   C     0.79775   0.72569   0.89105   0.00000  Uiso   1.00
C776   C     0.80649   0.71848   0.60153   0.00000  Uiso   1.00
C777   C     0.86970   0.77338   0.89957   0.00000  Uiso   1.00
C778   C     0.80698   0.71711   0.55101   0.00000  Uiso   1.00
Cu779  Cu    0.83333   0.75000   0.79821   0.00000  Uiso   1.00
Cu780  Cu    0.83333   0.75001   0.70178   0.00000  Uiso   1.00
H781   H     0.80218   0.53033   0.81726   0.00000  Uiso   1.00
H782   H     0.89819   0.79205   0.88331   0.00000  Uiso   1.00
H783   H     0.78647   0.69038   0.53118   0.00000  Uiso   1.00
H784   H     0.90220   0.79085   0.97137   0.00000  Uiso   1.00
H785   H     0.91163   0.60554   0.67250   0.00000  Uiso   1.00
H786   H     0.85292   0.60597   0.63997   0.00000  Uiso   1.00
H787   H     0.91141   0.89598   0.84670   0.00000  Uiso   1.00
H788   H     0.85262   0.89461   0.86469   0.00000  Uiso   1.00
H789   H     0.93023   0.80819   0.63145   0.00000  Uiso   1.00
H790   H     0.88088   0.84374   0.62623   0.00000  Uiso   1.00
H791   H     0.72485   0.70874   0.86691   0.00000  Uiso   1.00
H792   H     0.80277   0.96898   0.67467   0.00000  Uiso   1.00
H793   H     0.76606   0.66632   0.87238   0.00000  Uiso   1.00
H794   H     0.80292   0.61070   0.81717   0.00000  Uiso   1.00
H795   H     0.80357   0.88859   0.67511   0.00000  Uiso   1.00
H796   H     0.86743   0.52917   0.68281   0.00000  Uiso   1.00
H797   H     0.86717   0.97155   0.82530   0.00000  Uiso   1.00
H798   H     0.88249   0.80751   0.54232   0.00000  Uiso   1.00
H799   H     0.76679   0.70774   0.95572   0.00000  Uiso   1.00
H800   H     0.78498   0.69378   0.61859   0.00000  Uiso   1.00
N801   N     0.83333   0.75001   0.62934   0.00000  Uiso   1.00
N802   N     0.83333   0.74999   0.87065   0.00000  Uiso   1.00
N803   N     0.97469   0.69909   0.65539   0.00000  Uiso   1.00
N804   N     0.69159   0.80268   0.84360   0.00000  Uiso   1.00
N805   N     0.87394   0.61571   0.67281   0.00000  Uiso   1.00
N806   N     0.87374   0.88516   0.83709   0.00000  Uiso   1.00
N807   N     0.89229   0.81209   0.63762   0.00000  Uiso   1.00
N808   N     0.76145   0.69906   0.86101   0.00000  Uiso   1.00
O809   O     0.83334   0.68573   0.79071   0.00000  Uiso   1.00
O810   O     0.83333   0.81428   0.70928   0.00000  Uiso   1.00
O811   O     0.83334   0.68573   0.70928   0.00000  Uiso   1.00
O812   O     0.83333   0.81427   0.79072   0.00000  Uiso   1.00
O813   O     0.75828   0.75000   0.78132   0.00000  Uiso   1.00
O814   O     0.90839   0.75001   0.71868   0.00000  Uiso   1.00
O815   O     0.75828   0.75000   0.69988   0.00000  Uiso   1.00
O816   O     0.90839   0.75000   0.80011   0.00000  Uiso   1.00
loop_
_geom_bond_atom_site_label_1
_geom_bond_atom_site_label_2
_geom_bond_distance
_geom_bond_site_symmetry_2
_ccdc_geom_bond_type
C1     O63     1.292   .     A
C1     C14     1.466   .     S
C1     O61     1.298   .     A
C2     C4      1.415   .     A
C2     C29     1.407   .     A
C2     H36     1.079   .     S
C3     C30     1.415   .     A
C3     C23     1.409   .     A
C3     C412    1.522   1_554 S
C4     C25     1.409   .     A
C4     C411    1.522   .     S
C5     O67     1.291   .     A
C5     O65     1.283   .     A
C5     C7      1.436   .     S
C6     O68     1.291   .     A
C6     O66     1.283   .     A
C6     C8      1.436   .     S
C7     C144    1.358   1_455 S
C7     C158    1.456   1_455 S
C8     C75     1.358   .     S
C8     C92     1.455   .     S
C9     C11     1.389   .     A
C9     C20     1.400   .     A
C9     H33     1.083   .     S
C10    C21     1.400   .     A
C10    H44     1.083   .     S
C10    C13     1.389   .     A
C11    H46     1.083   .     S
C11    C14     1.403   .     A
C12    O62     1.297   .     A
C12    C15     1.465   .     S
C12    O64     1.293   .     A
C13    C15     1.403   .     A
C13    H47     1.083   .     S
C14    C16     1.414   .     A
C15    C17     1.413   .     A
C16    C18     1.396   .     A
C16    N57     1.433   .     S
C17    N58     1.433   .     S
C17    C19     1.396   .     A
C18    C20     1.399   .     A
C18    H48     1.084   .     S
C19    H49     1.084   .     S
C19    C21     1.399   .     A
C20    C225    1.465   1_545 S
C21    C224    1.465   .     S
C22    N55     1.158   .     T
C22    C75     1.456   .     S
C23    C26     1.409   .     A
C23    H50     1.080   .     S
C24    N56     1.158   .     T
C24    C144    1.455   1_455 S
C25    H51     1.080   .     S
C25    C27     1.409   .     A
C26    N59     1.429   .     S
C26    N53     1.368   .     A
C27    N54     1.368   .     A
C27    N60     1.429   .     S
C28    N53     1.362   .     A
C28    H52     1.082   .     S
C28    C30     1.406   .     A
C29    H34     1.082   .     S
C29    N54     1.362   .     A
C30    H35     1.079   .     S
Cu31   O61     1.958   .     S
Cu31   Cu32    2.680   .     S
Cu31   N54     2.013   .     S
Cu31   O68     1.976   .     S
Cu31   O65     1.977   .     S
Cu31   O64     1.959   .     S
Cu32   O63     1.959   .     S
Cu32   O62     1.958   .     S
Cu32   O67     1.976   .     S
Cu32   N53     2.013   .     S
Cu32   O66     1.977   .     S
H37    N57     1.046   .     S
H38    N57     1.046   .     S
H39    N58     1.046   .     S
H40    N58     1.046   .     S
H41    N59     1.046   .     S
H42    N59     1.046   .     S
H43    N60     1.045   .     S
H45    N60     1.045   .     S
C69    O131    1.292   .     A
C69    C82     1.466   .     S
C69    O129    1.298   .     A
C70    C72     1.415   .     A
C70    C97     1.407   .     A
C70    H104    1.079   .     S
C71    C98     1.415   .     A
C71    C91     1.409   .     A
C71    C480    1.522   1_554 S
C72    C93     1.409   .     A
C72    C479    1.522   .     S
C73    O135    1.291   .     A
C73    O133    1.283   .     A
C73    C75     1.436   .     S
C74    O136    1.291   .     A
C74    O134    1.283   .     A
C74    C76     1.436   .     S
C76    C143    1.358   .     S
C76    C160    1.455   .     S
C77    C79     1.389   .     A
C77    C88     1.400   .     A
C77    H101    1.083   .     S
C78    C89     1.400   .     A
C78    H112    1.083   .     S
C78    C81     1.389   .     A
C79    H114    1.083   .     S
C79    C82     1.403   .     A
C80    O130    1.297   .     A
C80    C83     1.465   .     S
C80    O132    1.293   .     A
C81    C83     1.403   .     A
C81    H115    1.083   .     S
C82    C84     1.414   .     A
C83    C85     1.413   .     A
C84    C86     1.396   .     A
C84    N125    1.433   .     S
C85    N126    1.433   .     S
C85    C87     1.396   .     A
C86    C88     1.399   .     A
C86    H116    1.084   .     S
C87    H117    1.084   .     S
C87    C89     1.399   .     A
C88    C293    1.465   1_545 S
C89    C292    1.465   .     S
C90    N123    1.158   .     T
C90    C143    1.456   .     S
C91    C94     1.409   .     A
C91    H118    1.080   .     S
C92    N124    1.158   .     T
C93    H119    1.080   .     S
C93    C95     1.409   .     A
C94    N127    1.429   .     S
C94    N121    1.368   .     A
C95    N122    1.368   .     A
C95    N128    1.429   .     S
C96    N121    1.362   .     A
C96    H120    1.082   .     S
C96    C98     1.406   .     A
C97    H102    1.082   .     S
C97    N122    1.362   .     A
C98    H103    1.079   .     S
Cu99   O129    1.958   .     S
Cu99   Cu100   2.680   .     S
Cu99   N122    2.013   .     S
Cu99   O136    1.976   .     S
Cu99   O133    1.977   .     S
Cu99   O132    1.959   .     S
Cu100  O131    1.959   .     S
Cu100  O130    1.958   .     S
Cu100  O135    1.976   .     S
Cu100  N121    2.013   .     S
Cu100  O134    1.977   .     S
H105   N125    1.046   .     S
H106   N125    1.046   .     S
H107   N126    1.046   .     S
H108   N126    1.046   .     S
H109   N127    1.046   .     S
H110   N127    1.046   .     S
H111   N128    1.045   .     S
H113   N128    1.045   .     S
C137   O199    1.292   .     A
C137   C150    1.466   .     S
C137   O197    1.298   .     A
C138   C140    1.415   .     A
C138   C165    1.407   .     A
C138   H172    1.079   .     S
C139   C166    1.415   .     A
C139   C159    1.409   .     A
C139   C548    1.522   1_554 S
C140   C161    1.409   .     A
C140   C547    1.522   .     S
C141   O203    1.291   .     A
C141   O201    1.283   .     A
C141   C143    1.436   .     S
C142   O204    1.291   .     A
C142   O202    1.283   .     A
C142   C144    1.436   .     S
C144   C7      1.358   1_655 S
C144   C24     1.455   1_655 S
C145   C147    1.389   .     A
C145   C156    1.400   .     A
C145   H169    1.083   .     S
C146   C157    1.400   .     A
C146   H180    1.083   .     S
C146   C149    1.389   .     A
C147   H182    1.083   .     S
C147   C150    1.403   .     A
C148   O198    1.297   .     A
C148   C151    1.465   .     S
C148   O200    1.293   .     A
C149   C151    1.403   .     A
C149   H183    1.083   .     S
C150   C152    1.414   .     A
C151   C153    1.413   .     A
C152   C154    1.396   .     A
C152   N193    1.433   .     S
C153   N194    1.433   .     S
C153   C155    1.396   .     A
C154   C156    1.399   .     A
C154   H184    1.084   .     S
C155   H185    1.084   .     S
C155   C157    1.399   .     A
C156   C361    1.465   1_545 S
C157   C360    1.465   .     S
C158   N191    1.158   .     T
C158   C7      1.456   1_655 S
C159   C162    1.409   .     A
C159   H186    1.080   .     S
C160   N192    1.158   .     T
C161   H187    1.080   .     S
C161   C163    1.409   .     A
C162   N195    1.429   .     S
C162   N189    1.368   .     A
C163   N190    1.368   .     A
C163   N196    1.429   .     S
C164   N189    1.362   .     A
C164   H188    1.082   .     S
C164   C166    1.406   .     A
C165   H170    1.082   .     S
C165   N190    1.362   .     A
C166   H171    1.079   .     S
Cu167  O197    1.958   .     S
Cu167  Cu168   2.680   .     S
Cu167  N190    2.013   .     S
Cu167  O204    1.976   .     S
Cu167  O201    1.977   .     S
Cu167  O200    1.959   .     S
Cu168  O199    1.959   .     S
Cu168  O198    1.958   .     S
Cu168  O203    1.976   .     S
Cu168  N189    2.013   .     S
Cu168  O202    1.977   .     S
H173   N193    1.046   .     S
H174   N193    1.046   .     S
H175   N194    1.046   .     S
H176   N194    1.046   .     S
H177   N195    1.046   .     S
H178   N195    1.046   .     S
H179   N196    1.045   .     S
H181   N196    1.045   .     S
C205   O267    1.292   .     A
C205   C218    1.466   .     S
C205   O265    1.298   .     A
C206   C208    1.415   .     A
C206   C233    1.407   .     A
C206   H240    1.079   .     S
C207   C234    1.415   .     A
C207   C227    1.409   .     A
C207   C616    1.522   1_554 S
C208   C229    1.409   .     A
C208   C615    1.522   .     S
C209   O271    1.291   .     A
C209   O269    1.283   .     A
C209   C211    1.436   .     S
C210   O272    1.291   .     A
C210   O270    1.283   .     A
C210   C212    1.436   .     S
C211   C348    1.358   1_455 S
C211   C362    1.456   1_455 S
C212   C279    1.358   .     S
C212   C296    1.455   .     S
C213   C215    1.389   .     A
C213   C224    1.400   .     A
C213   H237    1.083   .     S
C214   C225    1.400   .     A
C214   H248    1.083   .     S
C214   C217    1.389   .     A
C215   H250    1.083   .     S
C215   C218    1.403   .     A
C216   O266    1.297   .     A
C216   C219    1.465   .     S
C216   O268    1.293   .     A
C217   C219    1.403   .     A
C217   H251    1.083   .     S
C218   C220    1.414   .     A
C219   C221    1.413   .     A
C220   C222    1.396   .     A
C220   N261    1.433   .     S
C221   N262    1.433   .     S
C221   C223    1.396   .     A
C222   C224    1.399   .     A
C222   H252    1.084   .     S
C223   H253    1.084   .     S
C223   C225    1.399   .     A
C225   C20     1.465   1_565 S
C226   N259    1.158   .     T
C226   C279    1.456   .     S
C227   C230    1.409   .     A
C227   H254    1.080   .     S
C228   N260    1.158   .     T
C228   C348    1.455   1_455 S
C229   H255    1.080   .     S
C229   C231    1.409   .     A
C230   N263    1.429   .     S
C230   N257    1.368   .     A
C231   N258    1.368   .     A
C231   N264    1.429   .     S
C232   N257    1.362   .     A
C232   H256    1.082   .     S
C232   C234    1.406   .     A
C233   H238    1.082   .     S
C233   N258    1.362   .     A
C234   H239    1.079   .     S
Cu235  O265    1.958   .     S
Cu235  Cu236   2.680   .     S
Cu235  N258    2.013   .     S
Cu235  O272    1.976   .     S
Cu235  O269    1.977   .     S
Cu235  O268    1.959   .     S
Cu236  O267    1.959   .     S
Cu236  O266    1.958   .     S
Cu236  O271    1.976   .     S
Cu236  N257    2.013   .     S
Cu236  O270    1.977   .     S
H241   N261    1.046   .     S
H242   N261    1.046   .     S
H243   N262    1.046   .     S
H244   N262    1.046   .     S
H245   N263    1.046   .     S
H246   N263    1.046   .     S
H247   N264    1.045   .     S
H249   N264    1.045   .     S
C273   O335    1.292   .     A
C273   C286    1.466   .     S
C273   O333    1.298   .     A
C274   C276    1.415   .     A
C274   C301    1.407   .     A
C274   H308    1.079   .     S
C275   C302    1.415   .     A
C275   C295    1.409   .     A
C275   C684    1.522   1_554 S
C276   C297    1.409   .     A
C276   C683    1.522   .     S
C277   O339    1.291   .     A
C277   O337    1.283   .     A
C277   C279    1.436   .     S
C278   O340    1.291   .     A
C278   O338    1.283   .     A
C278   C280    1.436   .     S
C280   C347    1.358   .     S
C280   C364    1.455   .     S
C281   C283    1.389   .     A
C281   C292    1.400   .     A
C281   H305    1.083   .     S
C282   C293    1.400   .     A
C282   H316    1.083   .     S
C282   C285    1.389   .     A
C283   H318    1.083   .     S
C283   C286    1.403   .     A
C284   O334    1.297   .     A
C284   C287    1.465   .     S
C284   O336    1.293   .     A
C285   C287    1.403   .     A
C285   H319    1.083   .     S
C286   C288    1.414   .     A
C287   C289    1.413   .     A
C288   C290    1.396   .     A
C288   N329    1.433   .     S
C289   N330    1.433   .     S
C289   C291    1.396   .     A
C290   C292    1.399   .     A
C290   H320    1.084   .     S
C291   H321    1.084   .     S
C291   C293    1.399   .     A
C293   C88     1.465   1_565 S
C294   N327    1.158   .     T
C294   C347    1.456   .     S
C295   C298    1.409   .     A
C295   H322    1.080   .     S
C296   N328    1.158   .     T
C297   H323    1.080   .     S
C297   C299    1.409   .     A
C298   N331    1.429   .     S
C298   N325    1.368   .     A
C299   N326    1.368   .     A
C299   N332    1.429   .     S
C300   N325    1.362   .     A
C300   H324    1.082   .     S
C300   C302    1.406   .     A
C301   H306    1.082   .     S
C301   N326    1.362   .     A
C302   H307    1.079   .     S
Cu303  O333    1.958   .     S
Cu303  Cu304   2.680   .     S
Cu303  N326    2.013   .     S
Cu303  O340    1.976   .     S
Cu303  O337    1.977   .     S
Cu303  O336    1.959   .     S
Cu304  O335    1.959   .     S
Cu304  O334    1.958   .     S
Cu304  O339    1.976   .     S
Cu304  N325    2.013   .     S
Cu304  O338    1.977   .     S
H309   N329    1.046   .     S
H310   N329    1.046   .     S
H311   N330    1.046   .     S
H312   N330    1.046   .     S
H313   N331    1.046   .     S
H314   N331    1.046   .     S
H315   N332    1.045   .     S
H317   N332    1.045   .     S
C341   O403    1.292   .     A
C341   C354    1.466   .     S
C341   O401    1.298   .     A
C342   C344    1.415   .     A
C342   C369    1.407   .     A
C342   H376    1.079   .     S
C343   C370    1.415   .     A
C343   C363    1.409   .     A
C343   C752    1.522   1_554 S
C344   C365    1.409   .     A
C344   C751    1.522   .     S
C345   O407    1.291   .     A
C345   O405    1.283   .     A
C345   C347    1.436   .     S
C346   O408    1.291   .     A
C346   O406    1.283   .     A
C346   C348    1.436   .     S
C348   C211    1.358   1_655 S
C348   C228    1.455   1_655 S
C349   C351    1.389   .     A
C349   C360    1.400   .     A
C349   H373    1.083   .     S
C350   C361    1.400   .     A
C350   H384    1.083   .     S
C350   C353    1.389   .     A
C351   H386    1.083   .     S
C351   C354    1.403   .     A
C352   O402    1.297   .     A
C352   C355    1.465   .     S
C352   O404    1.293   .     A
C353   C355    1.403   .     A
C353   H387    1.083   .     S
C354   C356    1.414   .     A
C355   C357    1.413   .     A
C356   C358    1.396   .     A
C356   N397    1.433   .     S
C357   N398    1.433   .     S
C357   C359    1.396   .     A
C358   C360    1.399   .     A
C358   H388    1.084   .     S
C359   H389    1.084   .     S
C359   C361    1.399   .     A
C361   C156    1.465   1_565 S
C362   N395    1.158   .     T
C362   C211    1.456   1_655 S
C363   C366    1.409   .     A
C363   H390    1.080   .     S
C364   N396    1.158   .     T
C365   H391    1.080   .     S
C365   C367    1.409   .     A
C366   N399    1.429   .     S
C366   N393    1.368   .     A
C367   N394    1.368   .     A
C367   N400    1.429   .     S
C368   N393    1.362   .     A
C368   H392    1.082   .     S
C368   C370    1.406   .     A
C369   H374    1.082   .     S
C369   N394    1.362   .     A
C370   H375    1.079   .     S
Cu371  O401    1.958   .     S
Cu371  Cu372   2.680   .     S
Cu371  N394    2.013   .     S
Cu371  O408    1.976   .     S
Cu371  O405    1.977   .     S
Cu371  O404    1.959   .     S
Cu372  O403    1.959   .     S
Cu372  O402    1.958   .     S
Cu372  O407    1.976   .     S
Cu372  N393    2.013   .     S
Cu372  O406    1.977   .     S
H377   N397    1.046   .     S
H378   N397    1.046   .     S
H379   N398    1.046   .     S
H380   N398    1.046   .     S
H381   N399    1.046   .     S
H382   N399    1.046   .     S
H383   N400    1.045   .     S
H385   N400    1.045   .     S
C409   O471    1.292   .     A
C409   C422    1.466   .     S
C409   O469    1.298   .     A
C410   C412    1.415   .     A
C410   C437    1.407   .     A
C410   H444    1.079   .     S
C411   C438    1.415   .     A
C411   C431    1.409   .     A
C412   C433    1.409   .     A
C412   C3      1.522   1_556 S
C413   O475    1.291   .     A
C413   O473    1.283   .     A
C413   C415    1.436   .     S
C414   O476    1.291   .     A
C414   O474    1.283   .     A
C414   C416    1.436   .     S
C415   C552    1.358   1_455 S
C415   C566    1.456   1_455 S
C416   C483    1.358   .     S
C416   C500    1.455   .     S
C417   C419    1.389   .     A
C417   C428    1.400   .     A
C417   H441    1.083   .     S
C418   C429    1.400   .     A
C418   H452    1.083   .     S
C418   C421    1.389   .     A
C419   H454    1.083   .     S
C419   C422    1.403   .     A
C420   O470    1.297   .     A
C420   C423    1.465   .     S
C420   O472    1.293   .     A
C421   C423    1.403   .     A
C421   H455    1.083   .     S
C422   C424    1.414   .     A
C423   C425    1.413   .     A
C424   C426    1.396   .     A
C424   N465    1.433   .     S
C425   N466    1.433   .     S
C425   C427    1.396   .     A
C426   C428    1.399   .     A
C426   H456    1.084   .     S
C427   H457    1.084   .     S
C427   C429    1.399   .     A
C428   C633    1.465   1_545 S
C429   C632    1.465   .     S
C430   N463    1.158   .     T
C430   C483    1.456   .     S
C431   C434    1.409   .     A
C431   H458    1.080   .     S
C432   N464    1.158   .     T
C432   C552    1.455   1_455 S
C433   H459    1.080   .     S
C433   C435    1.409   .     A
C434   N467    1.429   .     S
C434   N461    1.368   .     A
C435   N462    1.368   .     A
C435   N468    1.429   .     S
C436   N461    1.362   .     A
C436   H460    1.082   .     S
C436   C438    1.406   .     A
C437   H442    1.082   .     S
C437   N462    1.362   .     A
C438   H443    1.079   .     S
Cu439  O469    1.958   .     S
Cu439  Cu440   2.680   .     S
Cu439  N462    2.013   .     S
Cu439  O476    1.976   .     S
Cu439  O473    1.977   .     S
Cu439  O472    1.959   .     S
Cu440  O471    1.959   .     S
Cu440  O470    1.958   .     S
Cu440  O475    1.976   .     S
Cu440  N461    2.013   .     S
Cu440  O474    1.977   .     S
H445   N465    1.046   .     S
H446   N465    1.046   .     S
H447   N466    1.046   .     S
H448   N466    1.046   .     S
H449   N467    1.046   .     S
H450   N467    1.046   .     S
H451   N468    1.045   .     S
H453   N468    1.045   .     S
C477   O539    1.292   .     A
C477   C490    1.466   .     S
C477   O537    1.298   .     A
C478   C480    1.415   .     A
C478   C505    1.407   .     A
C478   H512    1.079   .     S
C479   C506    1.415   .     A
C479   C499    1.409   .     A
C480   C501    1.409   .     A
C480   C71     1.522   1_556 S
C481   O543    1.291   .     A
C481   O541    1.283   .     A
C481   C483    1.436   .     S
C482   O544    1.291   .     A
C482   O542    1.283   .     A
C482   C484    1.436   .     S
C484   C551    1.358   .     S
C484   C568    1.455   .     S
C485   C487    1.389   .     A
C485   C496    1.400   .     A
C485   H509    1.083   .     S
C486   C497    1.400   .     A
C486   H520    1.083   .     S
C486   C489    1.389   .     A
C487   H522    1.083   .     S
C487   C490    1.403   .     A
C488   O538    1.297   .     A
C488   C491    1.465   .     S
C488   O540    1.293   .     A
C489   C491    1.403   .     A
C489   H523    1.083   .     S
C490   C492    1.414   .     A
C491   C493    1.413   .     A
C492   C494    1.396   .     A
C492   N533    1.433   .     S
C493   N534    1.433   .     S
C493   C495    1.396   .     A
C494   C496    1.399   .     A
C494   H524    1.084   .     S
C495   H525    1.084   .     S
C495   C497    1.399   .     A
C496   C701    1.465   1_545 S
C497   C700    1.465   .     S
C498   N531    1.158   .     T
C498   C551    1.456   .     S
C499   C502    1.409   .     A
C499   H526    1.080   .     S
C500   N532    1.158   .     T
C501   H527    1.080   .     S
C501   C503    1.409   .     A
C502   N535    1.429   .     S
C502   N529    1.368   .     A
C503   N530    1.368   .     A
C503   N536    1.429   .     S
C504   N529    1.362   .     A
C504   H528    1.082   .     S
C504   C506    1.406   .     A
C505   H510    1.082   .     S
C505   N530    1.362   .     A
C506   H511    1.079   .     S
Cu507  O537    1.958   .     S
Cu507  Cu508   2.680   .     S
Cu507  N530    2.013   .     S
Cu507  O544    1.976   .     S
Cu507  O541    1.977   .     S
Cu507  O540    1.959   .     S
Cu508  O539    1.959   .     S
Cu508  O538    1.958   .     S
Cu508  O543    1.976   .     S
Cu508  N529    2.013   .     S
Cu508  O542    1.977   .     S
H513   N533    1.046   .     S
H514   N533    1.046   .     S
H515   N534    1.046   .     S
H516   N534    1.046   .     S
H517   N535    1.046   .     S
H518   N535    1.046   .     S
H519   N536    1.045   .     S
H521   N536    1.045   .     S
C545   O607    1.292   .     A
C545   C558    1.466   .     S
C545   O605    1.298   .     A
C546   C548    1.415   .     A
C546   C573    1.407   .     A
C546   H580    1.079   .     S
C547   C574    1.415   .     A
C547   C567    1.409   .     A
C548   C569    1.409   .     A
C548   C139    1.522   1_556 S
C549   O611    1.291   .     A
C549   O609    1.283   .     A
C549   C551    1.436   .     S
C550   O612    1.291   .     A
C550   O610    1.283   .     A
C550   C552    1.436   .     S
C552   C415    1.358   1_655 S
C552   C432    1.455   1_655 S
C553   C555    1.389   .     A
C553   C564    1.400   .     A
C553   H577    1.083   .     S
C554   C565    1.400   .     A
C554   H588    1.083   .     S
C554   C557    1.389   .     A
C555   H590    1.083   .     S
C555   C558    1.403   .     A
C556   O606    1.297   .     A
C556   C559    1.465   .     S
C556   O608    1.293   .     A
C557   C559    1.403   .     A
C557   H591    1.083   .     S
C558   C560    1.414   .     A
C559   C561    1.413   .     A
C560   C562    1.396   .     A
C560   N601    1.433   .     S
C561   N602    1.433   .     S
C561   C563    1.396   .     A
C562   C564    1.399   .     A
C562   H592    1.084   .     S
C563   H593    1.084   .     S
C563   C565    1.399   .     A
C564   C769    1.465   1_545 S
C565   C768    1.465   .     S
C566   N599    1.158   .     T
C566   C415    1.456   1_655 S
C567   C570    1.409   .     A
C567   H594    1.080   .     S
C568   N600    1.158   .     T
C569   H595    1.080   .     S
C569   C571    1.409   .     A
C570   N603    1.429   .     S
C570   N597    1.368   .     A
C571   N598    1.368   .     A
C571   N604    1.429   .     S
C572   N597    1.362   .     A
C572   H596    1.082   .     S
C572   C574    1.406   .     A
C573   H578    1.082   .     S
C573   N598    1.362   .     A
C574   H579    1.079   .     S
Cu575  O605    1.958   .     S
Cu575  Cu576   2.680   .     S
Cu575  N598    2.013   .     S
Cu575  O612    1.976   .     S
Cu575  O609    1.977   .     S
Cu575  O608    1.959   .     S
Cu576  O607    1.959   .     S
Cu576  O606    1.958   .     S
Cu576  O611    1.976   .     S
Cu576  N597    2.013   .     S
Cu576  O610    1.977   .     S
H581   N601    1.046   .     S
H582   N601    1.046   .     S
H583   N602    1.046   .     S
H584   N602    1.046   .     S
H585   N603    1.046   .     S
H586   N603    1.046   .     S
H587   N604    1.045   .     S
H589   N604    1.045   .     S
C613   O675    1.292   .     A
C613   C626    1.466   .     S
C613   O673    1.298   .     A
C614   C616    1.415   .     A
C614   C641    1.407   .     A
C614   H648    1.079   .     S
C615   C642    1.415   .     A
C615   C635    1.409   .     A
C616   C637    1.409   .     A
C616   C207    1.522   1_556 S
C617   O679    1.291   .     A
C617   O677    1.283   .     A
C617   C619    1.436   .     S
C618   O680    1.291   .     A
C618   O678    1.283   .     A
C618   C620    1.436   .     S
C619   C756    1.358   1_455 S
C619   C770    1.456   1_455 S
C620   C687    1.358   .     S
C620   C704    1.455   .     S
C621   C623    1.389   .     A
C621   C632    1.400   .     A
C621   H645    1.083   .     S
C622   C633    1.400   .     A
C622   H656    1.083   .     S
C622   C625    1.389   .     A
C623   H658    1.083   .     S
C623   C626    1.403   .     A
C624   O674    1.297   .     A
C624   C627    1.465   .     S
C624   O676    1.293   .     A
C625   C627    1.403   .     A
C625   H659    1.083   .     S
C626   C628    1.414   .     A
C627   C629    1.413   .     A
C628   C630    1.396   .     A
C628   N669    1.433   .     S
C629   N670    1.433   .     S
C629   C631    1.396   .     A
C630   C632    1.399   .     A
C630   H660    1.084   .     S
C631   H661    1.084   .     S
C631   C633    1.399   .     A
C633   C428    1.465   1_565 S
C634   N667    1.158   .     T
C634   C687    1.456   .     S
C635   C638    1.409   .     A
C635   H662    1.080   .     S
C636   N668    1.158   .     T
C636   C756    1.455   1_455 S
C637   H663    1.080   .     S
C637   C639    1.409   .     A
C638   N671    1.429   .     S
C638   N665    1.368   .     A
C639   N666    1.368   .     A
C639   N672    1.429   .     S
C640   N665    1.362   .     A
C640   H664    1.082   .     S
C640   C642    1.406   .     A
C641   H646    1.082   .     S
C641   N666    1.362   .     A
C642   H647    1.079   .     S
Cu643  O673    1.958   .     S
Cu643  Cu644   2.680   .     S
Cu643  N666    2.013   .     S
Cu643  O680    1.976   .     S
Cu643  O677    1.977   .     S
Cu643  O676    1.959   .     S
Cu644  O675    1.959   .     S
Cu644  O674    1.958   .     S
Cu644  O679    1.976   .     S
Cu644  N665    2.013   .     S
Cu644  O678    1.977   .     S
H649   N669    1.046   .     S
H650   N669    1.046   .     S
H651   N670    1.046   .     S
H652   N670    1.046   .     S
H653   N671    1.046   .     S
H654   N671    1.046   .     S
H655   N672    1.045   .     S
H657   N672    1.045   .     S
C681   O743    1.292   .     A
C681   C694    1.466   .     S
C681   O741    1.298   .     A
C682   C684    1.415   .     A
C682   C709    1.407   .     A
C682   H716    1.079   .     S
C683   C710    1.415   .     A
C683   C703    1.409   .     A
C684   C705    1.409   .     A
C684   C275    1.522   1_556 S
C685   O747    1.291   .     A
C685   O745    1.283   .     A
C685   C687    1.436   .     S
C686   O748    1.291   .     A
C686   O746    1.283   .     A
C686   C688    1.436   .     S
C688   C755    1.358   .     S
C688   C772    1.455   .     S
C689   C691    1.389   .     A
C689   C700    1.400   .     A
C689   H713    1.083   .     S
C690   C701    1.400   .     A
C690   H724    1.083   .     S
C690   C693    1.389   .     A
C691   H726    1.083   .     S
C691   C694    1.403   .     A
C692   O742    1.297   .     A
C692   C695    1.465   .     S
C692   O744    1.293   .     A
C693   C695    1.403   .     A
C693   H727    1.083   .     S
C694   C696    1.414   .     A
C695   C697    1.413   .     A
C696   C698    1.396   .     A
C696   N737    1.433   .     S
C697   N738    1.433   .     S
C697   C699    1.396   .     A
C698   C700    1.399   .     A
C698   H728    1.084   .     S
C699   H729    1.084   .     S
C699   C701    1.399   .     A
C701   C496    1.465   1_565 S
C702   N735    1.158   .     T
C702   C755    1.456   .     S
C703   C706    1.409   .     A
C703   H730    1.080   .     S
C704   N736    1.158   .     T
C705   H731    1.080   .     S
C705   C707    1.409   .     A
C706   N739    1.429   .     S
C706   N733    1.368   .     A
C707   N734    1.368   .     A
C707   N740    1.429   .     S
C708   N733    1.362   .     A
C708   H732    1.082   .     S
C708   C710    1.406   .     A
C709   H714    1.082   .     S
C709   N734    1.362   .     A
C710   H715    1.079   .     S
Cu711  O741    1.958   .     S
Cu711  Cu712   2.680   .     S
Cu711  N734    2.013   .     S
Cu711  O748    1.976   .     S
Cu711  O745    1.977   .     S
Cu711  O744    1.959   .     S
Cu712  O743    1.959   .     S
Cu712  O742    1.958   .     S
Cu712  O747    1.976   .     S
Cu712  N733    2.013   .     S
Cu712  O746    1.977   .     S
H717   N737    1.046   .     S
H718   N737    1.046   .     S
H719   N738    1.046   .     S
H720   N738    1.046   .     S
H721   N739    1.046   .     S
H722   N739    1.046   .     S
H723   N740    1.045   .     S
H725   N740    1.045   .     S
C749   O811    1.292   .     A
C749   C762    1.466   .     S
C749   O809    1.298   .     A
C750   C752    1.415   .     A
C750   C777    1.407   .     A
C750   H784    1.079   .     S
C751   C778    1.415   .     A
C751   C771    1.409   .     A
C752   C773    1.409   .     A
C752   C343    1.522   1_556 S
C753   O815    1.291   .     A
C753   O813    1.283   .     A
C753   C755    1.436   .     S
C754   O816    1.291   .     A
C754   O814    1.283   .     A
C754   C756    1.436   .     S
C756   C619    1.358   1_655 S
C756   C636    1.455   1_655 S
C757   C759    1.389   .     A
C757   C768    1.400   .     A
C757   H781    1.083   .     S
C758   C769    1.400   .     A
C758   H792    1.083   .     S
C758   C761    1.389   .     A
C759   H794    1.083   .     S
C759   C762    1.403   .     A
C760   O810    1.297   .     A
C760   C763    1.465   .     S
C760   O812    1.293   .     A
C761   C763    1.403   .     A
C761   H795    1.083   .     S
C762   C764    1.414   .     A
C763   C765    1.413   .     A
C764   C766    1.396   .     A
C764   N805    1.433   .     S
C765   N806    1.433   .     S
C765   C767    1.396   .     A
C766   C768    1.399   .     A
C766   H796    1.084   .     S
C767   H797    1.084   .     S
C767   C769    1.399   .     A
C769   C564    1.465   1_565 S
C770   N803    1.158   .     T
C770   C619    1.456   1_655 S
C771   C774    1.409   .     A
C771   H798    1.080   .     S
C772   N804    1.158   .     T
C773   H799    1.080   .     S
C773   C775    1.409   .     A
C774   N807    1.429   .     S
C774   N801    1.368   .     A
C775   N802    1.368   .     A
C775   N808    1.429   .     S
C776   N801    1.362   .     A
C776   H800    1.082   .     S
C776   C778    1.406   .     A
C777   H782    1.082   .     S
C777   N802    1.362   .     A
C778   H783    1.079   .     S
Cu779  O809    1.958   .     S
Cu779  Cu780   2.680   .     S
Cu779  N802    2.013   .     S
Cu779  O816    1.976   .     S
Cu779  O813    1.977   .     S
Cu779  O812    1.959   .     S
Cu780  O811    1.959   .     S
Cu780  O810    1.958   .     S
Cu780  O815    1.976   .     S
Cu780  N801    2.013   .     S
Cu780  O814    1.977   .     S
H785   N805    1.046   .     S
H786   N805    1.046   .     S
H787   N806    1.046   .     S
H788   N806    1.046   .     S
H789   N807    1.046   .     S
H790   N807    1.046   .     S
H791   N808    1.045   .     S
H793   N808    1.045   .     S
