data_str_m1_o10_o16_pcu_sym.149
_audit_creation_date              2020-01-03
_audit_creation_method            'Materials Studio'
_symmetry_space_group_name_H-M    'P1'
_symmetry_Int_Tables_number       1
_symmetry_cell_setting            triclinic
loop_
_symmetry_equiv_pos_as_xyz
  x,y,z
_cell_length_a                    32.4939
_cell_length_b                    32.5787
_cell_length_c                    31.1358
_cell_angle_alpha                 96.6534
_cell_angle_beta                  75.0302
_cell_angle_gamma                 98.6095
loop_
_atom_site_label
_atom_site_type_symbol
_atom_site_fract_x
_atom_site_fract_y
_atom_site_fract_z
_atom_site_U_iso_or_equiv
_atom_site_adp_type
_atom_site_occupancy
C1     C     0.05275   0.15955   0.25992   0.00000  Uiso   1.00
C2     C     0.16720   0.16216   0.06082   0.00000  Uiso   1.00
C3     C     0.21610   0.10989   0.05757   0.00000  Uiso   1.00
C4     C     0.28070   0.17395   0.24020   0.00000  Uiso   1.00
C5     C     0.14529   0.19531   0.41873   0.00000  Uiso   1.00
C6     C     0.32648   0.17760   0.23708   0.00000  Uiso   1.00
C7     C     0.00747   0.15673   0.26352   0.00000  Uiso   1.00
C8     C     0.18020   0.32241   0.23677   0.00000  Uiso   1.00
C9     C     0.15158   0.01202   0.26383   0.00000  Uiso   1.00
C10    C     0.15625   0.05594   0.25999   0.00000  Uiso   1.00
C11    C     0.17647   0.27785   0.24022   0.00000  Uiso   1.00
C12    C     0.14899   0.25206   0.47593   0.00000  Uiso   1.00
C13    C     0.18452   0.14854   0.12954   0.00000  Uiso   1.00
C14    C     0.14829   0.18423   0.37091   0.00000  Uiso   1.00
C15    C     0.21676   0.09952   0.01175   0.00000  Uiso   1.00
C16    C     0.19036   0.14068   0.08165   0.00000  Uiso   1.00
C17    C     0.14025   0.23671   0.43524   0.00000  Uiso   1.00
C18    C     0.16172   0.22607   0.00120   0.00000  Uiso   1.00
C19    C     0.16224   0.18318   0.48811   0.00000  Uiso   1.00
C20    C     0.15515   0.16787   0.44582   0.00000  Uiso   1.00
C21    C     0.17367   0.15582   0.01419   0.00000  Uiso   1.00
C22    C     0.19090   0.11939   0.49246   0.00000  Uiso   1.00
C23    C     0.17972   0.10283   0.45282   0.00000  Uiso   1.00
C24    C     0.15934   0.12572   0.43150   0.00000  Uiso   1.00
F25    F     0.21342   0.00718   0.20557   0.00000  Uiso   1.00
F26    F     0.11755   0.32879   0.29518   0.00000  Uiso   1.00
F27    F     0.14709   0.29287   0.48998   0.00000  Uiso   1.00
H28    H     0.31938   0.13638   0.28726   0.00000  Uiso   1.00
H29    H     0.18510   0.07152   0.43894   0.00000  Uiso   1.00
H30    H     0.13285   0.25821   0.41505   0.00000  Uiso   1.00
H31    H     0.17145   0.23976   0.03093   0.00000  Uiso   1.00
H32    H     0.14880   0.11046   0.40281   0.00000  Uiso   1.00
H33    H     0.01525   0.19744   0.21326   0.00000  Uiso   1.00
H34    H     0.24669   0.10211   0.15427   0.00000  Uiso   1.00
H35    H     0.28034   0.05542   0.40565   0.00000  Uiso   1.00
H36    H     0.06952   0.17300   0.15065   0.00000  Uiso   1.00
O37    O     0.16667   0.16667   0.25000   0.00000  Uiso   1.00
O38    O     0.15451   0.12637   0.15458   0.00000  Uiso   1.00
O39    O     0.12940   0.20391   0.34968   0.00000  Uiso   1.00
O40    O     0.20824   0.17759   0.14606   0.00000  Uiso   1.00
O41    O     0.17451   0.15880   0.34968   0.00000  Uiso   1.00
O42    O     0.24333   0.03778   0.06833   0.00000  Uiso   1.00
O43    O     0.29077   0.10248   0.07599   0.00000  Uiso   1.00
O44    O     0.22485   0.08419   0.14116   0.00000  Uiso   1.00
O45    O     0.29407   0.06921   0.49016   0.00000  Uiso   1.00
O46    O     0.23107   0.02158   0.47892   0.00000  Uiso   1.00
O47    O     0.26461   0.07808   0.42324   0.00000  Uiso   1.00
O48    O     0.17930   0.08019   0.28213   0.00000  Uiso   1.00
O49    O     0.13935   0.22763   0.11647   0.00000  Uiso   1.00
O50    O     0.09318   0.19609   0.06711   0.00000  Uiso   1.00
O51    O     0.09289   0.15683   0.13378   0.00000  Uiso   1.00
O52    O     0.14632   0.26085   0.27013   0.00000  Uiso   1.00
O53    O     0.07412   0.13291   0.23413   0.00000  Uiso   1.00
O54    O     0.26693   0.19272   0.21360   0.00000  Uiso   1.00
O55    O     0.07071   0.18878   0.28213   0.00000  Uiso   1.00
O56    O     0.25491   0.15226   0.27013   0.00000  Uiso   1.00
O57    O     0.13760   0.06944   0.23413   0.00000  Uiso   1.00
O58    O     0.20345   0.25620   0.21360   0.00000  Uiso   1.00
S59    S     0.24474   0.08288   0.08547   0.00000  Uiso   1.00
S60    S     0.25254   0.06573   0.47647   0.00000  Uiso   1.00
S61    S     0.12258   0.18746   0.09427   0.00000  Uiso   1.00
Zn62   Zn    0.19338   0.13994   0.28734   0.00000  Uiso   1.00
Zn63   Zn    0.13379   0.12458   0.21875   0.00000  Uiso   1.00
Zn64   Zn    0.21056   0.19775   0.20657   0.00000  Uiso   1.00
Zn65   Zn    0.12893   0.20439   0.28733   0.00000  Uiso   1.00
C66    C     0.38608   0.15955   0.25992   0.00000  Uiso   1.00
C67    C     0.50054   0.16216   0.06082   0.00000  Uiso   1.00
C68    C     0.54943   0.10989   0.05757   0.00000  Uiso   1.00
C69    C     0.61403   0.17395   0.24020   0.00000  Uiso   1.00
C70    C     0.47863   0.19531   0.41873   0.00000  Uiso   1.00
C71    C     0.65981   0.17760   0.23708   0.00000  Uiso   1.00
C72    C     0.34081   0.15673   0.26352   0.00000  Uiso   1.00
C73    C     0.51353   0.32241   0.23677   0.00000  Uiso   1.00
C74    C     0.48492   0.01202   0.26383   0.00000  Uiso   1.00
C75    C     0.48959   0.05594   0.25999   0.00000  Uiso   1.00
C76    C     0.50981   0.27785   0.24022   0.00000  Uiso   1.00
C77    C     0.48232   0.25206   0.47593   0.00000  Uiso   1.00
C78    C     0.51786   0.14854   0.12954   0.00000  Uiso   1.00
C79    C     0.48162   0.18423   0.37091   0.00000  Uiso   1.00
C80    C     0.55010   0.09952   0.01175   0.00000  Uiso   1.00
C81    C     0.52370   0.14068   0.08165   0.00000  Uiso   1.00
C82    C     0.47359   0.23671   0.43524   0.00000  Uiso   1.00
C83    C     0.49505   0.22607   0.00120   0.00000  Uiso   1.00
C84    C     0.49557   0.18318   0.48811   0.00000  Uiso   1.00
C85    C     0.48848   0.16787   0.44582   0.00000  Uiso   1.00
C86    C     0.50701   0.15582   0.01419   0.00000  Uiso   1.00
C87    C     0.52423   0.11939   0.49246   0.00000  Uiso   1.00
C88    C     0.51305   0.10283   0.45282   0.00000  Uiso   1.00
C89    C     0.49267   0.12572   0.43150   0.00000  Uiso   1.00
F90    F     0.54675   0.00718   0.20557   0.00000  Uiso   1.00
F91    F     0.45089   0.32879   0.29518   0.00000  Uiso   1.00
F92    F     0.48042   0.29287   0.48998   0.00000  Uiso   1.00
H93    H     0.65271   0.13638   0.28726   0.00000  Uiso   1.00
H94    H     0.51844   0.07152   0.43894   0.00000  Uiso   1.00
H95    H     0.46618   0.25821   0.41505   0.00000  Uiso   1.00
H96    H     0.50479   0.23976   0.03093   0.00000  Uiso   1.00
H97    H     0.48214   0.11046   0.40281   0.00000  Uiso   1.00
H98    H     0.34858   0.19744   0.21326   0.00000  Uiso   1.00
H99    H     0.58002   0.10211   0.15427   0.00000  Uiso   1.00
H100   H     0.61368   0.05542   0.40565   0.00000  Uiso   1.00
H101   H     0.40285   0.17300   0.15065   0.00000  Uiso   1.00
O102   O     0.50000   0.16667   0.25000   0.00000  Uiso   1.00
O103   O     0.48784   0.12637   0.15458   0.00000  Uiso   1.00
O104   O     0.46274   0.20391   0.34968   0.00000  Uiso   1.00
O105   O     0.54157   0.17759   0.14606   0.00000  Uiso   1.00
O106   O     0.50785   0.15880   0.34968   0.00000  Uiso   1.00
O107   O     0.57667   0.03778   0.06833   0.00000  Uiso   1.00
O108   O     0.62411   0.10248   0.07599   0.00000  Uiso   1.00
O109   O     0.55818   0.08419   0.14116   0.00000  Uiso   1.00
O110   O     0.62741   0.06921   0.49016   0.00000  Uiso   1.00
O111   O     0.56440   0.02158   0.47892   0.00000  Uiso   1.00
O112   O     0.59795   0.07808   0.42324   0.00000  Uiso   1.00
O113   O     0.51264   0.08019   0.28213   0.00000  Uiso   1.00
O114   O     0.47269   0.22763   0.11647   0.00000  Uiso   1.00
O115   O     0.42651   0.19609   0.06711   0.00000  Uiso   1.00
O116   O     0.42622   0.15683   0.13378   0.00000  Uiso   1.00
O117   O     0.47965   0.26085   0.27013   0.00000  Uiso   1.00
O118   O     0.40745   0.13291   0.23413   0.00000  Uiso   1.00
O119   O     0.60026   0.19272   0.21360   0.00000  Uiso   1.00
O120   O     0.40405   0.18878   0.28213   0.00000  Uiso   1.00
O121   O     0.58824   0.15226   0.27013   0.00000  Uiso   1.00
O122   O     0.47093   0.06944   0.23413   0.00000  Uiso   1.00
O123   O     0.53678   0.25620   0.21360   0.00000  Uiso   1.00
S124   S     0.57807   0.08288   0.08547   0.00000  Uiso   1.00
S125   S     0.58588   0.06573   0.47647   0.00000  Uiso   1.00
S126   S     0.45592   0.18746   0.09427   0.00000  Uiso   1.00
Zn127  Zn    0.52672   0.13994   0.28734   0.00000  Uiso   1.00
Zn128  Zn    0.46713   0.12458   0.21875   0.00000  Uiso   1.00
Zn129  Zn    0.54389   0.19775   0.20657   0.00000  Uiso   1.00
Zn130  Zn    0.46226   0.20439   0.28733   0.00000  Uiso   1.00
C131   C     0.71942   0.15955   0.25992   0.00000  Uiso   1.00
C132   C     0.83387   0.16216   0.06082   0.00000  Uiso   1.00
C133   C     0.88276   0.10989   0.05757   0.00000  Uiso   1.00
C134   C     0.94737   0.17395   0.24020   0.00000  Uiso   1.00
C135   C     0.81196   0.19531   0.41873   0.00000  Uiso   1.00
C136   C     0.99314   0.17760   0.23708   0.00000  Uiso   1.00
C137   C     0.67414   0.15673   0.26352   0.00000  Uiso   1.00
C138   C     0.84687   0.32241   0.23677   0.00000  Uiso   1.00
C139   C     0.81825   0.01202   0.26383   0.00000  Uiso   1.00
C140   C     0.82292   0.05594   0.25999   0.00000  Uiso   1.00
C141   C     0.84314   0.27785   0.24022   0.00000  Uiso   1.00
C142   C     0.81566   0.25206   0.47593   0.00000  Uiso   1.00
C143   C     0.85119   0.14854   0.12954   0.00000  Uiso   1.00
C144   C     0.81495   0.18423   0.37091   0.00000  Uiso   1.00
C145   C     0.88343   0.09952   0.01175   0.00000  Uiso   1.00
C146   C     0.85703   0.14068   0.08165   0.00000  Uiso   1.00
C147   C     0.80692   0.23671   0.43524   0.00000  Uiso   1.00
C148   C     0.82839   0.22607   0.00120   0.00000  Uiso   1.00
C149   C     0.82891   0.18318   0.48811   0.00000  Uiso   1.00
C150   C     0.82182   0.16787   0.44582   0.00000  Uiso   1.00
C151   C     0.84034   0.15582   0.01419   0.00000  Uiso   1.00
C152   C     0.85757   0.11939   0.49246   0.00000  Uiso   1.00
C153   C     0.84638   0.10283   0.45282   0.00000  Uiso   1.00
C154   C     0.82601   0.12572   0.43150   0.00000  Uiso   1.00
F155   F     0.88008   0.00718   0.20557   0.00000  Uiso   1.00
F156   F     0.78422   0.32879   0.29518   0.00000  Uiso   1.00
F157   F     0.81375   0.29287   0.48998   0.00000  Uiso   1.00
H158   H     0.98604   0.13638   0.28726   0.00000  Uiso   1.00
H159   H     0.85177   0.07152   0.43894   0.00000  Uiso   1.00
H160   H     0.79951   0.25821   0.41505   0.00000  Uiso   1.00
H161   H     0.83812   0.23976   0.03093   0.00000  Uiso   1.00
H162   H     0.81547   0.11046   0.40281   0.00000  Uiso   1.00
H163   H     0.68191   0.19744   0.21326   0.00000  Uiso   1.00
H164   H     0.91336   0.10211   0.15427   0.00000  Uiso   1.00
H165   H     0.94701   0.05542   0.40565   0.00000  Uiso   1.00
H166   H     0.73618   0.17300   0.15065   0.00000  Uiso   1.00
O167   O     0.83333   0.16667   0.25000   0.00000  Uiso   1.00
O168   O     0.82118   0.12637   0.15458   0.00000  Uiso   1.00
O169   O     0.79607   0.20391   0.34968   0.00000  Uiso   1.00
O170   O     0.87491   0.17759   0.14606   0.00000  Uiso   1.00
O171   O     0.84118   0.15880   0.34968   0.00000  Uiso   1.00
O172   O     0.91000   0.03778   0.06833   0.00000  Uiso   1.00
O173   O     0.95744   0.10248   0.07599   0.00000  Uiso   1.00
O174   O     0.89152   0.08419   0.14116   0.00000  Uiso   1.00
O175   O     0.96074   0.06921   0.49016   0.00000  Uiso   1.00
O176   O     0.89774   0.02158   0.47892   0.00000  Uiso   1.00
O177   O     0.93128   0.07808   0.42324   0.00000  Uiso   1.00
O178   O     0.84597   0.08019   0.28213   0.00000  Uiso   1.00
O179   O     0.80602   0.22763   0.11647   0.00000  Uiso   1.00
O180   O     0.75984   0.19609   0.06711   0.00000  Uiso   1.00
O181   O     0.75956   0.15683   0.13378   0.00000  Uiso   1.00
O182   O     0.81298   0.26085   0.27013   0.00000  Uiso   1.00
O183   O     0.74078   0.13291   0.23413   0.00000  Uiso   1.00
O184   O     0.93360   0.19272   0.21360   0.00000  Uiso   1.00
O185   O     0.73738   0.18878   0.28213   0.00000  Uiso   1.00
O186   O     0.92158   0.15226   0.27013   0.00000  Uiso   1.00
O187   O     0.80426   0.06944   0.23413   0.00000  Uiso   1.00
O188   O     0.87012   0.25620   0.21360   0.00000  Uiso   1.00
S189   S     0.91140   0.08288   0.08547   0.00000  Uiso   1.00
S190   S     0.91921   0.06573   0.47647   0.00000  Uiso   1.00
S191   S     0.78925   0.18746   0.09427   0.00000  Uiso   1.00
Zn192  Zn    0.86005   0.13994   0.28734   0.00000  Uiso   1.00
Zn193  Zn    0.80046   0.12458   0.21875   0.00000  Uiso   1.00
Zn194  Zn    0.87723   0.19775   0.20657   0.00000  Uiso   1.00
Zn195  Zn    0.79560   0.20439   0.28733   0.00000  Uiso   1.00
C196   C     0.05275   0.49288   0.25992   0.00000  Uiso   1.00
C197   C     0.16720   0.49550   0.06082   0.00000  Uiso   1.00
C198   C     0.21610   0.44322   0.05757   0.00000  Uiso   1.00
C199   C     0.28070   0.50729   0.24020   0.00000  Uiso   1.00
C200   C     0.14529   0.52865   0.41873   0.00000  Uiso   1.00
C201   C     0.32648   0.51093   0.23708   0.00000  Uiso   1.00
C202   C     0.00747   0.49006   0.26352   0.00000  Uiso   1.00
C203   C     0.18020   0.65574   0.23677   0.00000  Uiso   1.00
C204   C     0.15158   0.34535   0.26383   0.00000  Uiso   1.00
C205   C     0.15625   0.38927   0.25999   0.00000  Uiso   1.00
C206   C     0.17647   0.61118   0.24022   0.00000  Uiso   1.00
C207   C     0.14899   0.58539   0.47593   0.00000  Uiso   1.00
C208   C     0.18452   0.48187   0.12954   0.00000  Uiso   1.00
C209   C     0.14829   0.51756   0.37091   0.00000  Uiso   1.00
C210   C     0.21676   0.43285   0.01175   0.00000  Uiso   1.00
C211   C     0.19036   0.47402   0.08165   0.00000  Uiso   1.00
C212   C     0.14025   0.57005   0.43524   0.00000  Uiso   1.00
C213   C     0.16172   0.55940   0.00120   0.00000  Uiso   1.00
C214   C     0.16224   0.51652   0.48811   0.00000  Uiso   1.00
C215   C     0.15515   0.50120   0.44582   0.00000  Uiso   1.00
C216   C     0.17367   0.48915   0.01419   0.00000  Uiso   1.00
C217   C     0.19090   0.45272   0.49246   0.00000  Uiso   1.00
C218   C     0.17972   0.43617   0.45282   0.00000  Uiso   1.00
C219   C     0.15934   0.45906   0.43150   0.00000  Uiso   1.00
F220   F     0.21342   0.34051   0.20557   0.00000  Uiso   1.00
F221   F     0.11755   0.66212   0.29518   0.00000  Uiso   1.00
F222   F     0.14709   0.62621   0.48998   0.00000  Uiso   1.00
H223   H     0.31938   0.46972   0.28726   0.00000  Uiso   1.00
H224   H     0.18510   0.40486   0.43894   0.00000  Uiso   1.00
H225   H     0.13285   0.59154   0.41505   0.00000  Uiso   1.00
H226   H     0.17145   0.57309   0.03093   0.00000  Uiso   1.00
H227   H     0.14880   0.44379   0.40281   0.00000  Uiso   1.00
H228   H     0.01525   0.53078   0.21326   0.00000  Uiso   1.00
H229   H     0.24669   0.43544   0.15427   0.00000  Uiso   1.00
H230   H     0.28034   0.38875   0.40565   0.00000  Uiso   1.00
H231   H     0.06952   0.50633   0.15065   0.00000  Uiso   1.00
O232   O     0.16667   0.50000   0.25000   0.00000  Uiso   1.00
O233   O     0.15451   0.45970   0.15458   0.00000  Uiso   1.00
O234   O     0.12940   0.53724   0.34968   0.00000  Uiso   1.00
O235   O     0.20824   0.51092   0.14606   0.00000  Uiso   1.00
O236   O     0.17451   0.49213   0.34968   0.00000  Uiso   1.00
O237   O     0.24333   0.37111   0.06833   0.00000  Uiso   1.00
O238   O     0.29077   0.43582   0.07599   0.00000  Uiso   1.00
O239   O     0.22485   0.41752   0.14116   0.00000  Uiso   1.00
O240   O     0.29407   0.40254   0.49016   0.00000  Uiso   1.00
O241   O     0.23107   0.35491   0.47892   0.00000  Uiso   1.00
O242   O     0.26461   0.41142   0.42324   0.00000  Uiso   1.00
O243   O     0.17930   0.41352   0.28213   0.00000  Uiso   1.00
O244   O     0.13935   0.56097   0.11647   0.00000  Uiso   1.00
O245   O     0.09318   0.52942   0.06711   0.00000  Uiso   1.00
O246   O     0.09289   0.49016   0.13378   0.00000  Uiso   1.00
O247   O     0.14632   0.59418   0.27013   0.00000  Uiso   1.00
O248   O     0.07412   0.46625   0.23413   0.00000  Uiso   1.00
O249   O     0.26693   0.52605   0.21360   0.00000  Uiso   1.00
O250   O     0.07071   0.52211   0.28213   0.00000  Uiso   1.00
O251   O     0.25491   0.48559   0.27013   0.00000  Uiso   1.00
O252   O     0.13760   0.40277   0.23413   0.00000  Uiso   1.00
O253   O     0.20345   0.58953   0.21360   0.00000  Uiso   1.00
S254   S     0.24474   0.41622   0.08547   0.00000  Uiso   1.00
S255   S     0.25254   0.39907   0.47647   0.00000  Uiso   1.00
S256   S     0.12258   0.52079   0.09427   0.00000  Uiso   1.00
Zn257  Zn    0.19338   0.47327   0.28734   0.00000  Uiso   1.00
Zn258  Zn    0.13379   0.45791   0.21875   0.00000  Uiso   1.00
Zn259  Zn    0.21056   0.53109   0.20657   0.00000  Uiso   1.00
Zn260  Zn    0.12893   0.53773   0.28733   0.00000  Uiso   1.00
C261   C     0.38608   0.49288   0.25992   0.00000  Uiso   1.00
C262   C     0.50054   0.49550   0.06082   0.00000  Uiso   1.00
C263   C     0.54943   0.44322   0.05757   0.00000  Uiso   1.00
C264   C     0.61403   0.50729   0.24020   0.00000  Uiso   1.00
C265   C     0.47863   0.52865   0.41873   0.00000  Uiso   1.00
C266   C     0.65981   0.51093   0.23708   0.00000  Uiso   1.00
C267   C     0.34081   0.49006   0.26352   0.00000  Uiso   1.00
C268   C     0.51353   0.65574   0.23677   0.00000  Uiso   1.00
C269   C     0.48492   0.34535   0.26383   0.00000  Uiso   1.00
C270   C     0.48959   0.38927   0.25999   0.00000  Uiso   1.00
C271   C     0.50981   0.61118   0.24022   0.00000  Uiso   1.00
C272   C     0.48232   0.58539   0.47593   0.00000  Uiso   1.00
C273   C     0.51786   0.48187   0.12954   0.00000  Uiso   1.00
C274   C     0.48162   0.51756   0.37091   0.00000  Uiso   1.00
C275   C     0.55010   0.43285   0.01175   0.00000  Uiso   1.00
C276   C     0.52370   0.47402   0.08165   0.00000  Uiso   1.00
C277   C     0.47359   0.57005   0.43524   0.00000  Uiso   1.00
C278   C     0.49505   0.55940   0.00120   0.00000  Uiso   1.00
C279   C     0.49557   0.51652   0.48811   0.00000  Uiso   1.00
C280   C     0.48848   0.50120   0.44582   0.00000  Uiso   1.00
C281   C     0.50701   0.48915   0.01419   0.00000  Uiso   1.00
C282   C     0.52423   0.45272   0.49246   0.00000  Uiso   1.00
C283   C     0.51305   0.43617   0.45282   0.00000  Uiso   1.00
C284   C     0.49267   0.45906   0.43150   0.00000  Uiso   1.00
F285   F     0.54675   0.34051   0.20557   0.00000  Uiso   1.00
F286   F     0.45089   0.66212   0.29518   0.00000  Uiso   1.00
F287   F     0.48042   0.62621   0.48998   0.00000  Uiso   1.00
H288   H     0.65271   0.46972   0.28726   0.00000  Uiso   1.00
H289   H     0.51844   0.40486   0.43894   0.00000  Uiso   1.00
H290   H     0.46618   0.59154   0.41505   0.00000  Uiso   1.00
H291   H     0.50479   0.57309   0.03093   0.00000  Uiso   1.00
H292   H     0.48214   0.44379   0.40281   0.00000  Uiso   1.00
H293   H     0.34858   0.53078   0.21326   0.00000  Uiso   1.00
H294   H     0.58002   0.43544   0.15427   0.00000  Uiso   1.00
H295   H     0.61368   0.38875   0.40565   0.00000  Uiso   1.00
H296   H     0.40285   0.50633   0.15065   0.00000  Uiso   1.00
O297   O     0.50000   0.50000   0.25000   0.00000  Uiso   1.00
O298   O     0.48784   0.45970   0.15458   0.00000  Uiso   1.00
O299   O     0.46274   0.53724   0.34968   0.00000  Uiso   1.00
O300   O     0.54157   0.51092   0.14606   0.00000  Uiso   1.00
O301   O     0.50785   0.49213   0.34968   0.00000  Uiso   1.00
O302   O     0.57667   0.37111   0.06833   0.00000  Uiso   1.00
O303   O     0.62411   0.43582   0.07599   0.00000  Uiso   1.00
O304   O     0.55818   0.41752   0.14116   0.00000  Uiso   1.00
O305   O     0.62741   0.40254   0.49016   0.00000  Uiso   1.00
O306   O     0.56440   0.35491   0.47892   0.00000  Uiso   1.00
O307   O     0.59795   0.41142   0.42324   0.00000  Uiso   1.00
O308   O     0.51264   0.41352   0.28213   0.00000  Uiso   1.00
O309   O     0.47269   0.56097   0.11647   0.00000  Uiso   1.00
O310   O     0.42651   0.52942   0.06711   0.00000  Uiso   1.00
O311   O     0.42622   0.49016   0.13378   0.00000  Uiso   1.00
O312   O     0.47965   0.59418   0.27013   0.00000  Uiso   1.00
O313   O     0.40745   0.46625   0.23413   0.00000  Uiso   1.00
O314   O     0.60026   0.52605   0.21360   0.00000  Uiso   1.00
O315   O     0.40405   0.52211   0.28213   0.00000  Uiso   1.00
O316   O     0.58824   0.48559   0.27013   0.00000  Uiso   1.00
O317   O     0.47093   0.40277   0.23413   0.00000  Uiso   1.00
O318   O     0.53678   0.58953   0.21360   0.00000  Uiso   1.00
S319   S     0.57807   0.41622   0.08547   0.00000  Uiso   1.00
S320   S     0.58588   0.39907   0.47647   0.00000  Uiso   1.00
S321   S     0.45592   0.52079   0.09427   0.00000  Uiso   1.00
Zn322  Zn    0.52672   0.47327   0.28734   0.00000  Uiso   1.00
Zn323  Zn    0.46713   0.45791   0.21875   0.00000  Uiso   1.00
Zn324  Zn    0.54389   0.53109   0.20657   0.00000  Uiso   1.00
Zn325  Zn    0.46226   0.53773   0.28733   0.00000  Uiso   1.00
C326   C     0.71942   0.49288   0.25992   0.00000  Uiso   1.00
C327   C     0.83387   0.49550   0.06082   0.00000  Uiso   1.00
C328   C     0.88276   0.44322   0.05757   0.00000  Uiso   1.00
C329   C     0.94737   0.50729   0.24020   0.00000  Uiso   1.00
C330   C     0.81196   0.52865   0.41873   0.00000  Uiso   1.00
C331   C     0.99314   0.51093   0.23708   0.00000  Uiso   1.00
C332   C     0.67414   0.49006   0.26352   0.00000  Uiso   1.00
C333   C     0.84687   0.65574   0.23677   0.00000  Uiso   1.00
C334   C     0.81825   0.34535   0.26383   0.00000  Uiso   1.00
C335   C     0.82292   0.38927   0.25999   0.00000  Uiso   1.00
C336   C     0.84314   0.61118   0.24022   0.00000  Uiso   1.00
C337   C     0.81566   0.58539   0.47593   0.00000  Uiso   1.00
C338   C     0.85119   0.48187   0.12954   0.00000  Uiso   1.00
C339   C     0.81495   0.51756   0.37091   0.00000  Uiso   1.00
C340   C     0.88343   0.43285   0.01175   0.00000  Uiso   1.00
C341   C     0.85703   0.47402   0.08165   0.00000  Uiso   1.00
C342   C     0.80692   0.57005   0.43524   0.00000  Uiso   1.00
C343   C     0.82839   0.55940   0.00120   0.00000  Uiso   1.00
C344   C     0.82891   0.51652   0.48811   0.00000  Uiso   1.00
C345   C     0.82182   0.50120   0.44582   0.00000  Uiso   1.00
C346   C     0.84034   0.48915   0.01419   0.00000  Uiso   1.00
C347   C     0.85757   0.45272   0.49246   0.00000  Uiso   1.00
C348   C     0.84638   0.43617   0.45282   0.00000  Uiso   1.00
C349   C     0.82601   0.45906   0.43150   0.00000  Uiso   1.00
F350   F     0.88008   0.34051   0.20557   0.00000  Uiso   1.00
F351   F     0.78422   0.66212   0.29518   0.00000  Uiso   1.00
F352   F     0.81375   0.62621   0.48998   0.00000  Uiso   1.00
H353   H     0.98604   0.46972   0.28726   0.00000  Uiso   1.00
H354   H     0.85177   0.40486   0.43894   0.00000  Uiso   1.00
H355   H     0.79951   0.59154   0.41505   0.00000  Uiso   1.00
H356   H     0.83812   0.57309   0.03093   0.00000  Uiso   1.00
H357   H     0.81547   0.44379   0.40281   0.00000  Uiso   1.00
H358   H     0.68191   0.53078   0.21326   0.00000  Uiso   1.00
H359   H     0.91336   0.43544   0.15427   0.00000  Uiso   1.00
H360   H     0.94701   0.38875   0.40565   0.00000  Uiso   1.00
H361   H     0.73618   0.50633   0.15065   0.00000  Uiso   1.00
O362   O     0.83333   0.50000   0.25000   0.00000  Uiso   1.00
O363   O     0.82118   0.45970   0.15458   0.00000  Uiso   1.00
O364   O     0.79607   0.53724   0.34968   0.00000  Uiso   1.00
O365   O     0.87491   0.51092   0.14606   0.00000  Uiso   1.00
O366   O     0.84118   0.49213   0.34968   0.00000  Uiso   1.00
O367   O     0.91000   0.37111   0.06833   0.00000  Uiso   1.00
O368   O     0.95744   0.43582   0.07599   0.00000  Uiso   1.00
O369   O     0.89152   0.41752   0.14116   0.00000  Uiso   1.00
O370   O     0.96074   0.40254   0.49016   0.00000  Uiso   1.00
O371   O     0.89774   0.35491   0.47892   0.00000  Uiso   1.00
O372   O     0.93128   0.41142   0.42324   0.00000  Uiso   1.00
O373   O     0.84597   0.41352   0.28213   0.00000  Uiso   1.00
O374   O     0.80602   0.56097   0.11647   0.00000  Uiso   1.00
O375   O     0.75984   0.52942   0.06711   0.00000  Uiso   1.00
O376   O     0.75956   0.49016   0.13378   0.00000  Uiso   1.00
O377   O     0.81298   0.59418   0.27013   0.00000  Uiso   1.00
O378   O     0.74078   0.46625   0.23413   0.00000  Uiso   1.00
O379   O     0.93360   0.52605   0.21360   0.00000  Uiso   1.00
O380   O     0.73738   0.52211   0.28213   0.00000  Uiso   1.00
O381   O     0.92158   0.48559   0.27013   0.00000  Uiso   1.00
O382   O     0.80426   0.40277   0.23413   0.00000  Uiso   1.00
O383   O     0.87012   0.58953   0.21360   0.00000  Uiso   1.00
S384   S     0.91140   0.41622   0.08547   0.00000  Uiso   1.00
S385   S     0.91921   0.39907   0.47647   0.00000  Uiso   1.00
S386   S     0.78925   0.52079   0.09427   0.00000  Uiso   1.00
Zn387  Zn    0.86005   0.47327   0.28734   0.00000  Uiso   1.00
Zn388  Zn    0.80046   0.45791   0.21875   0.00000  Uiso   1.00
Zn389  Zn    0.87723   0.53109   0.20657   0.00000  Uiso   1.00
Zn390  Zn    0.79560   0.53773   0.28733   0.00000  Uiso   1.00
C391   C     0.05275   0.82621   0.25992   0.00000  Uiso   1.00
C392   C     0.16720   0.82883   0.06082   0.00000  Uiso   1.00
C393   C     0.21610   0.77655   0.05757   0.00000  Uiso   1.00
C394   C     0.28070   0.84062   0.24020   0.00000  Uiso   1.00
C395   C     0.14529   0.86198   0.41873   0.00000  Uiso   1.00
C396   C     0.32648   0.84426   0.23708   0.00000  Uiso   1.00
C397   C     0.00747   0.82339   0.26352   0.00000  Uiso   1.00
C398   C     0.18020   0.98908   0.23677   0.00000  Uiso   1.00
C399   C     0.15158   0.67869   0.26383   0.00000  Uiso   1.00
C400   C     0.15625   0.72260   0.25999   0.00000  Uiso   1.00
C401   C     0.17647   0.94451   0.24022   0.00000  Uiso   1.00
C402   C     0.14899   0.91873   0.47593   0.00000  Uiso   1.00
C403   C     0.18452   0.81520   0.12954   0.00000  Uiso   1.00
C404   C     0.14829   0.85090   0.37091   0.00000  Uiso   1.00
C405   C     0.21676   0.76618   0.01175   0.00000  Uiso   1.00
C406   C     0.19036   0.80735   0.08165   0.00000  Uiso   1.00
C407   C     0.14025   0.90338   0.43524   0.00000  Uiso   1.00
C408   C     0.16172   0.89273   0.00120   0.00000  Uiso   1.00
C409   C     0.16224   0.84985   0.48811   0.00000  Uiso   1.00
C410   C     0.15515   0.83454   0.44582   0.00000  Uiso   1.00
C411   C     0.17367   0.82248   0.01419   0.00000  Uiso   1.00
C412   C     0.19090   0.78605   0.49246   0.00000  Uiso   1.00
C413   C     0.17972   0.76950   0.45282   0.00000  Uiso   1.00
C414   C     0.15934   0.79239   0.43150   0.00000  Uiso   1.00
F415   F     0.21342   0.67385   0.20557   0.00000  Uiso   1.00
F416   F     0.11755   0.99545   0.29518   0.00000  Uiso   1.00
F417   F     0.14709   0.95954   0.48998   0.00000  Uiso   1.00
H418   H     0.31938   0.80305   0.28726   0.00000  Uiso   1.00
H419   H     0.18510   0.73819   0.43894   0.00000  Uiso   1.00
H420   H     0.13285   0.92487   0.41505   0.00000  Uiso   1.00
H421   H     0.17145   0.90642   0.03093   0.00000  Uiso   1.00
H422   H     0.14880   0.77712   0.40281   0.00000  Uiso   1.00
H423   H     0.01525   0.86411   0.21326   0.00000  Uiso   1.00
H424   H     0.24669   0.76878   0.15427   0.00000  Uiso   1.00
H425   H     0.28034   0.72209   0.40565   0.00000  Uiso   1.00
H426   H     0.06952   0.83967   0.15065   0.00000  Uiso   1.00
O427   O     0.16667   0.83333   0.25000   0.00000  Uiso   1.00
O428   O     0.15451   0.79304   0.15458   0.00000  Uiso   1.00
O429   O     0.12940   0.87058   0.34968   0.00000  Uiso   1.00
O430   O     0.20824   0.84425   0.14606   0.00000  Uiso   1.00
O431   O     0.17451   0.82546   0.34968   0.00000  Uiso   1.00
O432   O     0.24333   0.70444   0.06833   0.00000  Uiso   1.00
O433   O     0.29077   0.76915   0.07599   0.00000  Uiso   1.00
O434   O     0.22485   0.75086   0.14116   0.00000  Uiso   1.00
O435   O     0.29407   0.73588   0.49016   0.00000  Uiso   1.00
O436   O     0.23107   0.68825   0.47892   0.00000  Uiso   1.00
O437   O     0.26461   0.74475   0.42324   0.00000  Uiso   1.00
O438   O     0.17930   0.74686   0.28213   0.00000  Uiso   1.00
O439   O     0.13935   0.89430   0.11647   0.00000  Uiso   1.00
O440   O     0.09318   0.86276   0.06711   0.00000  Uiso   1.00
O441   O     0.09289   0.82349   0.13378   0.00000  Uiso   1.00
O442   O     0.14632   0.92751   0.27013   0.00000  Uiso   1.00
O443   O     0.07412   0.79958   0.23413   0.00000  Uiso   1.00
O444   O     0.26693   0.85939   0.21360   0.00000  Uiso   1.00
O445   O     0.07071   0.85544   0.28213   0.00000  Uiso   1.00
O446   O     0.25491   0.81892   0.27013   0.00000  Uiso   1.00
O447   O     0.13760   0.73610   0.23413   0.00000  Uiso   1.00
O448   O     0.20345   0.92286   0.21360   0.00000  Uiso   1.00
S449   S     0.24474   0.74955   0.08547   0.00000  Uiso   1.00
S450   S     0.25254   0.73240   0.47647   0.00000  Uiso   1.00
S451   S     0.12258   0.85412   0.09427   0.00000  Uiso   1.00
Zn452  Zn    0.19338   0.80661   0.28734   0.00000  Uiso   1.00
Zn453  Zn    0.13379   0.79124   0.21875   0.00000  Uiso   1.00
Zn454  Zn    0.21056   0.86442   0.20657   0.00000  Uiso   1.00
Zn455  Zn    0.12893   0.87106   0.28733   0.00000  Uiso   1.00
C456   C     0.38608   0.82621   0.25992   0.00000  Uiso   1.00
C457   C     0.50054   0.82883   0.06082   0.00000  Uiso   1.00
C458   C     0.54943   0.77655   0.05757   0.00000  Uiso   1.00
C459   C     0.61403   0.84062   0.24020   0.00000  Uiso   1.00
C460   C     0.47863   0.86198   0.41873   0.00000  Uiso   1.00
C461   C     0.65981   0.84426   0.23708   0.00000  Uiso   1.00
C462   C     0.34081   0.82339   0.26352   0.00000  Uiso   1.00
C463   C     0.51353   0.98908   0.23677   0.00000  Uiso   1.00
C464   C     0.48492   0.67869   0.26383   0.00000  Uiso   1.00
C465   C     0.48959   0.72260   0.25999   0.00000  Uiso   1.00
C466   C     0.50981   0.94451   0.24022   0.00000  Uiso   1.00
C467   C     0.48232   0.91873   0.47593   0.00000  Uiso   1.00
C468   C     0.51786   0.81520   0.12954   0.00000  Uiso   1.00
C469   C     0.48162   0.85090   0.37091   0.00000  Uiso   1.00
C470   C     0.55010   0.76618   0.01175   0.00000  Uiso   1.00
C471   C     0.52370   0.80735   0.08165   0.00000  Uiso   1.00
C472   C     0.47359   0.90338   0.43524   0.00000  Uiso   1.00
C473   C     0.49505   0.89273   0.00120   0.00000  Uiso   1.00
C474   C     0.49557   0.84985   0.48811   0.00000  Uiso   1.00
C475   C     0.48848   0.83454   0.44582   0.00000  Uiso   1.00
C476   C     0.50701   0.82248   0.01419   0.00000  Uiso   1.00
C477   C     0.52423   0.78605   0.49246   0.00000  Uiso   1.00
C478   C     0.51305   0.76950   0.45282   0.00000  Uiso   1.00
C479   C     0.49267   0.79239   0.43150   0.00000  Uiso   1.00
F480   F     0.54675   0.67385   0.20557   0.00000  Uiso   1.00
F481   F     0.45089   0.99545   0.29518   0.00000  Uiso   1.00
F482   F     0.48042   0.95954   0.48998   0.00000  Uiso   1.00
H483   H     0.65271   0.80305   0.28726   0.00000  Uiso   1.00
H484   H     0.51844   0.73819   0.43894   0.00000  Uiso   1.00
H485   H     0.46618   0.92487   0.41505   0.00000  Uiso   1.00
H486   H     0.50479   0.90642   0.03093   0.00000  Uiso   1.00
H487   H     0.48214   0.77712   0.40281   0.00000  Uiso   1.00
H488   H     0.34858   0.86411   0.21326   0.00000  Uiso   1.00
H489   H     0.58002   0.76878   0.15427   0.00000  Uiso   1.00
H490   H     0.61368   0.72209   0.40565   0.00000  Uiso   1.00
H491   H     0.40285   0.83967   0.15065   0.00000  Uiso   1.00
O492   O     0.50000   0.83333   0.25000   0.00000  Uiso   1.00
O493   O     0.48784   0.79304   0.15458   0.00000  Uiso   1.00
O494   O     0.46274   0.87058   0.34968   0.00000  Uiso   1.00
O495   O     0.54157   0.84425   0.14606   0.00000  Uiso   1.00
O496   O     0.50785   0.82546   0.34968   0.00000  Uiso   1.00
O497   O     0.57667   0.70444   0.06833   0.00000  Uiso   1.00
O498   O     0.62411   0.76915   0.07599   0.00000  Uiso   1.00
O499   O     0.55818   0.75086   0.14116   0.00000  Uiso   1.00
O500   O     0.62741   0.73588   0.49016   0.00000  Uiso   1.00
O501   O     0.56440   0.68825   0.47892   0.00000  Uiso   1.00
O502   O     0.59795   0.74475   0.42324   0.00000  Uiso   1.00
O503   O     0.51264   0.74686   0.28213   0.00000  Uiso   1.00
O504   O     0.47269   0.89430   0.11647   0.00000  Uiso   1.00
O505   O     0.42651   0.86276   0.06711   0.00000  Uiso   1.00
O506   O     0.42622   0.82349   0.13378   0.00000  Uiso   1.00
O507   O     0.47965   0.92751   0.27013   0.00000  Uiso   1.00
O508   O     0.40745   0.79958   0.23413   0.00000  Uiso   1.00
O509   O     0.60026   0.85939   0.21360   0.00000  Uiso   1.00
O510   O     0.40405   0.85544   0.28213   0.00000  Uiso   1.00
O511   O     0.58824   0.81892   0.27013   0.00000  Uiso   1.00
O512   O     0.47093   0.73610   0.23413   0.00000  Uiso   1.00
O513   O     0.53678   0.92286   0.21360   0.00000  Uiso   1.00
S514   S     0.57807   0.74955   0.08547   0.00000  Uiso   1.00
S515   S     0.58588   0.73240   0.47647   0.00000  Uiso   1.00
S516   S     0.45592   0.85412   0.09427   0.00000  Uiso   1.00
Zn517  Zn    0.52672   0.80661   0.28734   0.00000  Uiso   1.00
Zn518  Zn    0.46713   0.79124   0.21875   0.00000  Uiso   1.00
Zn519  Zn    0.54389   0.86442   0.20657   0.00000  Uiso   1.00
Zn520  Zn    0.46226   0.87106   0.28733   0.00000  Uiso   1.00
C521   C     0.71942   0.82621   0.25992   0.00000  Uiso   1.00
C522   C     0.83387   0.82883   0.06082   0.00000  Uiso   1.00
C523   C     0.88276   0.77655   0.05757   0.00000  Uiso   1.00
C524   C     0.94737   0.84062   0.24020   0.00000  Uiso   1.00
C525   C     0.81196   0.86198   0.41873   0.00000  Uiso   1.00
C526   C     0.99314   0.84426   0.23708   0.00000  Uiso   1.00
C527   C     0.67414   0.82339   0.26352   0.00000  Uiso   1.00
C528   C     0.84687   0.98908   0.23677   0.00000  Uiso   1.00
C529   C     0.81825   0.67869   0.26383   0.00000  Uiso   1.00
C530   C     0.82292   0.72260   0.25999   0.00000  Uiso   1.00
C531   C     0.84314   0.94451   0.24022   0.00000  Uiso   1.00
C532   C     0.81566   0.91873   0.47593   0.00000  Uiso   1.00
C533   C     0.85119   0.81520   0.12954   0.00000  Uiso   1.00
C534   C     0.81495   0.85090   0.37091   0.00000  Uiso   1.00
C535   C     0.88343   0.76618   0.01175   0.00000  Uiso   1.00
C536   C     0.85703   0.80735   0.08165   0.00000  Uiso   1.00
C537   C     0.80692   0.90338   0.43524   0.00000  Uiso   1.00
C538   C     0.82839   0.89273   0.00120   0.00000  Uiso   1.00
C539   C     0.82891   0.84985   0.48811   0.00000  Uiso   1.00
C540   C     0.82182   0.83454   0.44582   0.00000  Uiso   1.00
C541   C     0.84034   0.82248   0.01419   0.00000  Uiso   1.00
C542   C     0.85757   0.78605   0.49246   0.00000  Uiso   1.00
C543   C     0.84638   0.76950   0.45282   0.00000  Uiso   1.00
C544   C     0.82601   0.79239   0.43150   0.00000  Uiso   1.00
F545   F     0.88008   0.67385   0.20557   0.00000  Uiso   1.00
F546   F     0.78422   0.99545   0.29518   0.00000  Uiso   1.00
F547   F     0.81375   0.95954   0.48998   0.00000  Uiso   1.00
H548   H     0.98604   0.80305   0.28726   0.00000  Uiso   1.00
H549   H     0.85177   0.73819   0.43894   0.00000  Uiso   1.00
H550   H     0.79951   0.92487   0.41505   0.00000  Uiso   1.00
H551   H     0.83812   0.90642   0.03093   0.00000  Uiso   1.00
H552   H     0.81547   0.77712   0.40281   0.00000  Uiso   1.00
H553   H     0.68191   0.86411   0.21326   0.00000  Uiso   1.00
H554   H     0.91336   0.76878   0.15427   0.00000  Uiso   1.00
H555   H     0.94701   0.72209   0.40565   0.00000  Uiso   1.00
H556   H     0.73618   0.83967   0.15065   0.00000  Uiso   1.00
O557   O     0.83333   0.83333   0.25000   0.00000  Uiso   1.00
O558   O     0.82118   0.79304   0.15458   0.00000  Uiso   1.00
O559   O     0.79607   0.87058   0.34968   0.00000  Uiso   1.00
O560   O     0.87491   0.84425   0.14606   0.00000  Uiso   1.00
O561   O     0.84118   0.82546   0.34968   0.00000  Uiso   1.00
O562   O     0.91000   0.70444   0.06833   0.00000  Uiso   1.00
O563   O     0.95744   0.76915   0.07599   0.00000  Uiso   1.00
O564   O     0.89152   0.75086   0.14116   0.00000  Uiso   1.00
O565   O     0.96074   0.73588   0.49016   0.00000  Uiso   1.00
O566   O     0.89774   0.68825   0.47892   0.00000  Uiso   1.00
O567   O     0.93128   0.74475   0.42324   0.00000  Uiso   1.00
O568   O     0.84597   0.74686   0.28213   0.00000  Uiso   1.00
O569   O     0.80602   0.89430   0.11647   0.00000  Uiso   1.00
O570   O     0.75984   0.86276   0.06711   0.00000  Uiso   1.00
O571   O     0.75956   0.82349   0.13378   0.00000  Uiso   1.00
O572   O     0.81298   0.92751   0.27013   0.00000  Uiso   1.00
O573   O     0.74078   0.79958   0.23413   0.00000  Uiso   1.00
O574   O     0.93360   0.85939   0.21360   0.00000  Uiso   1.00
O575   O     0.73738   0.85544   0.28213   0.00000  Uiso   1.00
O576   O     0.92158   0.81892   0.27013   0.00000  Uiso   1.00
O577   O     0.80426   0.73610   0.23413   0.00000  Uiso   1.00
O578   O     0.87012   0.92286   0.21360   0.00000  Uiso   1.00
S579   S     0.91140   0.74955   0.08547   0.00000  Uiso   1.00
S580   S     0.91921   0.73240   0.47647   0.00000  Uiso   1.00
S581   S     0.78925   0.85412   0.09427   0.00000  Uiso   1.00
Zn582  Zn    0.86005   0.80661   0.28734   0.00000  Uiso   1.00
Zn583  Zn    0.80046   0.79124   0.21875   0.00000  Uiso   1.00
Zn584  Zn    0.87723   0.86442   0.20657   0.00000  Uiso   1.00
Zn585  Zn    0.79560   0.87106   0.28733   0.00000  Uiso   1.00
C586   C     0.05275   0.15955   0.75992   0.00000  Uiso   1.00
C587   C     0.16720   0.16216   0.56082   0.00000  Uiso   1.00
C588   C     0.21610   0.10989   0.55757   0.00000  Uiso   1.00
C589   C     0.28070   0.17395   0.74020   0.00000  Uiso   1.00
C590   C     0.14529   0.19531   0.91873   0.00000  Uiso   1.00
C591   C     0.32648   0.17760   0.73708   0.00000  Uiso   1.00
C592   C     0.00747   0.15673   0.76352   0.00000  Uiso   1.00
C593   C     0.18020   0.32241   0.73677   0.00000  Uiso   1.00
C594   C     0.15158   0.01202   0.76383   0.00000  Uiso   1.00
C595   C     0.15625   0.05594   0.75999   0.00000  Uiso   1.00
C596   C     0.17647   0.27785   0.74022   0.00000  Uiso   1.00
C597   C     0.14899   0.25206   0.97593   0.00000  Uiso   1.00
C598   C     0.18452   0.14854   0.62954   0.00000  Uiso   1.00
C599   C     0.14829   0.18423   0.87091   0.00000  Uiso   1.00
C600   C     0.21676   0.09952   0.51175   0.00000  Uiso   1.00
C601   C     0.19036   0.14068   0.58165   0.00000  Uiso   1.00
C602   C     0.14025   0.23671   0.93524   0.00000  Uiso   1.00
C603   C     0.16172   0.22607   0.50120   0.00000  Uiso   1.00
C604   C     0.16224   0.18318   0.98811   0.00000  Uiso   1.00
C605   C     0.15515   0.16787   0.94582   0.00000  Uiso   1.00
C606   C     0.17367   0.15582   0.51419   0.00000  Uiso   1.00
C607   C     0.19090   0.11939   0.99246   0.00000  Uiso   1.00
C608   C     0.17972   0.10283   0.95282   0.00000  Uiso   1.00
C609   C     0.15934   0.12572   0.93150   0.00000  Uiso   1.00
F610   F     0.21342   0.00718   0.70557   0.00000  Uiso   1.00
F611   F     0.11755   0.32879   0.79518   0.00000  Uiso   1.00
F612   F     0.14709   0.29287   0.98998   0.00000  Uiso   1.00
H613   H     0.31938   0.13638   0.78726   0.00000  Uiso   1.00
H614   H     0.18510   0.07152   0.93894   0.00000  Uiso   1.00
H615   H     0.13285   0.25821   0.91505   0.00000  Uiso   1.00
H616   H     0.17145   0.23976   0.53093   0.00000  Uiso   1.00
H617   H     0.14880   0.11046   0.90281   0.00000  Uiso   1.00
H618   H     0.01525   0.19744   0.71326   0.00000  Uiso   1.00
H619   H     0.24669   0.10211   0.65427   0.00000  Uiso   1.00
H620   H     0.28034   0.05542   0.90565   0.00000  Uiso   1.00
H621   H     0.06952   0.17300   0.65065   0.00000  Uiso   1.00
O622   O     0.16667   0.16667   0.75000   0.00000  Uiso   1.00
O623   O     0.15451   0.12637   0.65458   0.00000  Uiso   1.00
O624   O     0.12940   0.20391   0.84968   0.00000  Uiso   1.00
O625   O     0.20824   0.17759   0.64606   0.00000  Uiso   1.00
O626   O     0.17451   0.15880   0.84968   0.00000  Uiso   1.00
O627   O     0.24333   0.03778   0.56833   0.00000  Uiso   1.00
O628   O     0.29077   0.10248   0.57599   0.00000  Uiso   1.00
O629   O     0.22485   0.08419   0.64116   0.00000  Uiso   1.00
O630   O     0.29407   0.06921   0.99016   0.00000  Uiso   1.00
O631   O     0.23107   0.02158   0.97892   0.00000  Uiso   1.00
O632   O     0.26461   0.07808   0.92324   0.00000  Uiso   1.00
O633   O     0.17930   0.08019   0.78213   0.00000  Uiso   1.00
O634   O     0.13935   0.22763   0.61647   0.00000  Uiso   1.00
O635   O     0.09318   0.19609   0.56711   0.00000  Uiso   1.00
O636   O     0.09289   0.15683   0.63378   0.00000  Uiso   1.00
O637   O     0.14632   0.26085   0.77013   0.00000  Uiso   1.00
O638   O     0.07412   0.13291   0.73413   0.00000  Uiso   1.00
O639   O     0.26693   0.19272   0.71360   0.00000  Uiso   1.00
O640   O     0.07071   0.18878   0.78213   0.00000  Uiso   1.00
O641   O     0.25491   0.15226   0.77013   0.00000  Uiso   1.00
O642   O     0.13760   0.06944   0.73413   0.00000  Uiso   1.00
O643   O     0.20345   0.25620   0.71360   0.00000  Uiso   1.00
S644   S     0.24474   0.08288   0.58547   0.00000  Uiso   1.00
S645   S     0.25254   0.06573   0.97647   0.00000  Uiso   1.00
S646   S     0.12258   0.18746   0.59427   0.00000  Uiso   1.00
Zn647  Zn    0.19338   0.13994   0.78734   0.00000  Uiso   1.00
Zn648  Zn    0.13379   0.12458   0.71875   0.00000  Uiso   1.00
Zn649  Zn    0.21056   0.19775   0.70657   0.00000  Uiso   1.00
Zn650  Zn    0.12893   0.20439   0.78733   0.00000  Uiso   1.00
C651   C     0.38608   0.15955   0.75992   0.00000  Uiso   1.00
C652   C     0.50054   0.16216   0.56082   0.00000  Uiso   1.00
C653   C     0.54943   0.10989   0.55757   0.00000  Uiso   1.00
C654   C     0.61403   0.17395   0.74020   0.00000  Uiso   1.00
C655   C     0.47863   0.19531   0.91873   0.00000  Uiso   1.00
C656   C     0.65981   0.17760   0.73708   0.00000  Uiso   1.00
C657   C     0.34081   0.15673   0.76352   0.00000  Uiso   1.00
C658   C     0.51353   0.32241   0.73677   0.00000  Uiso   1.00
C659   C     0.48492   0.01202   0.76383   0.00000  Uiso   1.00
C660   C     0.48959   0.05594   0.75999   0.00000  Uiso   1.00
C661   C     0.50981   0.27785   0.74022   0.00000  Uiso   1.00
C662   C     0.48232   0.25206   0.97593   0.00000  Uiso   1.00
C663   C     0.51786   0.14854   0.62954   0.00000  Uiso   1.00
C664   C     0.48162   0.18423   0.87091   0.00000  Uiso   1.00
C665   C     0.55010   0.09952   0.51175   0.00000  Uiso   1.00
C666   C     0.52370   0.14068   0.58165   0.00000  Uiso   1.00
C667   C     0.47359   0.23671   0.93524   0.00000  Uiso   1.00
C668   C     0.49505   0.22607   0.50120   0.00000  Uiso   1.00
C669   C     0.49557   0.18318   0.98811   0.00000  Uiso   1.00
C670   C     0.48848   0.16787   0.94582   0.00000  Uiso   1.00
C671   C     0.50701   0.15582   0.51419   0.00000  Uiso   1.00
C672   C     0.52423   0.11939   0.99246   0.00000  Uiso   1.00
C673   C     0.51305   0.10283   0.95282   0.00000  Uiso   1.00
C674   C     0.49267   0.12572   0.93150   0.00000  Uiso   1.00
F675   F     0.54675   0.00718   0.70557   0.00000  Uiso   1.00
F676   F     0.45089   0.32879   0.79518   0.00000  Uiso   1.00
F677   F     0.48042   0.29287   0.98998   0.00000  Uiso   1.00
H678   H     0.65271   0.13638   0.78726   0.00000  Uiso   1.00
H679   H     0.51844   0.07152   0.93894   0.00000  Uiso   1.00
H680   H     0.46618   0.25821   0.91505   0.00000  Uiso   1.00
H681   H     0.50479   0.23976   0.53093   0.00000  Uiso   1.00
H682   H     0.48214   0.11046   0.90281   0.00000  Uiso   1.00
H683   H     0.34858   0.19744   0.71326   0.00000  Uiso   1.00
H684   H     0.58002   0.10211   0.65427   0.00000  Uiso   1.00
H685   H     0.61368   0.05542   0.90565   0.00000  Uiso   1.00
H686   H     0.40285   0.17300   0.65065   0.00000  Uiso   1.00
O687   O     0.50000   0.16667   0.75000   0.00000  Uiso   1.00
O688   O     0.48784   0.12637   0.65458   0.00000  Uiso   1.00
O689   O     0.46274   0.20391   0.84968   0.00000  Uiso   1.00
O690   O     0.54157   0.17759   0.64606   0.00000  Uiso   1.00
O691   O     0.50785   0.15880   0.84968   0.00000  Uiso   1.00
O692   O     0.57667   0.03778   0.56833   0.00000  Uiso   1.00
O693   O     0.62411   0.10248   0.57599   0.00000  Uiso   1.00
O694   O     0.55818   0.08419   0.64116   0.00000  Uiso   1.00
O695   O     0.62741   0.06921   0.99016   0.00000  Uiso   1.00
O696   O     0.56440   0.02158   0.97892   0.00000  Uiso   1.00
O697   O     0.59795   0.07808   0.92324   0.00000  Uiso   1.00
O698   O     0.51264   0.08019   0.78213   0.00000  Uiso   1.00
O699   O     0.47269   0.22763   0.61647   0.00000  Uiso   1.00
O700   O     0.42651   0.19609   0.56711   0.00000  Uiso   1.00
O701   O     0.42622   0.15683   0.63378   0.00000  Uiso   1.00
O702   O     0.47965   0.26085   0.77013   0.00000  Uiso   1.00
O703   O     0.40745   0.13291   0.73413   0.00000  Uiso   1.00
O704   O     0.60026   0.19272   0.71360   0.00000  Uiso   1.00
O705   O     0.40405   0.18878   0.78213   0.00000  Uiso   1.00
O706   O     0.58824   0.15226   0.77013   0.00000  Uiso   1.00
O707   O     0.47093   0.06944   0.73413   0.00000  Uiso   1.00
O708   O     0.53678   0.25620   0.71360   0.00000  Uiso   1.00
S709   S     0.57807   0.08288   0.58547   0.00000  Uiso   1.00
S710   S     0.58588   0.06573   0.97647   0.00000  Uiso   1.00
S711   S     0.45592   0.18746   0.59427   0.00000  Uiso   1.00
Zn712  Zn    0.52672   0.13994   0.78734   0.00000  Uiso   1.00
Zn713  Zn    0.46713   0.12458   0.71875   0.00000  Uiso   1.00
Zn714  Zn    0.54389   0.19775   0.70657   0.00000  Uiso   1.00
Zn715  Zn    0.46226   0.20439   0.78733   0.00000  Uiso   1.00
C716   C     0.71942   0.15955   0.75992   0.00000  Uiso   1.00
C717   C     0.83387   0.16216   0.56082   0.00000  Uiso   1.00
C718   C     0.88276   0.10989   0.55757   0.00000  Uiso   1.00
C719   C     0.94737   0.17395   0.74020   0.00000  Uiso   1.00
C720   C     0.81196   0.19531   0.91873   0.00000  Uiso   1.00
C721   C     0.99314   0.17760   0.73708   0.00000  Uiso   1.00
C722   C     0.67414   0.15673   0.76352   0.00000  Uiso   1.00
C723   C     0.84687   0.32241   0.73677   0.00000  Uiso   1.00
C724   C     0.81825   0.01202   0.76383   0.00000  Uiso   1.00
C725   C     0.82292   0.05594   0.75999   0.00000  Uiso   1.00
C726   C     0.84314   0.27785   0.74022   0.00000  Uiso   1.00
C727   C     0.81566   0.25206   0.97593   0.00000  Uiso   1.00
C728   C     0.85119   0.14854   0.62954   0.00000  Uiso   1.00
C729   C     0.81495   0.18423   0.87091   0.00000  Uiso   1.00
C730   C     0.88343   0.09952   0.51175   0.00000  Uiso   1.00
C731   C     0.85703   0.14068   0.58165   0.00000  Uiso   1.00
C732   C     0.80692   0.23671   0.93524   0.00000  Uiso   1.00
C733   C     0.82839   0.22607   0.50120   0.00000  Uiso   1.00
C734   C     0.82891   0.18318   0.98811   0.00000  Uiso   1.00
C735   C     0.82182   0.16787   0.94582   0.00000  Uiso   1.00
C736   C     0.84034   0.15582   0.51419   0.00000  Uiso   1.00
C737   C     0.85757   0.11939   0.99246   0.00000  Uiso   1.00
C738   C     0.84638   0.10283   0.95282   0.00000  Uiso   1.00
C739   C     0.82601   0.12572   0.93150   0.00000  Uiso   1.00
F740   F     0.88008   0.00718   0.70557   0.00000  Uiso   1.00
F741   F     0.78422   0.32879   0.79518   0.00000  Uiso   1.00
F742   F     0.81375   0.29287   0.98998   0.00000  Uiso   1.00
H743   H     0.98604   0.13638   0.78726   0.00000  Uiso   1.00
H744   H     0.85177   0.07152   0.93894   0.00000  Uiso   1.00
H745   H     0.79951   0.25821   0.91505   0.00000  Uiso   1.00
H746   H     0.83812   0.23976   0.53093   0.00000  Uiso   1.00
H747   H     0.81547   0.11046   0.90281   0.00000  Uiso   1.00
H748   H     0.68191   0.19744   0.71326   0.00000  Uiso   1.00
H749   H     0.91336   0.10211   0.65427   0.00000  Uiso   1.00
H750   H     0.94701   0.05542   0.90565   0.00000  Uiso   1.00
H751   H     0.73618   0.17300   0.65065   0.00000  Uiso   1.00
O752   O     0.83333   0.16667   0.75000   0.00000  Uiso   1.00
O753   O     0.82118   0.12637   0.65458   0.00000  Uiso   1.00
O754   O     0.79607   0.20391   0.84968   0.00000  Uiso   1.00
O755   O     0.87491   0.17759   0.64606   0.00000  Uiso   1.00
O756   O     0.84118   0.15880   0.84968   0.00000  Uiso   1.00
O757   O     0.91000   0.03778   0.56833   0.00000  Uiso   1.00
O758   O     0.95744   0.10248   0.57599   0.00000  Uiso   1.00
O759   O     0.89152   0.08419   0.64116   0.00000  Uiso   1.00
O760   O     0.96074   0.06921   0.99016   0.00000  Uiso   1.00
O761   O     0.89774   0.02158   0.97892   0.00000  Uiso   1.00
O762   O     0.93128   0.07808   0.92324   0.00000  Uiso   1.00
O763   O     0.84597   0.08019   0.78213   0.00000  Uiso   1.00
O764   O     0.80602   0.22763   0.61647   0.00000  Uiso   1.00
O765   O     0.75984   0.19609   0.56711   0.00000  Uiso   1.00
O766   O     0.75956   0.15683   0.63378   0.00000  Uiso   1.00
O767   O     0.81298   0.26085   0.77013   0.00000  Uiso   1.00
O768   O     0.74078   0.13291   0.73413   0.00000  Uiso   1.00
O769   O     0.93360   0.19272   0.71360   0.00000  Uiso   1.00
O770   O     0.73738   0.18878   0.78213   0.00000  Uiso   1.00
O771   O     0.92158   0.15226   0.77013   0.00000  Uiso   1.00
O772   O     0.80426   0.06944   0.73413   0.00000  Uiso   1.00
O773   O     0.87012   0.25620   0.71360   0.00000  Uiso   1.00
S774   S     0.91140   0.08288   0.58547   0.00000  Uiso   1.00
S775   S     0.91921   0.06573   0.97647   0.00000  Uiso   1.00
S776   S     0.78925   0.18746   0.59427   0.00000  Uiso   1.00
Zn777  Zn    0.86005   0.13994   0.78734   0.00000  Uiso   1.00
Zn778  Zn    0.80046   0.12458   0.71875   0.00000  Uiso   1.00
Zn779  Zn    0.87723   0.19775   0.70657   0.00000  Uiso   1.00
Zn780  Zn    0.79560   0.20439   0.78733   0.00000  Uiso   1.00
C781   C     0.05275   0.49288   0.75992   0.00000  Uiso   1.00
C782   C     0.16720   0.49550   0.56082   0.00000  Uiso   1.00
C783   C     0.21610   0.44322   0.55757   0.00000  Uiso   1.00
C784   C     0.28070   0.50729   0.74020   0.00000  Uiso   1.00
C785   C     0.14529   0.52865   0.91873   0.00000  Uiso   1.00
C786   C     0.32648   0.51093   0.73708   0.00000  Uiso   1.00
C787   C     0.00747   0.49006   0.76352   0.00000  Uiso   1.00
C788   C     0.18020   0.65574   0.73677   0.00000  Uiso   1.00
C789   C     0.15158   0.34535   0.76383   0.00000  Uiso   1.00
C790   C     0.15625   0.38927   0.75999   0.00000  Uiso   1.00
C791   C     0.17647   0.61118   0.74022   0.00000  Uiso   1.00
C792   C     0.14899   0.58539   0.97593   0.00000  Uiso   1.00
C793   C     0.18452   0.48187   0.62954   0.00000  Uiso   1.00
C794   C     0.14829   0.51756   0.87091   0.00000  Uiso   1.00
C795   C     0.21676   0.43285   0.51175   0.00000  Uiso   1.00
C796   C     0.19036   0.47402   0.58165   0.00000  Uiso   1.00
C797   C     0.14025   0.57005   0.93524   0.00000  Uiso   1.00
C798   C     0.16172   0.55940   0.50120   0.00000  Uiso   1.00
C799   C     0.16224   0.51652   0.98811   0.00000  Uiso   1.00
C800   C     0.15515   0.50120   0.94582   0.00000  Uiso   1.00
C801   C     0.17367   0.48915   0.51419   0.00000  Uiso   1.00
C802   C     0.19090   0.45272   0.99246   0.00000  Uiso   1.00
C803   C     0.17972   0.43617   0.95282   0.00000  Uiso   1.00
C804   C     0.15934   0.45906   0.93150   0.00000  Uiso   1.00
F805   F     0.21342   0.34051   0.70557   0.00000  Uiso   1.00
F806   F     0.11755   0.66212   0.79518   0.00000  Uiso   1.00
F807   F     0.14709   0.62621   0.98998   0.00000  Uiso   1.00
H808   H     0.31938   0.46972   0.78726   0.00000  Uiso   1.00
H809   H     0.18510   0.40486   0.93894   0.00000  Uiso   1.00
H810   H     0.13285   0.59154   0.91505   0.00000  Uiso   1.00
H811   H     0.17145   0.57309   0.53093   0.00000  Uiso   1.00
H812   H     0.14880   0.44379   0.90281   0.00000  Uiso   1.00
H813   H     0.01525   0.53078   0.71326   0.00000  Uiso   1.00
H814   H     0.24669   0.43544   0.65427   0.00000  Uiso   1.00
H815   H     0.28034   0.38875   0.90565   0.00000  Uiso   1.00
H816   H     0.06952   0.50633   0.65065   0.00000  Uiso   1.00
O817   O     0.16667   0.50000   0.75000   0.00000  Uiso   1.00
O818   O     0.15451   0.45970   0.65458   0.00000  Uiso   1.00
O819   O     0.12940   0.53724   0.84968   0.00000  Uiso   1.00
O820   O     0.20824   0.51092   0.64606   0.00000  Uiso   1.00
O821   O     0.17451   0.49213   0.84968   0.00000  Uiso   1.00
O822   O     0.24333   0.37111   0.56833   0.00000  Uiso   1.00
O823   O     0.29077   0.43582   0.57599   0.00000  Uiso   1.00
O824   O     0.22485   0.41752   0.64116   0.00000  Uiso   1.00
O825   O     0.29407   0.40254   0.99016   0.00000  Uiso   1.00
O826   O     0.23107   0.35491   0.97892   0.00000  Uiso   1.00
O827   O     0.26461   0.41142   0.92324   0.00000  Uiso   1.00
O828   O     0.17930   0.41352   0.78213   0.00000  Uiso   1.00
O829   O     0.13935   0.56097   0.61647   0.00000  Uiso   1.00
O830   O     0.09318   0.52942   0.56711   0.00000  Uiso   1.00
O831   O     0.09289   0.49016   0.63378   0.00000  Uiso   1.00
O832   O     0.14632   0.59418   0.77013   0.00000  Uiso   1.00
O833   O     0.07412   0.46625   0.73413   0.00000  Uiso   1.00
O834   O     0.26693   0.52605   0.71360   0.00000  Uiso   1.00
O835   O     0.07071   0.52211   0.78213   0.00000  Uiso   1.00
O836   O     0.25491   0.48559   0.77013   0.00000  Uiso   1.00
O837   O     0.13760   0.40277   0.73413   0.00000  Uiso   1.00
O838   O     0.20345   0.58953   0.71360   0.00000  Uiso   1.00
S839   S     0.24474   0.41622   0.58547   0.00000  Uiso   1.00
S840   S     0.25254   0.39907   0.97647   0.00000  Uiso   1.00
S841   S     0.12258   0.52079   0.59427   0.00000  Uiso   1.00
Zn842  Zn    0.19338   0.47327   0.78734   0.00000  Uiso   1.00
Zn843  Zn    0.13379   0.45791   0.71875   0.00000  Uiso   1.00
Zn844  Zn    0.21056   0.53109   0.70657   0.00000  Uiso   1.00
Zn845  Zn    0.12893   0.53773   0.78733   0.00000  Uiso   1.00
C846   C     0.38608   0.49288   0.75992   0.00000  Uiso   1.00
C847   C     0.50054   0.49550   0.56082   0.00000  Uiso   1.00
C848   C     0.54943   0.44322   0.55757   0.00000  Uiso   1.00
C849   C     0.61403   0.50729   0.74020   0.00000  Uiso   1.00
C850   C     0.47863   0.52865   0.91873   0.00000  Uiso   1.00
C851   C     0.65981   0.51093   0.73708   0.00000  Uiso   1.00
C852   C     0.34081   0.49006   0.76352   0.00000  Uiso   1.00
C853   C     0.51353   0.65574   0.73677   0.00000  Uiso   1.00
C854   C     0.48492   0.34535   0.76383   0.00000  Uiso   1.00
C855   C     0.48959   0.38927   0.75999   0.00000  Uiso   1.00
C856   C     0.50981   0.61118   0.74022   0.00000  Uiso   1.00
C857   C     0.48232   0.58539   0.97593   0.00000  Uiso   1.00
C858   C     0.51786   0.48187   0.62954   0.00000  Uiso   1.00
C859   C     0.48162   0.51756   0.87091   0.00000  Uiso   1.00
C860   C     0.55010   0.43285   0.51175   0.00000  Uiso   1.00
C861   C     0.52370   0.47402   0.58165   0.00000  Uiso   1.00
C862   C     0.47359   0.57005   0.93524   0.00000  Uiso   1.00
C863   C     0.49505   0.55940   0.50120   0.00000  Uiso   1.00
C864   C     0.49557   0.51652   0.98811   0.00000  Uiso   1.00
C865   C     0.48848   0.50120   0.94582   0.00000  Uiso   1.00
C866   C     0.50701   0.48915   0.51419   0.00000  Uiso   1.00
C867   C     0.52423   0.45272   0.99246   0.00000  Uiso   1.00
C868   C     0.51305   0.43617   0.95282   0.00000  Uiso   1.00
C869   C     0.49267   0.45906   0.93150   0.00000  Uiso   1.00
F870   F     0.54675   0.34051   0.70557   0.00000  Uiso   1.00
F871   F     0.45089   0.66212   0.79518   0.00000  Uiso   1.00
F872   F     0.48042   0.62621   0.98998   0.00000  Uiso   1.00
H873   H     0.65271   0.46972   0.78726   0.00000  Uiso   1.00
H874   H     0.51844   0.40486   0.93894   0.00000  Uiso   1.00
H875   H     0.46618   0.59154   0.91505   0.00000  Uiso   1.00
H876   H     0.50479   0.57309   0.53093   0.00000  Uiso   1.00
H877   H     0.48214   0.44379   0.90281   0.00000  Uiso   1.00
H878   H     0.34858   0.53078   0.71326   0.00000  Uiso   1.00
H879   H     0.58002   0.43544   0.65427   0.00000  Uiso   1.00
H880   H     0.61368   0.38875   0.90565   0.00000  Uiso   1.00
H881   H     0.40285   0.50633   0.65065   0.00000  Uiso   1.00
O882   O     0.50000   0.50000   0.75000   0.00000  Uiso   1.00
O883   O     0.48784   0.45970   0.65458   0.00000  Uiso   1.00
O884   O     0.46274   0.53724   0.84968   0.00000  Uiso   1.00
O885   O     0.54157   0.51092   0.64606   0.00000  Uiso   1.00
O886   O     0.50785   0.49213   0.84968   0.00000  Uiso   1.00
O887   O     0.57667   0.37111   0.56833   0.00000  Uiso   1.00
O888   O     0.62411   0.43582   0.57599   0.00000  Uiso   1.00
O889   O     0.55818   0.41752   0.64116   0.00000  Uiso   1.00
O890   O     0.62741   0.40254   0.99016   0.00000  Uiso   1.00
O891   O     0.56440   0.35491   0.97892   0.00000  Uiso   1.00
O892   O     0.59795   0.41142   0.92324   0.00000  Uiso   1.00
O893   O     0.51264   0.41352   0.78213   0.00000  Uiso   1.00
O894   O     0.47269   0.56097   0.61647   0.00000  Uiso   1.00
O895   O     0.42651   0.52942   0.56711   0.00000  Uiso   1.00
O896   O     0.42622   0.49016   0.63378   0.00000  Uiso   1.00
O897   O     0.47965   0.59418   0.77013   0.00000  Uiso   1.00
O898   O     0.40745   0.46625   0.73413   0.00000  Uiso   1.00
O899   O     0.60026   0.52605   0.71360   0.00000  Uiso   1.00
O900   O     0.40405   0.52211   0.78213   0.00000  Uiso   1.00
O901   O     0.58824   0.48559   0.77013   0.00000  Uiso   1.00
O902   O     0.47093   0.40277   0.73413   0.00000  Uiso   1.00
O903   O     0.53678   0.58953   0.71360   0.00000  Uiso   1.00
S904   S     0.57807   0.41622   0.58547   0.00000  Uiso   1.00
S905   S     0.58588   0.39907   0.97647   0.00000  Uiso   1.00
S906   S     0.45592   0.52079   0.59427   0.00000  Uiso   1.00
Zn907  Zn    0.52672   0.47327   0.78734   0.00000  Uiso   1.00
Zn908  Zn    0.46713   0.45791   0.71875   0.00000  Uiso   1.00
Zn909  Zn    0.54389   0.53109   0.70657   0.00000  Uiso   1.00
Zn910  Zn    0.46226   0.53773   0.78733   0.00000  Uiso   1.00
C911   C     0.71942   0.49288   0.75992   0.00000  Uiso   1.00
C912   C     0.83387   0.49550   0.56082   0.00000  Uiso   1.00
C913   C     0.88276   0.44322   0.55757   0.00000  Uiso   1.00
C914   C     0.94737   0.50729   0.74020   0.00000  Uiso   1.00
C915   C     0.81196   0.52865   0.91873   0.00000  Uiso   1.00
C916   C     0.99314   0.51093   0.73708   0.00000  Uiso   1.00
C917   C     0.67414   0.49006   0.76352   0.00000  Uiso   1.00
C918   C     0.84687   0.65574   0.73677   0.00000  Uiso   1.00
C919   C     0.81825   0.34535   0.76383   0.00000  Uiso   1.00
C920   C     0.82292   0.38927   0.75999   0.00000  Uiso   1.00
C921   C     0.84314   0.61118   0.74022   0.00000  Uiso   1.00
C922   C     0.81566   0.58539   0.97593   0.00000  Uiso   1.00
C923   C     0.85119   0.48187   0.62954   0.00000  Uiso   1.00
C924   C     0.81495   0.51756   0.87091   0.00000  Uiso   1.00
C925   C     0.88343   0.43285   0.51175   0.00000  Uiso   1.00
C926   C     0.85703   0.47402   0.58165   0.00000  Uiso   1.00
C927   C     0.80692   0.57005   0.93524   0.00000  Uiso   1.00
C928   C     0.82839   0.55940   0.50120   0.00000  Uiso   1.00
C929   C     0.82891   0.51652   0.98811   0.00000  Uiso   1.00
C930   C     0.82182   0.50120   0.94582   0.00000  Uiso   1.00
C931   C     0.84034   0.48915   0.51419   0.00000  Uiso   1.00
C932   C     0.85757   0.45272   0.99246   0.00000  Uiso   1.00
C933   C     0.84638   0.43617   0.95282   0.00000  Uiso   1.00
C934   C     0.82601   0.45906   0.93150   0.00000  Uiso   1.00
F935   F     0.88008   0.34051   0.70557   0.00000  Uiso   1.00
F936   F     0.78422   0.66212   0.79518   0.00000  Uiso   1.00
F937   F     0.81375   0.62621   0.98998   0.00000  Uiso   1.00
H938   H     0.98604   0.46972   0.78726   0.00000  Uiso   1.00
H939   H     0.85177   0.40486   0.93894   0.00000  Uiso   1.00
H940   H     0.79951   0.59154   0.91505   0.00000  Uiso   1.00
H941   H     0.83812   0.57309   0.53093   0.00000  Uiso   1.00
H942   H     0.81547   0.44379   0.90281   0.00000  Uiso   1.00
H943   H     0.68191   0.53078   0.71326   0.00000  Uiso   1.00
H944   H     0.91336   0.43544   0.65427   0.00000  Uiso   1.00
H945   H     0.94701   0.38875   0.90565   0.00000  Uiso   1.00
H946   H     0.73618   0.50633   0.65065   0.00000  Uiso   1.00
O947   O     0.83333   0.50000   0.75000   0.00000  Uiso   1.00
O948   O     0.82118   0.45970   0.65458   0.00000  Uiso   1.00
O949   O     0.79607   0.53724   0.84968   0.00000  Uiso   1.00
O950   O     0.87491   0.51092   0.64606   0.00000  Uiso   1.00
O951   O     0.84118   0.49213   0.84968   0.00000  Uiso   1.00
O952   O     0.91000   0.37111   0.56833   0.00000  Uiso   1.00
O953   O     0.95744   0.43582   0.57599   0.00000  Uiso   1.00
O954   O     0.89152   0.41752   0.64116   0.00000  Uiso   1.00
O955   O     0.96074   0.40254   0.99016   0.00000  Uiso   1.00
O956   O     0.89774   0.35491   0.97892   0.00000  Uiso   1.00
O957   O     0.93128   0.41142   0.92324   0.00000  Uiso   1.00
O958   O     0.84597   0.41352   0.78213   0.00000  Uiso   1.00
O959   O     0.80602   0.56097   0.61647   0.00000  Uiso   1.00
O960   O     0.75984   0.52942   0.56711   0.00000  Uiso   1.00
O961   O     0.75956   0.49016   0.63378   0.00000  Uiso   1.00
O962   O     0.81298   0.59418   0.77013   0.00000  Uiso   1.00
O963   O     0.74078   0.46625   0.73413   0.00000  Uiso   1.00
O964   O     0.93360   0.52605   0.71360   0.00000  Uiso   1.00
O965   O     0.73738   0.52211   0.78213   0.00000  Uiso   1.00
O966   O     0.92158   0.48559   0.77013   0.00000  Uiso   1.00
O967   O     0.80426   0.40277   0.73413   0.00000  Uiso   1.00
O968   O     0.87012   0.58953   0.71360   0.00000  Uiso   1.00
S969   S     0.91140   0.41622   0.58547   0.00000  Uiso   1.00
S970   S     0.91921   0.39907   0.97647   0.00000  Uiso   1.00
S971   S     0.78925   0.52079   0.59427   0.00000  Uiso   1.00
Zn972  Zn    0.86005   0.47327   0.78734   0.00000  Uiso   1.00
Zn973  Zn    0.80046   0.45791   0.71875   0.00000  Uiso   1.00
Zn974  Zn    0.87723   0.53109   0.70657   0.00000  Uiso   1.00
Zn975  Zn    0.79560   0.53773   0.78733   0.00000  Uiso   1.00
C976   C     0.05275   0.82621   0.75992   0.00000  Uiso   1.00
C977   C     0.16720   0.82883   0.56082   0.00000  Uiso   1.00
C978   C     0.21610   0.77655   0.55757   0.00000  Uiso   1.00
C979   C     0.28070   0.84062   0.74020   0.00000  Uiso   1.00
C980   C     0.14529   0.86198   0.91873   0.00000  Uiso   1.00
C981   C     0.32648   0.84426   0.73708   0.00000  Uiso   1.00
C982   C     0.00747   0.82339   0.76352   0.00000  Uiso   1.00
C983   C     0.18020   0.98908   0.73677   0.00000  Uiso   1.00
C984   C     0.15158   0.67869   0.76383   0.00000  Uiso   1.00
C985   C     0.15625   0.72260   0.75999   0.00000  Uiso   1.00
C986   C     0.17647   0.94451   0.74022   0.00000  Uiso   1.00
C987   C     0.14899   0.91873   0.97593   0.00000  Uiso   1.00
C988   C     0.18452   0.81520   0.62954   0.00000  Uiso   1.00
C989   C     0.14829   0.85090   0.87091   0.00000  Uiso   1.00
C990   C     0.21676   0.76618   0.51175   0.00000  Uiso   1.00
C991   C     0.19036   0.80735   0.58165   0.00000  Uiso   1.00
C992   C     0.14025   0.90338   0.93524   0.00000  Uiso   1.00
C993   C     0.16172   0.89273   0.50120   0.00000  Uiso   1.00
C994   C     0.16224   0.84985   0.98811   0.00000  Uiso   1.00
C995   C     0.15515   0.83454   0.94582   0.00000  Uiso   1.00
C996   C     0.17367   0.82248   0.51419   0.00000  Uiso   1.00
C997   C     0.19090   0.78605   0.99246   0.00000  Uiso   1.00
C998   C     0.17972   0.76950   0.95282   0.00000  Uiso   1.00
C999   C     0.15934   0.79239   0.93150   0.00000  Uiso   1.00
F1000  F     0.21342   0.67385   0.70557   0.00000  Uiso   1.00
F1001  F     0.11755   0.99545   0.79518   0.00000  Uiso   1.00
F1002  F     0.14709   0.95954   0.98998   0.00000  Uiso   1.00
H1003  H     0.31938   0.80305   0.78726   0.00000  Uiso   1.00
H1004  H     0.18510   0.73819   0.93894   0.00000  Uiso   1.00
H1005  H     0.13285   0.92487   0.91505   0.00000  Uiso   1.00
H1006  H     0.17145   0.90642   0.53093   0.00000  Uiso   1.00
H1007  H     0.14880   0.77712   0.90281   0.00000  Uiso   1.00
H1008  H     0.01525   0.86411   0.71326   0.00000  Uiso   1.00
H1009  H     0.24669   0.76878   0.65427   0.00000  Uiso   1.00
H1010  H     0.28034   0.72209   0.90565   0.00000  Uiso   1.00
H1011  H     0.06952   0.83967   0.65065   0.00000  Uiso   1.00
O1012  O     0.16667   0.83333   0.75000   0.00000  Uiso   1.00
O1013  O     0.15451   0.79304   0.65458   0.00000  Uiso   1.00
O1014  O     0.12940   0.87058   0.84968   0.00000  Uiso   1.00
O1015  O     0.20824   0.84425   0.64606   0.00000  Uiso   1.00
O1016  O     0.17451   0.82546   0.84968   0.00000  Uiso   1.00
O1017  O     0.24333   0.70444   0.56833   0.00000  Uiso   1.00
O1018  O     0.29077   0.76915   0.57599   0.00000  Uiso   1.00
O1019  O     0.22485   0.75086   0.64116   0.00000  Uiso   1.00
O1020  O     0.29407   0.73588   0.99016   0.00000  Uiso   1.00
O1021  O     0.23107   0.68825   0.97892   0.00000  Uiso   1.00
O1022  O     0.26461   0.74475   0.92324   0.00000  Uiso   1.00
O1023  O     0.17930   0.74686   0.78213   0.00000  Uiso   1.00
O1024  O     0.13935   0.89430   0.61647   0.00000  Uiso   1.00
O1025  O     0.09318   0.86276   0.56711   0.00000  Uiso   1.00
O1026  O     0.09289   0.82349   0.63378   0.00000  Uiso   1.00
O1027  O     0.14632   0.92751   0.77013   0.00000  Uiso   1.00
O1028  O     0.07412   0.79958   0.73413   0.00000  Uiso   1.00
O1029  O     0.26693   0.85939   0.71360   0.00000  Uiso   1.00
O1030  O     0.07071   0.85544   0.78213   0.00000  Uiso   1.00
O1031  O     0.25491   0.81892   0.77013   0.00000  Uiso   1.00
O1032  O     0.13760   0.73610   0.73413   0.00000  Uiso   1.00
O1033  O     0.20345   0.92286   0.71360   0.00000  Uiso   1.00
S1034  S     0.24474   0.74955   0.58547   0.00000  Uiso   1.00
S1035  S     0.25254   0.73240   0.97647   0.00000  Uiso   1.00
S1036  S     0.12258   0.85412   0.59427   0.00000  Uiso   1.00
Zn1037 Zn    0.19338   0.80661   0.78734   0.00000  Uiso   1.00
Zn1038 Zn    0.13379   0.79124   0.71875   0.00000  Uiso   1.00
Zn1039 Zn    0.21056   0.86442   0.70657   0.00000  Uiso   1.00
Zn1040 Zn    0.12893   0.87106   0.78733   0.00000  Uiso   1.00
C1041  C     0.38608   0.82621   0.75992   0.00000  Uiso   1.00
C1042  C     0.50054   0.82883   0.56082   0.00000  Uiso   1.00
C1043  C     0.54943   0.77655   0.55757   0.00000  Uiso   1.00
C1044  C     0.61403   0.84062   0.74020   0.00000  Uiso   1.00
C1045  C     0.47863   0.86198   0.91873   0.00000  Uiso   1.00
C1046  C     0.65981   0.84426   0.73708   0.00000  Uiso   1.00
C1047  C     0.34081   0.82339   0.76352   0.00000  Uiso   1.00
C1048  C     0.51353   0.98908   0.73677   0.00000  Uiso   1.00
C1049  C     0.48492   0.67869   0.76383   0.00000  Uiso   1.00
C1050  C     0.48959   0.72260   0.75999   0.00000  Uiso   1.00
C1051  C     0.50981   0.94451   0.74022   0.00000  Uiso   1.00
C1052  C     0.48232   0.91873   0.97593   0.00000  Uiso   1.00
C1053  C     0.51786   0.81520   0.62954   0.00000  Uiso   1.00
C1054  C     0.48162   0.85090   0.87091   0.00000  Uiso   1.00
C1055  C     0.55010   0.76618   0.51175   0.00000  Uiso   1.00
C1056  C     0.52370   0.80735   0.58165   0.00000  Uiso   1.00
C1057  C     0.47359   0.90338   0.93524   0.00000  Uiso   1.00
C1058  C     0.49505   0.89273   0.50120   0.00000  Uiso   1.00
C1059  C     0.49557   0.84985   0.98811   0.00000  Uiso   1.00
C1060  C     0.48848   0.83454   0.94582   0.00000  Uiso   1.00
C1061  C     0.50701   0.82248   0.51419   0.00000  Uiso   1.00
C1062  C     0.52423   0.78605   0.99246   0.00000  Uiso   1.00
C1063  C     0.51305   0.76950   0.95282   0.00000  Uiso   1.00
C1064  C     0.49267   0.79239   0.93150   0.00000  Uiso   1.00
F1065  F     0.54675   0.67385   0.70557   0.00000  Uiso   1.00
F1066  F     0.45089   0.99545   0.79518   0.00000  Uiso   1.00
F1067  F     0.48042   0.95954   0.98998   0.00000  Uiso   1.00
H1068  H     0.65271   0.80305   0.78726   0.00000  Uiso   1.00
H1069  H     0.51844   0.73819   0.93894   0.00000  Uiso   1.00
H1070  H     0.46618   0.92487   0.91505   0.00000  Uiso   1.00
H1071  H     0.50479   0.90642   0.53093   0.00000  Uiso   1.00
H1072  H     0.48214   0.77712   0.90281   0.00000  Uiso   1.00
H1073  H     0.34858   0.86411   0.71326   0.00000  Uiso   1.00
H1074  H     0.58002   0.76878   0.65427   0.00000  Uiso   1.00
H1075  H     0.61368   0.72209   0.90565   0.00000  Uiso   1.00
H1076  H     0.40285   0.83967   0.65065   0.00000  Uiso   1.00
O1077  O     0.50000   0.83333   0.75000   0.00000  Uiso   1.00
O1078  O     0.48784   0.79304   0.65458   0.00000  Uiso   1.00
O1079  O     0.46274   0.87058   0.84968   0.00000  Uiso   1.00
O1080  O     0.54157   0.84425   0.64606   0.00000  Uiso   1.00
O1081  O     0.50785   0.82546   0.84968   0.00000  Uiso   1.00
O1082  O     0.57667   0.70444   0.56833   0.00000  Uiso   1.00
O1083  O     0.62411   0.76915   0.57599   0.00000  Uiso   1.00
O1084  O     0.55818   0.75086   0.64116   0.00000  Uiso   1.00
O1085  O     0.62741   0.73588   0.99016   0.00000  Uiso   1.00
O1086  O     0.56440   0.68825   0.97892   0.00000  Uiso   1.00
O1087  O     0.59795   0.74475   0.92324   0.00000  Uiso   1.00
O1088  O     0.51264   0.74686   0.78213   0.00000  Uiso   1.00
O1089  O     0.47269   0.89430   0.61647   0.00000  Uiso   1.00
O1090  O     0.42651   0.86276   0.56711   0.00000  Uiso   1.00
O1091  O     0.42622   0.82349   0.63378   0.00000  Uiso   1.00
O1092  O     0.47965   0.92751   0.77013   0.00000  Uiso   1.00
O1093  O     0.40745   0.79958   0.73413   0.00000  Uiso   1.00
O1094  O     0.60026   0.85939   0.71360   0.00000  Uiso   1.00
O1095  O     0.40405   0.85544   0.78213   0.00000  Uiso   1.00
O1096  O     0.58824   0.81892   0.77013   0.00000  Uiso   1.00
O1097  O     0.47093   0.73610   0.73413   0.00000  Uiso   1.00
O1098  O     0.53678   0.92286   0.71360   0.00000  Uiso   1.00
S1099  S     0.57807   0.74955   0.58547   0.00000  Uiso   1.00
S1100  S     0.58588   0.73240   0.97647   0.00000  Uiso   1.00
S1101  S     0.45592   0.85412   0.59427   0.00000  Uiso   1.00
Zn1102 Zn    0.52672   0.80661   0.78734   0.00000  Uiso   1.00
Zn1103 Zn    0.46713   0.79124   0.71875   0.00000  Uiso   1.00
Zn1104 Zn    0.54389   0.86442   0.70657   0.00000  Uiso   1.00
Zn1105 Zn    0.46226   0.87106   0.78733   0.00000  Uiso   1.00
C1106  C     0.71942   0.82621   0.75992   0.00000  Uiso   1.00
C1107  C     0.83387   0.82883   0.56082   0.00000  Uiso   1.00
C1108  C     0.88276   0.77655   0.55757   0.00000  Uiso   1.00
C1109  C     0.94737   0.84062   0.74020   0.00000  Uiso   1.00
C1110  C     0.81196   0.86198   0.91873   0.00000  Uiso   1.00
C1111  C     0.99314   0.84426   0.73708   0.00000  Uiso   1.00
C1112  C     0.67414   0.82339   0.76352   0.00000  Uiso   1.00
C1113  C     0.84687   0.98908   0.73677   0.00000  Uiso   1.00
C1114  C     0.81825   0.67869   0.76383   0.00000  Uiso   1.00
C1115  C     0.82292   0.72260   0.75999   0.00000  Uiso   1.00
C1116  C     0.84314   0.94451   0.74022   0.00000  Uiso   1.00
C1117  C     0.81566   0.91873   0.97593   0.00000  Uiso   1.00
C1118  C     0.85119   0.81520   0.62954   0.00000  Uiso   1.00
C1119  C     0.81495   0.85090   0.87091   0.00000  Uiso   1.00
C1120  C     0.88343   0.76618   0.51175   0.00000  Uiso   1.00
C1121  C     0.85703   0.80735   0.58165   0.00000  Uiso   1.00
C1122  C     0.80692   0.90338   0.93524   0.00000  Uiso   1.00
C1123  C     0.82839   0.89273   0.50120   0.00000  Uiso   1.00
C1124  C     0.82891   0.84985   0.98811   0.00000  Uiso   1.00
C1125  C     0.82182   0.83454   0.94582   0.00000  Uiso   1.00
C1126  C     0.84034   0.82248   0.51419   0.00000  Uiso   1.00
C1127  C     0.85757   0.78605   0.99246   0.00000  Uiso   1.00
C1128  C     0.84638   0.76950   0.95282   0.00000  Uiso   1.00
C1129  C     0.82601   0.79239   0.93150   0.00000  Uiso   1.00
F1130  F     0.88008   0.67385   0.70557   0.00000  Uiso   1.00
F1131  F     0.78422   0.99545   0.79518   0.00000  Uiso   1.00
F1132  F     0.81375   0.95954   0.98998   0.00000  Uiso   1.00
H1133  H     0.98604   0.80305   0.78726   0.00000  Uiso   1.00
H1134  H     0.85177   0.73819   0.93894   0.00000  Uiso   1.00
H1135  H     0.79951   0.92487   0.91505   0.00000  Uiso   1.00
H1136  H     0.83812   0.90642   0.53093   0.00000  Uiso   1.00
H1137  H     0.81547   0.77712   0.90281   0.00000  Uiso   1.00
H1138  H     0.68191   0.86411   0.71326   0.00000  Uiso   1.00
H1139  H     0.91336   0.76878   0.65427   0.00000  Uiso   1.00
H1140  H     0.94701   0.72209   0.90565   0.00000  Uiso   1.00
H1141  H     0.73618   0.83967   0.65065   0.00000  Uiso   1.00
O1142  O     0.83333   0.83333   0.75000   0.00000  Uiso   1.00
O1143  O     0.82118   0.79304   0.65458   0.00000  Uiso   1.00
O1144  O     0.79607   0.87058   0.84968   0.00000  Uiso   1.00
O1145  O     0.87491   0.84425   0.64606   0.00000  Uiso   1.00
O1146  O     0.84118   0.82546   0.84968   0.00000  Uiso   1.00
O1147  O     0.91000   0.70444   0.56833   0.00000  Uiso   1.00
O1148  O     0.95744   0.76915   0.57599   0.00000  Uiso   1.00
O1149  O     0.89152   0.75086   0.64116   0.00000  Uiso   1.00
O1150  O     0.96074   0.73588   0.99016   0.00000  Uiso   1.00
O1151  O     0.89774   0.68825   0.97892   0.00000  Uiso   1.00
O1152  O     0.93128   0.74475   0.92324   0.00000  Uiso   1.00
O1153  O     0.84597   0.74686   0.78213   0.00000  Uiso   1.00
O1154  O     0.80602   0.89430   0.61647   0.00000  Uiso   1.00
O1155  O     0.75984   0.86276   0.56711   0.00000  Uiso   1.00
O1156  O     0.75956   0.82349   0.63378   0.00000  Uiso   1.00
O1157  O     0.81298   0.92751   0.77013   0.00000  Uiso   1.00
O1158  O     0.74078   0.79958   0.73413   0.00000  Uiso   1.00
O1159  O     0.93360   0.85939   0.71360   0.00000  Uiso   1.00
O1160  O     0.73738   0.85544   0.78213   0.00000  Uiso   1.00
O1161  O     0.92158   0.81892   0.77013   0.00000  Uiso   1.00
O1162  O     0.80426   0.73610   0.73413   0.00000  Uiso   1.00
O1163  O     0.87012   0.92286   0.71360   0.00000  Uiso   1.00
S1164  S     0.91140   0.74955   0.58547   0.00000  Uiso   1.00
S1165  S     0.91921   0.73240   0.97647   0.00000  Uiso   1.00
S1166  S     0.78925   0.85412   0.59427   0.00000  Uiso   1.00
Zn1167 Zn    0.86005   0.80661   0.78734   0.00000  Uiso   1.00
Zn1168 Zn    0.80046   0.79124   0.71875   0.00000  Uiso   1.00
Zn1169 Zn    0.87723   0.86442   0.70657   0.00000  Uiso   1.00
Zn1170 Zn    0.79560   0.87106   0.78733   0.00000  Uiso   1.00
loop_
_geom_bond_atom_site_label_1
_geom_bond_atom_site_label_2
_geom_bond_distance
_geom_bond_site_symmetry_2
_ccdc_geom_bond_type
C1     O55     1.271   .     A
C1     O53     1.269   .     A
C1     C7      1.436   .     S
C2     C16     1.411   .     A
C2     C21     1.407   .     A
C2     S61     1.801   .     S
C3     C15     1.423   .     A
C3     C16     1.422   .     A
C3     S59     1.798   .     S
C4     O56     1.282   .     A
C4     O54     1.285   .     A
C4     C6      1.453   .     S
C5     C20     1.419   .     A
C5     C14     1.472   .     S
C5     C17     1.404   .     A
C6     C72     1.334   .     S
C6     H98     1.087   .     S
C7     C136    1.334   1_455 S
C7     H158    1.086   1_455 S
C8     C11     1.453   .     S
C8     C204    1.338   .     S
C8     F220    1.363   .     S
C9     C10     1.432   .     S
C9     C398    1.338   1_545 S
C9     F416    1.361   1_545 S
C10    O48     1.274   .     A
C10    O57     1.274   .     A
C11    O58     1.276   .     A
C11    O52     1.273   .     A
C12    C17     1.390   .     A
C12    F27     1.356   .     S
C12    C603    1.391   .     S
C13    O38     1.268   .     A
C13    C16     1.451   .     S
C13    O40     1.276   .     A
C14    O41     1.282   .     A
C14    O39     1.285   .     A
C15    C607    1.414   1_554 S
C15    S645    1.793   1_554 S
C17    H30     1.083   .     S
C18    H31     1.081   .     S
C18    C597    1.391   1_554 S
C18    C604    1.411   1_554 S
C19    C20     1.416   .     A
C19    C603    1.411   .     S
C19    C606    1.420   .     S
C20    C24     1.409   .     A
C21    C604    1.420   1_554 S
C21    C607    1.413   1_554 S
C22    C23     1.402   .     A
C22    C606    1.413   .     S
C22    C600    1.414   .     S
C23    C24     1.387   .     A
C23    H29     1.082   .     S
C24    H32     1.080   .     S
F25    C398    1.363   1_545 S
F26    C204    1.361   .     S
H28    C72     1.086   .     S
H33    C136    1.087   1_455 S
H34    O44     0.991   .     S
H35    O47     0.991   .     S
H36    O51     0.990   .     S
O37    Zn63    1.938   .     S
O37    Zn64    1.943   .     S
O37    Zn62    1.961   .     S
O37    Zn65    1.936   .     S
O38    Zn63    1.941   .     S
O39    Zn65    1.947   .     S
O40    Zn64    1.939   .     S
O41    Zn62    1.935   .     S
O42    S59     1.502   .     D
O43    S59     1.504   .     D
O44    S59     1.685   .     S
O45    S60     1.502   .     D
O46    S60     1.503   .     D
O47    S60     1.683   .     S
O48    Zn62    1.930   .     S
O49    S61     1.503   .     D
O50    S61     1.503   .     D
O51    S61     1.680   .     S
O52    Zn65    1.936   .     S
O53    Zn63    1.926   .     S
O54    Zn64    1.933   .     S
O55    Zn65    1.927   .     S
O56    Zn62    1.924   .     S
O57    Zn63    1.941   .     S
O58    Zn64    1.933   .     S
S60    C600    1.793   .     S
C66    O120    1.271   .     A
C66    O118    1.269   .     A
C66    C72     1.436   .     S
C67    C81     1.411   .     A
C67    C86     1.407   .     A
C67    S126    1.801   .     S
C68    C80     1.423   .     A
C68    C81     1.422   .     A
C68    S124    1.798   .     S
C69    O121    1.282   .     A
C69    O119    1.285   .     A
C69    C71     1.453   .     S
C70    C85     1.419   .     A
C70    C79     1.472   .     S
C70    C82     1.404   .     A
C71    C137    1.334   .     S
C71    H163    1.087   .     S
C73    C76     1.453   .     S
C73    C269    1.338   .     S
C73    F285    1.363   .     S
C74    C75     1.432   .     S
C74    C463    1.338   1_545 S
C74    F481    1.361   1_545 S
C75    O113    1.274   .     A
C75    O122    1.274   .     A
C76    O123    1.276   .     A
C76    O117    1.273   .     A
C77    C82     1.390   .     A
C77    F92     1.356   .     S
C77    C668    1.391   .     S
C78    O103    1.268   .     A
C78    C81     1.451   .     S
C78    O105    1.276   .     A
C79    O106    1.282   .     A
C79    O104    1.285   .     A
C80    C672    1.414   1_554 S
C80    S710    1.793   1_554 S
C82    H95     1.083   .     S
C83    H96     1.081   .     S
C83    C662    1.391   1_554 S
C83    C669    1.411   1_554 S
C84    C85     1.416   .     A
C84    C668    1.411   .     S
C84    C671    1.420   .     S
C85    C89     1.409   .     A
C86    C669    1.420   1_554 S
C86    C672    1.413   1_554 S
C87    C88     1.402   .     A
C87    C671    1.413   .     S
C87    C665    1.414   .     S
C88    C89     1.387   .     A
C88    H94     1.082   .     S
C89    H97     1.080   .     S
F90    C463    1.363   1_545 S
F91    C269    1.361   .     S
H93    C137    1.086   .     S
H99    O109    0.991   .     S
H100   O112    0.991   .     S
H101   O116    0.990   .     S
O102   Zn128   1.938   .     S
O102   Zn129   1.943   .     S
O102   Zn127   1.961   .     S
O102   Zn130   1.936   .     S
O103   Zn128   1.941   .     S
O104   Zn130   1.947   .     S
O105   Zn129   1.939   .     S
O106   Zn127   1.935   .     S
O107   S124    1.502   .     D
O108   S124    1.504   .     D
O109   S124    1.685   .     S
O110   S125    1.502   .     D
O111   S125    1.503   .     D
O112   S125    1.683   .     S
O113   Zn127   1.930   .     S
O114   S126    1.503   .     D
O115   S126    1.503   .     D
O116   S126    1.680   .     S
O117   Zn130   1.936   .     S
O118   Zn128   1.926   .     S
O119   Zn129   1.933   .     S
O120   Zn130   1.927   .     S
O121   Zn127   1.924   .     S
O122   Zn128   1.941   .     S
O123   Zn129   1.933   .     S
S125   C665    1.793   .     S
C131   O185    1.271   .     A
C131   O183    1.269   .     A
C131   C137    1.436   .     S
C132   C146    1.411   .     A
C132   C151    1.407   .     A
C132   S191    1.801   .     S
C133   C145    1.423   .     A
C133   C146    1.422   .     A
C133   S189    1.798   .     S
C134   O186    1.282   .     A
C134   O184    1.285   .     A
C134   C136    1.453   .     S
C135   C150    1.419   .     A
C135   C144    1.472   .     S
C135   C147    1.404   .     A
C136   C7      1.334   1_655 S
C136   H33     1.087   1_655 S
C138   C141    1.453   .     S
C138   C334    1.338   .     S
C138   F350    1.363   .     S
C139   C140    1.432   .     S
C139   C528    1.338   1_545 S
C139   F546    1.361   1_545 S
C140   O178    1.274   .     A
C140   O187    1.274   .     A
C141   O188    1.276   .     A
C141   O182    1.273   .     A
C142   C147    1.390   .     A
C142   F157    1.356   .     S
C142   C733    1.391   .     S
C143   O168    1.268   .     A
C143   C146    1.451   .     S
C143   O170    1.276   .     A
C144   O171    1.282   .     A
C144   O169    1.285   .     A
C145   C737    1.414   1_554 S
C145   S775    1.793   1_554 S
C147   H160    1.083   .     S
C148   H161    1.081   .     S
C148   C727    1.391   1_554 S
C148   C734    1.411   1_554 S
C149   C150    1.416   .     A
C149   C733    1.411   .     S
C149   C736    1.420   .     S
C150   C154    1.409   .     A
C151   C734    1.420   1_554 S
C151   C737    1.413   1_554 S
C152   C153    1.402   .     A
C152   C736    1.413   .     S
C152   C730    1.414   .     S
C153   C154    1.387   .     A
C153   H159    1.082   .     S
C154   H162    1.080   .     S
F155   C528    1.363   1_545 S
F156   C334    1.361   .     S
H158   C7      1.086   1_655 S
H164   O174    0.991   .     S
H165   O177    0.991   .     S
H166   O181    0.990   .     S
O167   Zn193   1.938   .     S
O167   Zn194   1.943   .     S
O167   Zn192   1.961   .     S
O167   Zn195   1.936   .     S
O168   Zn193   1.941   .     S
O169   Zn195   1.947   .     S
O170   Zn194   1.939   .     S
O171   Zn192   1.935   .     S
O172   S189    1.502   .     D
O173   S189    1.504   .     D
O174   S189    1.685   .     S
O175   S190    1.502   .     D
O176   S190    1.503   .     D
O177   S190    1.683   .     S
O178   Zn192   1.930   .     S
O179   S191    1.503   .     D
O180   S191    1.503   .     D
O181   S191    1.680   .     S
O182   Zn195   1.936   .     S
O183   Zn193   1.926   .     S
O184   Zn194   1.933   .     S
O185   Zn195   1.927   .     S
O186   Zn192   1.924   .     S
O187   Zn193   1.941   .     S
O188   Zn194   1.933   .     S
S190   C730    1.793   .     S
C196   O250    1.271   .     A
C196   O248    1.269   .     A
C196   C202    1.436   .     S
C197   C211    1.411   .     A
C197   C216    1.407   .     A
C197   S256    1.801   .     S
C198   C210    1.423   .     A
C198   C211    1.422   .     A
C198   S254    1.798   .     S
C199   O251    1.282   .     A
C199   O249    1.285   .     A
C199   C201    1.453   .     S
C200   C215    1.419   .     A
C200   C209    1.472   .     S
C200   C212    1.404   .     A
C201   C267    1.334   .     S
C201   H293    1.087   .     S
C202   C331    1.334   1_455 S
C202   H353    1.086   1_455 S
C203   C206    1.453   .     S
C203   C399    1.338   .     S
C203   F415    1.363   .     S
C204   C205    1.432   .     S
C205   O243    1.274   .     A
C205   O252    1.274   .     A
C206   O253    1.276   .     A
C206   O247    1.273   .     A
C207   C212    1.390   .     A
C207   F222    1.356   .     S
C207   C798    1.391   .     S
C208   O233    1.268   .     A
C208   C211    1.451   .     S
C208   O235    1.276   .     A
C209   O236    1.282   .     A
C209   O234    1.285   .     A
C210   C802    1.414   1_554 S
C210   S840    1.793   1_554 S
C212   H225    1.083   .     S
C213   H226    1.081   .     S
C213   C792    1.391   1_554 S
C213   C799    1.411   1_554 S
C214   C215    1.416   .     A
C214   C798    1.411   .     S
C214   C801    1.420   .     S
C215   C219    1.409   .     A
C216   C799    1.420   1_554 S
C216   C802    1.413   1_554 S
C217   C218    1.402   .     A
C217   C801    1.413   .     S
C217   C795    1.414   .     S
C218   C219    1.387   .     A
C218   H224    1.082   .     S
C219   H227    1.080   .     S
F221   C399    1.361   .     S
H223   C267    1.086   .     S
H228   C331    1.087   1_455 S
H229   O239    0.991   .     S
H230   O242    0.991   .     S
H231   O246    0.990   .     S
O232   Zn258   1.938   .     S
O232   Zn259   1.943   .     S
O232   Zn257   1.961   .     S
O232   Zn260   1.936   .     S
O233   Zn258   1.941   .     S
O234   Zn260   1.947   .     S
O235   Zn259   1.939   .     S
O236   Zn257   1.935   .     S
O237   S254    1.502   .     D
O238   S254    1.504   .     D
O239   S254    1.685   .     S
O240   S255    1.502   .     D
O241   S255    1.503   .     D
O242   S255    1.683   .     S
O243   Zn257   1.930   .     S
O244   S256    1.503   .     D
O245   S256    1.503   .     D
O246   S256    1.680   .     S
O247   Zn260   1.936   .     S
O248   Zn258   1.926   .     S
O249   Zn259   1.933   .     S
O250   Zn260   1.927   .     S
O251   Zn257   1.924   .     S
O252   Zn258   1.941   .     S
O253   Zn259   1.933   .     S
S255   C795    1.793   .     S
C261   O315    1.271   .     A
C261   O313    1.269   .     A
C261   C267    1.436   .     S
C262   C276    1.411   .     A
C262   C281    1.407   .     A
C262   S321    1.801   .     S
C263   C275    1.423   .     A
C263   C276    1.422   .     A
C263   S319    1.798   .     S
C264   O316    1.282   .     A
C264   O314    1.285   .     A
C264   C266    1.453   .     S
C265   C280    1.419   .     A
C265   C274    1.472   .     S
C265   C277    1.404   .     A
C266   C332    1.334   .     S
C266   H358    1.087   .     S
C268   C271    1.453   .     S
C268   C464    1.338   .     S
C268   F480    1.363   .     S
C269   C270    1.432   .     S
C270   O308    1.274   .     A
C270   O317    1.274   .     A
C271   O318    1.276   .     A
C271   O312    1.273   .     A
C272   C277    1.390   .     A
C272   F287    1.356   .     S
C272   C863    1.391   .     S
C273   O298    1.268   .     A
C273   C276    1.451   .     S
C273   O300    1.276   .     A
C274   O301    1.282   .     A
C274   O299    1.285   .     A
C275   C867    1.414   1_554 S
C275   S905    1.793   1_554 S
C277   H290    1.083   .     S
C278   H291    1.081   .     S
C278   C857    1.391   1_554 S
C278   C864    1.411   1_554 S
C279   C280    1.416   .     A
C279   C863    1.411   .     S
C279   C866    1.420   .     S
C280   C284    1.409   .     A
C281   C864    1.420   1_554 S
C281   C867    1.413   1_554 S
C282   C283    1.402   .     A
C282   C866    1.413   .     S
C282   C860    1.414   .     S
C283   C284    1.387   .     A
C283   H289    1.082   .     S
C284   H292    1.080   .     S
F286   C464    1.361   .     S
H288   C332    1.086   .     S
H294   O304    0.991   .     S
H295   O307    0.991   .     S
H296   O311    0.990   .     S
O297   Zn323   1.938   .     S
O297   Zn324   1.943   .     S
O297   Zn322   1.961   .     S
O297   Zn325   1.936   .     S
O298   Zn323   1.941   .     S
O299   Zn325   1.947   .     S
O300   Zn324   1.939   .     S
O301   Zn322   1.935   .     S
O302   S319    1.502   .     D
O303   S319    1.504   .     D
O304   S319    1.685   .     S
O305   S320    1.502   .     D
O306   S320    1.503   .     D
O307   S320    1.683   .     S
O308   Zn322   1.930   .     S
O309   S321    1.503   .     D
O310   S321    1.503   .     D
O311   S321    1.680   .     S
O312   Zn325   1.936   .     S
O313   Zn323   1.926   .     S
O314   Zn324   1.933   .     S
O315   Zn325   1.927   .     S
O316   Zn322   1.924   .     S
O317   Zn323   1.941   .     S
O318   Zn324   1.933   .     S
S320   C860    1.793   .     S
C326   O380    1.271   .     A
C326   O378    1.269   .     A
C326   C332    1.436   .     S
C327   C341    1.411   .     A
C327   C346    1.407   .     A
C327   S386    1.801   .     S
C328   C340    1.423   .     A
C328   C341    1.422   .     A
C328   S384    1.798   .     S
C329   O381    1.282   .     A
C329   O379    1.285   .     A
C329   C331    1.453   .     S
C330   C345    1.419   .     A
C330   C339    1.472   .     S
C330   C342    1.404   .     A
C331   C202    1.334   1_655 S
C331   H228    1.087   1_655 S
C333   C336    1.453   .     S
C333   C529    1.338   .     S
C333   F545    1.363   .     S
C334   C335    1.432   .     S
C335   O373    1.274   .     A
C335   O382    1.274   .     A
C336   O383    1.276   .     A
C336   O377    1.273   .     A
C337   C342    1.390   .     A
C337   F352    1.356   .     S
C337   C928    1.391   .     S
C338   O363    1.268   .     A
C338   C341    1.451   .     S
C338   O365    1.276   .     A
C339   O366    1.282   .     A
C339   O364    1.285   .     A
C340   C932    1.414   1_554 S
C340   S970    1.793   1_554 S
C342   H355    1.083   .     S
C343   H356    1.081   .     S
C343   C922    1.391   1_554 S
C343   C929    1.411   1_554 S
C344   C345    1.416   .     A
C344   C928    1.411   .     S
C344   C931    1.420   .     S
C345   C349    1.409   .     A
C346   C929    1.420   1_554 S
C346   C932    1.413   1_554 S
C347   C348    1.402   .     A
C347   C931    1.413   .     S
C347   C925    1.414   .     S
C348   C349    1.387   .     A
C348   H354    1.082   .     S
C349   H357    1.080   .     S
F351   C529    1.361   .     S
H353   C202    1.086   1_655 S
H359   O369    0.991   .     S
H360   O372    0.991   .     S
H361   O376    0.990   .     S
O362   Zn388   1.938   .     S
O362   Zn389   1.943   .     S
O362   Zn387   1.961   .     S
O362   Zn390   1.936   .     S
O363   Zn388   1.941   .     S
O364   Zn390   1.947   .     S
O365   Zn389   1.939   .     S
O366   Zn387   1.935   .     S
O367   S384    1.502   .     D
O368   S384    1.504   .     D
O369   S384    1.685   .     S
O370   S385    1.502   .     D
O371   S385    1.503   .     D
O372   S385    1.683   .     S
O373   Zn387   1.930   .     S
O374   S386    1.503   .     D
O375   S386    1.503   .     D
O376   S386    1.680   .     S
O377   Zn390   1.936   .     S
O378   Zn388   1.926   .     S
O379   Zn389   1.933   .     S
O380   Zn390   1.927   .     S
O381   Zn387   1.924   .     S
O382   Zn388   1.941   .     S
O383   Zn389   1.933   .     S
S385   C925    1.793   .     S
C391   O445    1.271   .     A
C391   O443    1.269   .     A
C391   C397    1.436   .     S
C392   C406    1.411   .     A
C392   C411    1.407   .     A
C392   S451    1.801   .     S
C393   C405    1.423   .     A
C393   C406    1.422   .     A
C393   S449    1.798   .     S
C394   O446    1.282   .     A
C394   O444    1.285   .     A
C394   C396    1.453   .     S
C395   C410    1.419   .     A
C395   C404    1.472   .     S
C395   C407    1.404   .     A
C396   C462    1.334   .     S
C396   H488    1.087   .     S
C397   C526    1.334   1_455 S
C397   H548    1.086   1_455 S
C398   C401    1.453   .     S
C398   C9      1.338   1_565 S
C398   F25     1.363   1_565 S
C399   C400    1.432   .     S
C400   O438    1.274   .     A
C400   O447    1.274   .     A
C401   O448    1.276   .     A
C401   O442    1.273   .     A
C402   C407    1.390   .     A
C402   F417    1.356   .     S
C402   C993    1.391   .     S
C403   O428    1.268   .     A
C403   C406    1.451   .     S
C403   O430    1.276   .     A
C404   O431    1.282   .     A
C404   O429    1.285   .     A
C405   C997    1.414   1_554 S
C405   S1035   1.793   1_554 S
C407   H420    1.083   .     S
C408   H421    1.081   .     S
C408   C987    1.391   1_554 S
C408   C994    1.411   1_554 S
C409   C410    1.416   .     A
C409   C993    1.411   .     S
C409   C996    1.420   .     S
C410   C414    1.409   .     A
C411   C994    1.420   1_554 S
C411   C997    1.413   1_554 S
C412   C413    1.402   .     A
C412   C996    1.413   .     S
C412   C990    1.414   .     S
C413   C414    1.387   .     A
C413   H419    1.082   .     S
C414   H422    1.080   .     S
F416   C9      1.361   1_565 S
H418   C462    1.086   .     S
H423   C526    1.087   1_455 S
H424   O434    0.991   .     S
H425   O437    0.991   .     S
H426   O441    0.990   .     S
O427   Zn453   1.938   .     S
O427   Zn454   1.943   .     S
O427   Zn452   1.961   .     S
O427   Zn455   1.936   .     S
O428   Zn453   1.941   .     S
O429   Zn455   1.947   .     S
O430   Zn454   1.939   .     S
O431   Zn452   1.935   .     S
O432   S449    1.502   .     D
O433   S449    1.504   .     D
O434   S449    1.685   .     S
O435   S450    1.502   .     D
O436   S450    1.503   .     D
O437   S450    1.683   .     S
O438   Zn452   1.930   .     S
O439   S451    1.503   .     D
O440   S451    1.503   .     D
O441   S451    1.680   .     S
O442   Zn455   1.936   .     S
O443   Zn453   1.926   .     S
O444   Zn454   1.933   .     S
O445   Zn455   1.927   .     S
O446   Zn452   1.924   .     S
O447   Zn453   1.941   .     S
O448   Zn454   1.933   .     S
S450   C990    1.793   .     S
C456   O510    1.271   .     A
C456   O508    1.269   .     A
C456   C462    1.436   .     S
C457   C471    1.411   .     A
C457   C476    1.407   .     A
C457   S516    1.801   .     S
C458   C470    1.423   .     A
C458   C471    1.422   .     A
C458   S514    1.798   .     S
C459   O511    1.282   .     A
C459   O509    1.285   .     A
C459   C461    1.453   .     S
C460   C475    1.419   .     A
C460   C469    1.472   .     S
C460   C472    1.404   .     A
C461   C527    1.334   .     S
C461   H553    1.087   .     S
C463   C466    1.453   .     S
C463   C74     1.338   1_565 S
C463   F90     1.363   1_565 S
C464   C465    1.432   .     S
C465   O503    1.274   .     A
C465   O512    1.274   .     A
C466   O513    1.276   .     A
C466   O507    1.273   .     A
C467   C472    1.390   .     A
C467   F482    1.356   .     S
C467   C1058   1.391   .     S
C468   O493    1.268   .     A
C468   C471    1.451   .     S
C468   O495    1.276   .     A
C469   O496    1.282   .     A
C469   O494    1.285   .     A
C470   C1062   1.414   1_554 S
C470   S1100   1.793   1_554 S
C472   H485    1.083   .     S
C473   H486    1.081   .     S
C473   C1052   1.391   1_554 S
C473   C1059   1.411   1_554 S
C474   C475    1.416   .     A
C474   C1058   1.411   .     S
C474   C1061   1.420   .     S
C475   C479    1.409   .     A
C476   C1059   1.420   1_554 S
C476   C1062   1.413   1_554 S
C477   C478    1.402   .     A
C477   C1061   1.413   .     S
C477   C1055   1.414   .     S
C478   C479    1.387   .     A
C478   H484    1.082   .     S
C479   H487    1.080   .     S
F481   C74     1.361   1_565 S
H483   C527    1.086   .     S
H489   O499    0.991   .     S
H490   O502    0.991   .     S
H491   O506    0.990   .     S
O492   Zn518   1.938   .     S
O492   Zn519   1.943   .     S
O492   Zn517   1.961   .     S
O492   Zn520   1.936   .     S
O493   Zn518   1.941   .     S
O494   Zn520   1.947   .     S
O495   Zn519   1.939   .     S
O496   Zn517   1.935   .     S
O497   S514    1.502   .     D
O498   S514    1.504   .     D
O499   S514    1.685   .     S
O500   S515    1.502   .     D
O501   S515    1.503   .     D
O502   S515    1.683   .     S
O503   Zn517   1.930   .     S
O504   S516    1.503   .     D
O505   S516    1.503   .     D
O506   S516    1.680   .     S
O507   Zn520   1.936   .     S
O508   Zn518   1.926   .     S
O509   Zn519   1.933   .     S
O510   Zn520   1.927   .     S
O511   Zn517   1.924   .     S
O512   Zn518   1.941   .     S
O513   Zn519   1.933   .     S
S515   C1055   1.793   .     S
C521   O575    1.271   .     A
C521   O573    1.269   .     A
C521   C527    1.436   .     S
C522   C536    1.411   .     A
C522   C541    1.407   .     A
C522   S581    1.801   .     S
C523   C535    1.423   .     A
C523   C536    1.422   .     A
C523   S579    1.798   .     S
C524   O576    1.282   .     A
C524   O574    1.285   .     A
C524   C526    1.453   .     S
C525   C540    1.419   .     A
C525   C534    1.472   .     S
C525   C537    1.404   .     A
C526   C397    1.334   1_655 S
C526   H423    1.087   1_655 S
C528   C531    1.453   .     S
C528   C139    1.338   1_565 S
C528   F155    1.363   1_565 S
C529   C530    1.432   .     S
C530   O568    1.274   .     A
C530   O577    1.274   .     A
C531   O578    1.276   .     A
C531   O572    1.273   .     A
C532   C537    1.390   .     A
C532   F547    1.356   .     S
C532   C1123   1.391   .     S
C533   O558    1.268   .     A
C533   C536    1.451   .     S
C533   O560    1.276   .     A
C534   O561    1.282   .     A
C534   O559    1.285   .     A
C535   C1127   1.414   1_554 S
C535   S1165   1.793   1_554 S
C537   H550    1.083   .     S
C538   H551    1.081   .     S
C538   C1117   1.391   1_554 S
C538   C1124   1.411   1_554 S
C539   C540    1.416   .     A
C539   C1123   1.411   .     S
C539   C1126   1.420   .     S
C540   C544    1.409   .     A
C541   C1124   1.420   1_554 S
C541   C1127   1.413   1_554 S
C542   C543    1.402   .     A
C542   C1126   1.413   .     S
C542   C1120   1.414   .     S
C543   C544    1.387   .     A
C543   H549    1.082   .     S
C544   H552    1.080   .     S
F546   C139    1.361   1_565 S
H548   C397    1.086   1_655 S
H554   O564    0.991   .     S
H555   O567    0.991   .     S
H556   O571    0.990   .     S
O557   Zn583   1.938   .     S
O557   Zn584   1.943   .     S
O557   Zn582   1.961   .     S
O557   Zn585   1.936   .     S
O558   Zn583   1.941   .     S
O559   Zn585   1.947   .     S
O560   Zn584   1.939   .     S
O561   Zn582   1.935   .     S
O562   S579    1.502   .     D
O563   S579    1.504   .     D
O564   S579    1.685   .     S
O565   S580    1.502   .     D
O566   S580    1.503   .     D
O567   S580    1.683   .     S
O568   Zn582   1.930   .     S
O569   S581    1.503   .     D
O570   S581    1.503   .     D
O571   S581    1.680   .     S
O572   Zn585   1.936   .     S
O573   Zn583   1.926   .     S
O574   Zn584   1.933   .     S
O575   Zn585   1.927   .     S
O576   Zn582   1.924   .     S
O577   Zn583   1.941   .     S
O578   Zn584   1.933   .     S
S580   C1120   1.793   .     S
C586   O640    1.271   .     A
C586   O638    1.269   .     A
C586   C592    1.436   .     S
C587   C601    1.411   .     A
C587   C606    1.407   .     A
C587   S646    1.801   .     S
C588   C600    1.423   .     A
C588   C601    1.422   .     A
C588   S644    1.798   .     S
C589   O641    1.282   .     A
C589   O639    1.285   .     A
C589   C591    1.453   .     S
C590   C605    1.419   .     A
C590   C599    1.472   .     S
C590   C602    1.404   .     A
C591   C657    1.334   .     S
C591   H683    1.087   .     S
C592   C721    1.334   1_455 S
C592   H743    1.086   1_455 S
C593   C596    1.453   .     S
C593   C789    1.338   .     S
C593   F805    1.363   .     S
C594   C595    1.432   .     S
C594   C983    1.338   1_545 S
C594   F1001   1.361   1_545 S
C595   O633    1.274   .     A
C595   O642    1.274   .     A
C596   O643    1.276   .     A
C596   O637    1.273   .     A
C597   C602    1.390   .     A
C597   F612    1.356   .     S
C597   C18     1.391   1_556 S
C598   O623    1.268   .     A
C598   C601    1.451   .     S
C598   O625    1.276   .     A
C599   O626    1.282   .     A
C599   O624    1.285   .     A
C602   H615    1.083   .     S
C603   H616    1.081   .     S
C604   C605    1.416   .     A
C604   C18     1.411   1_556 S
C604   C21     1.420   1_556 S
C605   C609    1.409   .     A
C607   C608    1.402   .     A
C607   C21     1.413   1_556 S
C607   C15     1.414   1_556 S
C608   C609    1.387   .     A
C608   H614    1.082   .     S
C609   H617    1.080   .     S
F610   C983    1.363   1_545 S
F611   C789    1.361   .     S
H613   C657    1.086   .     S
H618   C721    1.087   1_455 S
H619   O629    0.991   .     S
H620   O632    0.991   .     S
H621   O636    0.990   .     S
O622   Zn648   1.938   .     S
O622   Zn649   1.943   .     S
O622   Zn647   1.961   .     S
O622   Zn650   1.936   .     S
O623   Zn648   1.941   .     S
O624   Zn650   1.947   .     S
O625   Zn649   1.939   .     S
O626   Zn647   1.935   .     S
O627   S644    1.502   .     D
O628   S644    1.504   .     D
O629   S644    1.685   .     S
O630   S645    1.502   .     D
O631   S645    1.503   .     D
O632   S645    1.683   .     S
O633   Zn647   1.930   .     S
O634   S646    1.503   .     D
O635   S646    1.503   .     D
O636   S646    1.680   .     S
O637   Zn650   1.936   .     S
O638   Zn648   1.926   .     S
O639   Zn649   1.933   .     S
O640   Zn650   1.927   .     S
O641   Zn647   1.924   .     S
O642   Zn648   1.941   .     S
O643   Zn649   1.933   .     S
S645   C15     1.793   1_556 S
C651   O705    1.271   .     A
C651   O703    1.269   .     A
C651   C657    1.436   .     S
C652   C666    1.411   .     A
C652   C671    1.407   .     A
C652   S711    1.801   .     S
C653   C665    1.423   .     A
C653   C666    1.422   .     A
C653   S709    1.798   .     S
C654   O706    1.282   .     A
C654   O704    1.285   .     A
C654   C656    1.453   .     S
C655   C670    1.419   .     A
C655   C664    1.472   .     S
C655   C667    1.404   .     A
C656   C722    1.334   .     S
C656   H748    1.087   .     S
C658   C661    1.453   .     S
C658   C854    1.338   .     S
C658   F870    1.363   .     S
C659   C660    1.432   .     S
C659   C1048   1.338   1_545 S
C659   F1066   1.361   1_545 S
C660   O698    1.274   .     A
C660   O707    1.274   .     A
C661   O708    1.276   .     A
C661   O702    1.273   .     A
C662   C667    1.390   .     A
C662   F677    1.356   .     S
C662   C83     1.391   1_556 S
C663   O688    1.268   .     A
C663   C666    1.451   .     S
C663   O690    1.276   .     A
C664   O691    1.282   .     A
C664   O689    1.285   .     A
C667   H680    1.083   .     S
C668   H681    1.081   .     S
C669   C670    1.416   .     A
C669   C83     1.411   1_556 S
C669   C86     1.420   1_556 S
C670   C674    1.409   .     A
C672   C673    1.402   .     A
C672   C86     1.413   1_556 S
C672   C80     1.414   1_556 S
C673   C674    1.387   .     A
C673   H679    1.082   .     S
C674   H682    1.080   .     S
F675   C1048   1.363   1_545 S
F676   C854    1.361   .     S
H678   C722    1.086   .     S
H684   O694    0.991   .     S
H685   O697    0.991   .     S
H686   O701    0.990   .     S
O687   Zn713   1.938   .     S
O687   Zn714   1.943   .     S
O687   Zn712   1.961   .     S
O687   Zn715   1.936   .     S
O688   Zn713   1.941   .     S
O689   Zn715   1.947   .     S
O690   Zn714   1.939   .     S
O691   Zn712   1.935   .     S
O692   S709    1.502   .     D
O693   S709    1.504   .     D
O694   S709    1.685   .     S
O695   S710    1.502   .     D
O696   S710    1.503   .     D
O697   S710    1.683   .     S
O698   Zn712   1.930   .     S
O699   S711    1.503   .     D
O700   S711    1.503   .     D
O701   S711    1.680   .     S
O702   Zn715   1.936   .     S
O703   Zn713   1.926   .     S
O704   Zn714   1.933   .     S
O705   Zn715   1.927   .     S
O706   Zn712   1.924   .     S
O707   Zn713   1.941   .     S
O708   Zn714   1.933   .     S
S710   C80     1.793   1_556 S
C716   O770    1.271   .     A
C716   O768    1.269   .     A
C716   C722    1.436   .     S
C717   C731    1.411   .     A
C717   C736    1.407   .     A
C717   S776    1.801   .     S
C718   C730    1.423   .     A
C718   C731    1.422   .     A
C718   S774    1.798   .     S
C719   O771    1.282   .     A
C719   O769    1.285   .     A
C719   C721    1.453   .     S
C720   C735    1.419   .     A
C720   C729    1.472   .     S
C720   C732    1.404   .     A
C721   C592    1.334   1_655 S
C721   H618    1.087   1_655 S
C723   C726    1.453   .     S
C723   C919    1.338   .     S
C723   F935    1.363   .     S
C724   C725    1.432   .     S
C724   C1113   1.338   1_545 S
C724   F1131   1.361   1_545 S
C725   O763    1.274   .     A
C725   O772    1.274   .     A
C726   O773    1.276   .     A
C726   O767    1.273   .     A
C727   C732    1.390   .     A
C727   F742    1.356   .     S
C727   C148    1.391   1_556 S
C728   O753    1.268   .     A
C728   C731    1.451   .     S
C728   O755    1.276   .     A
C729   O756    1.282   .     A
C729   O754    1.285   .     A
C732   H745    1.083   .     S
C733   H746    1.081   .     S
C734   C735    1.416   .     A
C734   C148    1.411   1_556 S
C734   C151    1.420   1_556 S
C735   C739    1.409   .     A
C737   C738    1.402   .     A
C737   C151    1.413   1_556 S
C737   C145    1.414   1_556 S
C738   C739    1.387   .     A
C738   H744    1.082   .     S
C739   H747    1.080   .     S
F740   C1113   1.363   1_545 S
F741   C919    1.361   .     S
H743   C592    1.086   1_655 S
H749   O759    0.991   .     S
H750   O762    0.991   .     S
H751   O766    0.990   .     S
O752   Zn778   1.938   .     S
O752   Zn779   1.943   .     S
O752   Zn777   1.961   .     S
O752   Zn780   1.936   .     S
O753   Zn778   1.941   .     S
O754   Zn780   1.947   .     S
O755   Zn779   1.939   .     S
O756   Zn777   1.935   .     S
O757   S774    1.502   .     D
O758   S774    1.504   .     D
O759   S774    1.685   .     S
O760   S775    1.502   .     D
O761   S775    1.503   .     D
O762   S775    1.683   .     S
O763   Zn777   1.930   .     S
O764   S776    1.503   .     D
O765   S776    1.503   .     D
O766   S776    1.680   .     S
O767   Zn780   1.936   .     S
O768   Zn778   1.926   .     S
O769   Zn779   1.933   .     S
O770   Zn780   1.927   .     S
O771   Zn777   1.924   .     S
O772   Zn778   1.941   .     S
O773   Zn779   1.933   .     S
S775   C145    1.793   1_556 S
C781   O835    1.271   .     A
C781   O833    1.269   .     A
C781   C787    1.436   .     S
C782   C796    1.411   .     A
C782   C801    1.407   .     A
C782   S841    1.801   .     S
C783   C795    1.423   .     A
C783   C796    1.422   .     A
C783   S839    1.798   .     S
C784   O836    1.282   .     A
C784   O834    1.285   .     A
C784   C786    1.453   .     S
C785   C800    1.419   .     A
C785   C794    1.472   .     S
C785   C797    1.404   .     A
C786   C852    1.334   .     S
C786   H878    1.087   .     S
C787   C916    1.334   1_455 S
C787   H938    1.086   1_455 S
C788   C791    1.453   .     S
C788   C984    1.338   .     S
C788   F1000   1.363   .     S
C789   C790    1.432   .     S
C790   O828    1.274   .     A
C790   O837    1.274   .     A
C791   O838    1.276   .     A
C791   O832    1.273   .     A
C792   C797    1.390   .     A
C792   F807    1.356   .     S
C792   C213    1.391   1_556 S
C793   O818    1.268   .     A
C793   C796    1.451   .     S
C793   O820    1.276   .     A
C794   O821    1.282   .     A
C794   O819    1.285   .     A
C797   H810    1.083   .     S
C798   H811    1.081   .     S
C799   C800    1.416   .     A
C799   C213    1.411   1_556 S
C799   C216    1.420   1_556 S
C800   C804    1.409   .     A
C802   C803    1.402   .     A
C802   C216    1.413   1_556 S
C802   C210    1.414   1_556 S
C803   C804    1.387   .     A
C803   H809    1.082   .     S
C804   H812    1.080   .     S
F806   C984    1.361   .     S
H808   C852    1.086   .     S
H813   C916    1.087   1_455 S
H814   O824    0.991   .     S
H815   O827    0.991   .     S
H816   O831    0.990   .     S
O817   Zn843   1.938   .     S
O817   Zn844   1.943   .     S
O817   Zn842   1.961   .     S
O817   Zn845   1.936   .     S
O818   Zn843   1.941   .     S
O819   Zn845   1.947   .     S
O820   Zn844   1.939   .     S
O821   Zn842   1.935   .     S
O822   S839    1.502   .     D
O823   S839    1.504   .     D
O824   S839    1.685   .     S
O825   S840    1.502   .     D
O826   S840    1.503   .     D
O827   S840    1.683   .     S
O828   Zn842   1.930   .     S
O829   S841    1.503   .     D
O830   S841    1.503   .     D
O831   S841    1.680   .     S
O832   Zn845   1.936   .     S
O833   Zn843   1.926   .     S
O834   Zn844   1.933   .     S
O835   Zn845   1.927   .     S
O836   Zn842   1.924   .     S
O837   Zn843   1.941   .     S
O838   Zn844   1.933   .     S
S840   C210    1.793   1_556 S
C846   O900    1.271   .     A
C846   O898    1.269   .     A
C846   C852    1.436   .     S
C847   C861    1.411   .     A
C847   C866    1.407   .     A
C847   S906    1.801   .     S
C848   C860    1.423   .     A
C848   C861    1.422   .     A
C848   S904    1.798   .     S
C849   O901    1.282   .     A
C849   O899    1.285   .     A
C849   C851    1.453   .     S
C850   C865    1.419   .     A
C850   C859    1.472   .     S
C850   C862    1.404   .     A
C851   C917    1.334   .     S
C851   H943    1.087   .     S
C853   C856    1.453   .     S
C853   C1049   1.338   .     S
C853   F1065   1.363   .     S
C854   C855    1.432   .     S
C855   O893    1.274   .     A
C855   O902    1.274   .     A
C856   O903    1.276   .     A
C856   O897    1.273   .     A
C857   C862    1.390   .     A
C857   F872    1.356   .     S
C857   C278    1.391   1_556 S
C858   O883    1.268   .     A
C858   C861    1.451   .     S
C858   O885    1.276   .     A
C859   O886    1.282   .     A
C859   O884    1.285   .     A
C862   H875    1.083   .     S
C863   H876    1.081   .     S
C864   C865    1.416   .     A
C864   C278    1.411   1_556 S
C864   C281    1.420   1_556 S
C865   C869    1.409   .     A
C867   C868    1.402   .     A
C867   C281    1.413   1_556 S
C867   C275    1.414   1_556 S
C868   C869    1.387   .     A
C868   H874    1.082   .     S
C869   H877    1.080   .     S
F871   C1049   1.361   .     S
H873   C917    1.086   .     S
H879   O889    0.991   .     S
H880   O892    0.991   .     S
H881   O896    0.990   .     S
O882   Zn908   1.938   .     S
O882   Zn909   1.943   .     S
O882   Zn907   1.961   .     S
O882   Zn910   1.936   .     S
O883   Zn908   1.941   .     S
O884   Zn910   1.947   .     S
O885   Zn909   1.939   .     S
O886   Zn907   1.935   .     S
O887   S904    1.502   .     D
O888   S904    1.504   .     D
O889   S904    1.685   .     S
O890   S905    1.502   .     D
O891   S905    1.503   .     D
O892   S905    1.683   .     S
O893   Zn907   1.930   .     S
O894   S906    1.503   .     D
O895   S906    1.503   .     D
O896   S906    1.680   .     S
O897   Zn910   1.936   .     S
O898   Zn908   1.926   .     S
O899   Zn909   1.933   .     S
O900   Zn910   1.927   .     S
O901   Zn907   1.924   .     S
O902   Zn908   1.941   .     S
O903   Zn909   1.933   .     S
S905   C275    1.793   1_556 S
C911   O965    1.271   .     A
C911   O963    1.269   .     A
C911   C917    1.436   .     S
C912   C926    1.411   .     A
C912   C931    1.407   .     A
C912   S971    1.801   .     S
C913   C925    1.423   .     A
C913   C926    1.422   .     A
C913   S969    1.798   .     S
C914   O966    1.282   .     A
C914   O964    1.285   .     A
C914   C916    1.453   .     S
C915   C930    1.419   .     A
C915   C924    1.472   .     S
C915   C927    1.404   .     A
C916   C787    1.334   1_655 S
C916   H813    1.087   1_655 S
C918   C921    1.453   .     S
C918   C1114   1.338   .     S
C918   F1130   1.363   .     S
C919   C920    1.432   .     S
C920   O958    1.274   .     A
C920   O967    1.274   .     A
C921   O968    1.276   .     A
C921   O962    1.273   .     A
C922   C927    1.390   .     A
C922   F937    1.356   .     S
C922   C343    1.391   1_556 S
C923   O948    1.268   .     A
C923   C926    1.451   .     S
C923   O950    1.276   .     A
C924   O951    1.282   .     A
C924   O949    1.285   .     A
C927   H940    1.083   .     S
C928   H941    1.081   .     S
C929   C930    1.416   .     A
C929   C343    1.411   1_556 S
C929   C346    1.420   1_556 S
C930   C934    1.409   .     A
C932   C933    1.402   .     A
C932   C346    1.413   1_556 S
C932   C340    1.414   1_556 S
C933   C934    1.387   .     A
C933   H939    1.082   .     S
C934   H942    1.080   .     S
F936   C1114   1.361   .     S
H938   C787    1.086   1_655 S
H944   O954    0.991   .     S
H945   O957    0.991   .     S
H946   O961    0.990   .     S
O947   Zn973   1.938   .     S
O947   Zn974   1.943   .     S
O947   Zn972   1.961   .     S
O947   Zn975   1.936   .     S
O948   Zn973   1.941   .     S
O949   Zn975   1.947   .     S
O950   Zn974   1.939   .     S
O951   Zn972   1.935   .     S
O952   S969    1.502   .     D
O953   S969    1.504   .     D
O954   S969    1.685   .     S
O955   S970    1.502   .     D
O956   S970    1.503   .     D
O957   S970    1.683   .     S
O958   Zn972   1.930   .     S
O959   S971    1.503   .     D
O960   S971    1.503   .     D
O961   S971    1.680   .     S
O962   Zn975   1.936   .     S
O963   Zn973   1.926   .     S
O964   Zn974   1.933   .     S
O965   Zn975   1.927   .     S
O966   Zn972   1.924   .     S
O967   Zn973   1.941   .     S
O968   Zn974   1.933   .     S
S970   C340    1.793   1_556 S
C976   O1030   1.271   .     A
C976   O1028   1.269   .     A
C976   C982    1.436   .     S
C977   C991    1.411   .     A
C977   C996    1.407   .     A
C977   S1036   1.801   .     S
C978   C990    1.423   .     A
C978   C991    1.422   .     A
C978   S1034   1.798   .     S
C979   O1031   1.282   .     A
C979   O1029   1.285   .     A
C979   C981    1.453   .     S
C980   C995    1.419   .     A
C980   C989    1.472   .     S
C980   C992    1.404   .     A
C981   C1047   1.334   .     S
C981   H1073   1.087   .     S
C982   C1111   1.334   1_455 S
C982   H1133   1.086   1_455 S
C983   C986    1.453   .     S
C983   C594    1.338   1_565 S
C983   F610    1.363   1_565 S
C984   C985    1.432   .     S
C985   O1023   1.274   .     A
C985   O1032   1.274   .     A
C986   O1033   1.276   .     A
C986   O1027   1.273   .     A
C987   C992    1.390   .     A
C987   F1002   1.356   .     S
C987   C408    1.391   1_556 S
C988   O1013   1.268   .     A
C988   C991    1.451   .     S
C988   O1015   1.276   .     A
C989   O1016   1.282   .     A
C989   O1014   1.285   .     A
C992   H1005   1.083   .     S
C993   H1006   1.081   .     S
C994   C995    1.416   .     A
C994   C408    1.411   1_556 S
C994   C411    1.420   1_556 S
C995   C999    1.409   .     A
C997   C998    1.402   .     A
C997   C411    1.413   1_556 S
C997   C405    1.414   1_556 S
C998   C999    1.387   .     A
C998   H1004   1.082   .     S
C999   H1007   1.080   .     S
F1001  C594    1.361   1_565 S
H1003  C1047   1.086   .     S
H1008  C1111   1.087   1_455 S
H1009  O1019   0.991   .     S
H1010  O1022   0.991   .     S
H1011  O1026   0.990   .     S
O1012  Zn1038  1.938   .     S
O1012  Zn1039  1.943   .     S
O1012  Zn1037  1.961   .     S
O1012  Zn1040  1.936   .     S
O1013  Zn1038  1.941   .     S
O1014  Zn1040  1.947   .     S
O1015  Zn1039  1.939   .     S
O1016  Zn1037  1.935   .     S
O1017  S1034   1.502   .     D
O1018  S1034   1.504   .     D
O1019  S1034   1.685   .     S
O1020  S1035   1.502   .     D
O1021  S1035   1.503   .     D
O1022  S1035   1.683   .     S
O1023  Zn1037  1.930   .     S
O1024  S1036   1.503   .     D
O1025  S1036   1.503   .     D
O1026  S1036   1.680   .     S
O1027  Zn1040  1.936   .     S
O1028  Zn1038  1.926   .     S
O1029  Zn1039  1.933   .     S
O1030  Zn1040  1.927   .     S
O1031  Zn1037  1.924   .     S
O1032  Zn1038  1.941   .     S
O1033  Zn1039  1.933   .     S
S1035  C405    1.793   1_556 S
C1041  O1095   1.271   .     A
C1041  O1093   1.269   .     A
C1041  C1047   1.436   .     S
C1042  C1056   1.411   .     A
C1042  C1061   1.407   .     A
C1042  S1101   1.801   .     S
C1043  C1055   1.423   .     A
C1043  C1056   1.422   .     A
C1043  S1099   1.798   .     S
C1044  O1096   1.282   .     A
C1044  O1094   1.285   .     A
C1044  C1046   1.453   .     S
C1045  C1060   1.419   .     A
C1045  C1054   1.472   .     S
C1045  C1057   1.404   .     A
C1046  C1112   1.334   .     S
C1046  H1138   1.087   .     S
C1048  C1051   1.453   .     S
C1048  C659    1.338   1_565 S
C1048  F675    1.363   1_565 S
C1049  C1050   1.432   .     S
C1050  O1088   1.274   .     A
C1050  O1097   1.274   .     A
C1051  O1098   1.276   .     A
C1051  O1092   1.273   .     A
C1052  C1057   1.390   .     A
C1052  F1067   1.356   .     S
C1052  C473    1.391   1_556 S
C1053  O1078   1.268   .     A
C1053  C1056   1.451   .     S
C1053  O1080   1.276   .     A
C1054  O1081   1.282   .     A
C1054  O1079   1.285   .     A
C1057  H1070   1.083   .     S
C1058  H1071   1.081   .     S
C1059  C1060   1.416   .     A
C1059  C473    1.411   1_556 S
C1059  C476    1.420   1_556 S
C1060  C1064   1.409   .     A
C1062  C1063   1.402   .     A
C1062  C476    1.413   1_556 S
C1062  C470    1.414   1_556 S
C1063  C1064   1.387   .     A
C1063  H1069   1.082   .     S
C1064  H1072   1.080   .     S
F1066  C659    1.361   1_565 S
H1068  C1112   1.086   .     S
H1074  O1084   0.991   .     S
H1075  O1087   0.991   .     S
H1076  O1091   0.990   .     S
O1077  Zn1103  1.938   .     S
O1077  Zn1104  1.943   .     S
O1077  Zn1102  1.961   .     S
O1077  Zn1105  1.936   .     S
O1078  Zn1103  1.941   .     S
O1079  Zn1105  1.947   .     S
O1080  Zn1104  1.939   .     S
O1081  Zn1102  1.935   .     S
O1082  S1099   1.502   .     D
O1083  S1099   1.504   .     D
O1084  S1099   1.685   .     S
O1085  S1100   1.502   .     D
O1086  S1100   1.503   .     D
O1087  S1100   1.683   .     S
O1088  Zn1102  1.930   .     S
O1089  S1101   1.503   .     D
O1090  S1101   1.503   .     D
O1091  S1101   1.680   .     S
O1092  Zn1105  1.936   .     S
O1093  Zn1103  1.926   .     S
O1094  Zn1104  1.933   .     S
O1095  Zn1105  1.927   .     S
O1096  Zn1102  1.924   .     S
O1097  Zn1103  1.941   .     S
O1098  Zn1104  1.933   .     S
S1100  C470    1.793   1_556 S
C1106  O1160   1.271   .     A
C1106  O1158   1.269   .     A
C1106  C1112   1.436   .     S
C1107  C1121   1.411   .     A
C1107  C1126   1.407   .     A
C1107  S1166   1.801   .     S
C1108  C1120   1.423   .     A
C1108  C1121   1.422   .     A
C1108  S1164   1.798   .     S
C1109  O1161   1.282   .     A
C1109  O1159   1.285   .     A
C1109  C1111   1.453   .     S
C1110  C1125   1.419   .     A
C1110  C1119   1.472   .     S
C1110  C1122   1.404   .     A
C1111  C982    1.334   1_655 S
C1111  H1008   1.087   1_655 S
C1113  C1116   1.453   .     S
C1113  C724    1.338   1_565 S
C1113  F740    1.363   1_565 S
C1114  C1115   1.432   .     S
C1115  O1153   1.274   .     A
C1115  O1162   1.274   .     A
C1116  O1163   1.276   .     A
C1116  O1157   1.273   .     A
C1117  C1122   1.390   .     A
C1117  F1132   1.356   .     S
C1117  C538    1.391   1_556 S
C1118  O1143   1.268   .     A
C1118  C1121   1.451   .     S
C1118  O1145   1.276   .     A
C1119  O1146   1.282   .     A
C1119  O1144   1.285   .     A
C1122  H1135   1.083   .     S
C1123  H1136   1.081   .     S
C1124  C1125   1.416   .     A
C1124  C538    1.411   1_556 S
C1124  C541    1.420   1_556 S
C1125  C1129   1.409   .     A
C1127  C1128   1.402   .     A
C1127  C541    1.413   1_556 S
C1127  C535    1.414   1_556 S
C1128  C1129   1.387   .     A
C1128  H1134   1.082   .     S
C1129  H1137   1.080   .     S
F1131  C724    1.361   1_565 S
H1133  C982    1.086   1_655 S
H1139  O1149   0.991   .     S
H1140  O1152   0.991   .     S
H1141  O1156   0.990   .     S
O1142  Zn1168  1.938   .     S
O1142  Zn1169  1.943   .     S
O1142  Zn1167  1.961   .     S
O1142  Zn1170  1.936   .     S
O1143  Zn1168  1.941   .     S
O1144  Zn1170  1.947   .     S
O1145  Zn1169  1.939   .     S
O1146  Zn1167  1.935   .     S
O1147  S1164   1.502   .     D
O1148  S1164   1.504   .     D
O1149  S1164   1.685   .     S
O1150  S1165   1.502   .     D
O1151  S1165   1.503   .     D
O1152  S1165   1.683   .     S
O1153  Zn1167  1.930   .     S
O1154  S1166   1.503   .     D
O1155  S1166   1.503   .     D
O1156  S1166   1.680   .     S
O1157  Zn1170  1.936   .     S
O1158  Zn1168  1.926   .     S
O1159  Zn1169  1.933   .     S
O1160  Zn1170  1.927   .     S
O1161  Zn1167  1.924   .     S
O1162  Zn1168  1.941   .     S
O1163  Zn1169  1.933   .     S
S1165  C535    1.793   1_556 S
