data_str_m3_o1_o2_pcu_sym.100
_audit_creation_date              2020-01-03
_audit_creation_method            'Materials Studio'
_symmetry_space_group_name_H-M    'P1'
_symmetry_Int_Tables_number       1
_symmetry_cell_setting            triclinic
loop_
_symmetry_equiv_pos_as_xyz
  x,y,z
_cell_length_a                    32.0829
_cell_length_b                    29.5196
_cell_length_c                    29.9283
_cell_angle_alpha                 89.9524
_cell_angle_beta                  90.2868
_cell_angle_gamma                 90.0057
loop_
_atom_site_label
_atom_site_type_symbol
_atom_site_fract_x
_atom_site_fract_y
_atom_site_fract_z
_atom_site_U_iso_or_equiv
_atom_site_adp_type
_atom_site_occupancy
O1     O     0.10559   0.20487   0.25000   0.00000  Uiso   1.00
O2     O     0.22774   0.12846   0.25001   0.00000  Uiso   1.00
O3     O     0.22774   0.20487   0.25001   0.00000  Uiso   1.00
O4     O     0.10559   0.12846   0.25000   0.00000  Uiso   1.00
N5     N     0.16667   0.28573   0.25000   0.00000  Uiso   1.00
N6     N     0.16667   0.04760   0.25000   0.00000  Uiso   1.00
C7     C     0.08664   0.16666   0.25007   0.00000  Uiso   1.00
C8     C     0.24670   0.16668   0.24988   0.00000  Uiso   1.00
O9     O     0.16666   0.20489   0.18453   0.00000  Uiso   1.00
O10    O     0.16667   0.12845   0.31547   0.00000  Uiso   1.00
O11    O     0.16667   0.20489   0.31547   0.00000  Uiso   1.00
O12    O     0.16666   0.12845   0.18453   0.00000  Uiso   1.00
C13    C     0.16616   0.16670   0.16414   0.00000  Uiso   1.00
C14    C     0.16712   0.16666   0.33588   0.00000  Uiso   1.00
Zn15   Zn    0.16667   0.21771   0.25000   0.00000  Uiso   1.00
Zn16   Zn    0.16667   0.11563   0.25000   0.00000  Uiso   1.00
H17    H     0.21414   0.04212   0.29925   0.00000  Uiso   1.00
H18    H     0.11921   0.29119   0.20073   0.00000  Uiso   1.00
H19    H     0.11919   0.04220   0.20075   0.00000  Uiso   1.00
H20    H     0.21412   0.29111   0.29927   0.00000  Uiso   1.00
C21    C     0.19305   0.02396   0.27738   0.00000  Uiso   1.00
C22    C     0.14029   0.30936   0.22262   0.00000  Uiso   1.00
C23    C     0.14028   0.02400   0.22263   0.00000  Uiso   1.00
C24    C     0.19304   0.30932   0.27738   0.00000  Uiso   1.00
C25    C     0.02130   0.12694   0.23876   0.00000  Uiso   1.00
C26    C     0.31206   0.20647   0.26095   0.00000  Uiso   1.00
C27    C     0.31195   0.12699   0.23857   0.00000  Uiso   1.00
C28    C     0.02140   0.20641   0.26124   0.00000  Uiso   1.00
C29    C     0.20119   0.18399   0.04751   0.00000  Uiso   1.00
C30    C     0.13211   0.18500   0.45239   0.00000  Uiso   1.00
C31    C     0.20109   0.15102   0.45356   0.00000  Uiso   1.00
C32    C     0.13122   0.15246   0.04667   0.00000  Uiso   1.00
H33    H     0.22804   0.19674   0.02956   0.00000  Uiso   1.00
H34    H     0.10558   0.19865   0.47022   0.00000  Uiso   1.00
H35    H     0.22748   0.13807   0.47239   0.00000  Uiso   1.00
H36    H     0.10437   0.14045   0.02799   0.00000  Uiso   1.00
C37    C     0.20196   0.18282   0.09382   0.00000  Uiso   1.00
C38    C     0.13147   0.18385   0.40608   0.00000  Uiso   1.00
C39    C     0.20197   0.15051   0.40725   0.00000  Uiso   1.00
C40    C     0.13051   0.15197   0.09300   0.00000  Uiso   1.00
C41    C     0.16630   0.16689   0.11640   0.00000  Uiso   1.00
C42    C     0.16677   0.16676   0.38365   0.00000  Uiso   1.00
H43    H     0.03757   0.09616   0.22964   0.00000  Uiso   1.00
H44    H     0.29579   0.23727   0.27002   0.00000  Uiso   1.00
H45    H     0.29560   0.09620   0.22944   0.00000  Uiso   1.00
H46    H     0.03775   0.23717   0.27045   0.00000  Uiso   1.00
C47    C     0.16623   0.16852   0.02417   0.00000  Uiso   1.00
C48    C     0.16653   0.16838   0.47589   0.00000  Uiso   1.00
C49    C     0.29084   0.16673   0.24971   0.00000  Uiso   1.00
C50    C     0.04250   0.16665   0.25011   0.00000  Uiso   1.00
C51    C     0.24150   0.19760   0.11773   0.00000  Uiso   1.00
C52    C     0.24386   0.24910   0.12124   0.00000  Uiso   1.00
H53    H     0.21674   0.26245   0.14001   0.00000  Uiso   1.00
H54    H     0.27285   0.25888   0.13923   0.00000  Uiso   1.00
H55    H     0.24431   0.26461   0.08742   0.00000  Uiso   1.00
H56    H     0.24386   0.18271   0.15170   0.00000  Uiso   1.00
H57    H     0.26915   0.18504   0.09923   0.00000  Uiso   1.00
C58    C     0.09240   0.19983   0.38200   0.00000  Uiso   1.00
C59    C     0.09123   0.25139   0.37862   0.00000  Uiso   1.00
H60    H     0.11873   0.26409   0.36002   0.00000  Uiso   1.00
H61    H     0.06255   0.26201   0.36051   0.00000  Uiso   1.00
H62    H     0.09099   0.26677   0.41247   0.00000  Uiso   1.00
H63    H     0.08982   0.18514   0.34799   0.00000  Uiso   1.00
H64    H     0.06438   0.18795   0.40034   0.00000  Uiso   1.00
C65    C     0.24129   0.13419   0.38431   0.00000  Uiso   1.00
C66    C     0.26831   0.17406   0.36974   0.00000  Uiso   1.00
H67    H     0.29692   0.16121   0.35329   0.00000  Uiso   1.00
H68    H     0.25123   0.19603   0.34577   0.00000  Uiso   1.00
H69    H     0.27765   0.19456   0.39925   0.00000  Uiso   1.00
H70    H     0.26005   0.11267   0.40736   0.00000  Uiso   1.00
H71    H     0.23376   0.11250   0.35514   0.00000  Uiso   1.00
C72    C     0.09082   0.13711   0.11620   0.00000  Uiso   1.00
C73    C     0.06492   0.17798   0.13036   0.00000  Uiso   1.00
H74    H     0.03572   0.16626   0.14643   0.00000  Uiso   1.00
H75    H     0.08243   0.19928   0.15454   0.00000  Uiso   1.00
H76    H     0.05657   0.19881   0.10071   0.00000  Uiso   1.00
H77    H     0.07148   0.11595   0.09341   0.00000  Uiso   1.00
H78    H     0.09784   0.11552   0.14564   0.00000  Uiso   1.00
O79    O     0.43892   0.20487   0.25000   0.00000  Uiso   1.00
O80    O     0.56108   0.12846   0.25001   0.00000  Uiso   1.00
O81    O     0.56108   0.20487   0.25001   0.00000  Uiso   1.00
O82    O     0.43892   0.12846   0.25000   0.00000  Uiso   1.00
N83    N     0.50000   0.28573   0.25000   0.00000  Uiso   1.00
N84    N     0.50000   0.04760   0.25000   0.00000  Uiso   1.00
C85    C     0.41997   0.16666   0.25007   0.00000  Uiso   1.00
C86    C     0.58003   0.16668   0.24988   0.00000  Uiso   1.00
O87    O     0.50000   0.20489   0.18453   0.00000  Uiso   1.00
O88    O     0.50000   0.12845   0.31547   0.00000  Uiso   1.00
O89    O     0.50000   0.20489   0.31547   0.00000  Uiso   1.00
O90    O     0.50000   0.12845   0.18453   0.00000  Uiso   1.00
C91    C     0.49949   0.16670   0.16414   0.00000  Uiso   1.00
C92    C     0.50046   0.16666   0.33588   0.00000  Uiso   1.00
Zn93   Zn    0.50000   0.21771   0.25000   0.00000  Uiso   1.00
Zn94   Zn    0.50000   0.11563   0.25000   0.00000  Uiso   1.00
H95    H     0.54748   0.04212   0.29925   0.00000  Uiso   1.00
H96    H     0.45254   0.29119   0.20073   0.00000  Uiso   1.00
H97    H     0.45252   0.04220   0.20075   0.00000  Uiso   1.00
H98    H     0.54746   0.29111   0.29927   0.00000  Uiso   1.00
C99    C     0.52638   0.02396   0.27738   0.00000  Uiso   1.00
C100   C     0.47362   0.30936   0.22262   0.00000  Uiso   1.00
C101   C     0.47362   0.02400   0.22263   0.00000  Uiso   1.00
C102   C     0.52638   0.30932   0.27738   0.00000  Uiso   1.00
C103   C     0.35463   0.12694   0.23876   0.00000  Uiso   1.00
C104   C     0.64539   0.20647   0.26095   0.00000  Uiso   1.00
C105   C     0.64529   0.12699   0.23857   0.00000  Uiso   1.00
C106   C     0.35473   0.20641   0.26124   0.00000  Uiso   1.00
C107   C     0.53452   0.18399   0.04751   0.00000  Uiso   1.00
C108   C     0.46544   0.18500   0.45239   0.00000  Uiso   1.00
C109   C     0.53442   0.15102   0.45356   0.00000  Uiso   1.00
C110   C     0.46455   0.15246   0.04667   0.00000  Uiso   1.00
H111   H     0.56137   0.19674   0.02956   0.00000  Uiso   1.00
H112   H     0.43892   0.19865   0.47022   0.00000  Uiso   1.00
H113   H     0.56082   0.13807   0.47239   0.00000  Uiso   1.00
H114   H     0.43771   0.14045   0.02799   0.00000  Uiso   1.00
C115   C     0.53529   0.18282   0.09382   0.00000  Uiso   1.00
C116   C     0.46481   0.18385   0.40608   0.00000  Uiso   1.00
C117   C     0.53531   0.15051   0.40725   0.00000  Uiso   1.00
C118   C     0.46384   0.15197   0.09300   0.00000  Uiso   1.00
C119   C     0.49963   0.16689   0.11640   0.00000  Uiso   1.00
C120   C     0.50010   0.16676   0.38365   0.00000  Uiso   1.00
H121   H     0.37090   0.09616   0.22964   0.00000  Uiso   1.00
H122   H     0.62912   0.23727   0.27002   0.00000  Uiso   1.00
H123   H     0.62894   0.09620   0.22944   0.00000  Uiso   1.00
H124   H     0.37108   0.23717   0.27045   0.00000  Uiso   1.00
C125   C     0.49956   0.16852   0.02417   0.00000  Uiso   1.00
C126   C     0.49986   0.16838   0.47589   0.00000  Uiso   1.00
C127   C     0.62418   0.16673   0.24971   0.00000  Uiso   1.00
C128   C     0.37584   0.16665   0.25011   0.00000  Uiso   1.00
C129   C     0.57483   0.19760   0.11773   0.00000  Uiso   1.00
C130   C     0.57719   0.24910   0.12124   0.00000  Uiso   1.00
H131   H     0.55007   0.26245   0.14001   0.00000  Uiso   1.00
H132   H     0.60618   0.25888   0.13923   0.00000  Uiso   1.00
H133   H     0.57764   0.26461   0.08742   0.00000  Uiso   1.00
H134   H     0.57719   0.18271   0.15170   0.00000  Uiso   1.00
H135   H     0.60249   0.18504   0.09923   0.00000  Uiso   1.00
C136   C     0.42573   0.19983   0.38200   0.00000  Uiso   1.00
C137   C     0.42456   0.25139   0.37862   0.00000  Uiso   1.00
H138   H     0.45206   0.26409   0.36002   0.00000  Uiso   1.00
H139   H     0.39588   0.26201   0.36051   0.00000  Uiso   1.00
H140   H     0.42432   0.26677   0.41247   0.00000  Uiso   1.00
H141   H     0.42315   0.18514   0.34799   0.00000  Uiso   1.00
H142   H     0.39772   0.18795   0.40034   0.00000  Uiso   1.00
C143   C     0.57462   0.13419   0.38431   0.00000  Uiso   1.00
C144   C     0.60165   0.17406   0.36974   0.00000  Uiso   1.00
H145   H     0.63025   0.16121   0.35329   0.00000  Uiso   1.00
H146   H     0.58456   0.19603   0.34577   0.00000  Uiso   1.00
H147   H     0.61098   0.19456   0.39925   0.00000  Uiso   1.00
H148   H     0.59338   0.11267   0.40736   0.00000  Uiso   1.00
H149   H     0.56709   0.11250   0.35514   0.00000  Uiso   1.00
C150   C     0.42416   0.13711   0.11620   0.00000  Uiso   1.00
C151   C     0.39825   0.17798   0.13036   0.00000  Uiso   1.00
H152   H     0.36906   0.16626   0.14643   0.00000  Uiso   1.00
H153   H     0.41576   0.19928   0.15454   0.00000  Uiso   1.00
H154   H     0.38991   0.19881   0.10071   0.00000  Uiso   1.00
H155   H     0.40481   0.11595   0.09341   0.00000  Uiso   1.00
H156   H     0.43117   0.11552   0.14564   0.00000  Uiso   1.00
O157   O     0.77226   0.20487   0.25000   0.00000  Uiso   1.00
O158   O     0.89441   0.12846   0.25001   0.00000  Uiso   1.00
O159   O     0.89441   0.20487   0.25001   0.00000  Uiso   1.00
O160   O     0.77226   0.12846   0.25000   0.00000  Uiso   1.00
N161   N     0.83333   0.28573   0.25000   0.00000  Uiso   1.00
N162   N     0.83333   0.04760   0.25000   0.00000  Uiso   1.00
C163   C     0.75330   0.16666   0.25007   0.00000  Uiso   1.00
C164   C     0.91337   0.16668   0.24988   0.00000  Uiso   1.00
O165   O     0.83333   0.20489   0.18453   0.00000  Uiso   1.00
O166   O     0.83334   0.12845   0.31547   0.00000  Uiso   1.00
O167   O     0.83334   0.20489   0.31547   0.00000  Uiso   1.00
O168   O     0.83333   0.12845   0.18453   0.00000  Uiso   1.00
C169   C     0.83282   0.16670   0.16414   0.00000  Uiso   1.00
C170   C     0.83379   0.16666   0.33588   0.00000  Uiso   1.00
Zn171  Zn    0.83333   0.21771   0.25000   0.00000  Uiso   1.00
Zn172  Zn    0.83333   0.11563   0.25000   0.00000  Uiso   1.00
H173   H     0.88081   0.04212   0.29925   0.00000  Uiso   1.00
H174   H     0.78588   0.29119   0.20073   0.00000  Uiso   1.00
H175   H     0.78585   0.04220   0.20075   0.00000  Uiso   1.00
H176   H     0.88079   0.29111   0.29927   0.00000  Uiso   1.00
C177   C     0.85972   0.02396   0.27738   0.00000  Uiso   1.00
C178   C     0.80696   0.30936   0.22262   0.00000  Uiso   1.00
C179   C     0.80695   0.02400   0.22263   0.00000  Uiso   1.00
C180   C     0.85971   0.30932   0.27738   0.00000  Uiso   1.00
C181   C     0.68796   0.12694   0.23876   0.00000  Uiso   1.00
C182   C     0.97872   0.20647   0.26095   0.00000  Uiso   1.00
C183   C     0.97862   0.12699   0.23857   0.00000  Uiso   1.00
C184   C     0.68806   0.20641   0.26124   0.00000  Uiso   1.00
C185   C     0.86786   0.18399   0.04751   0.00000  Uiso   1.00
C186   C     0.79877   0.18500   0.45239   0.00000  Uiso   1.00
C187   C     0.86775   0.15102   0.45356   0.00000  Uiso   1.00
C188   C     0.79788   0.15246   0.04667   0.00000  Uiso   1.00
H189   H     0.89470   0.19674   0.02956   0.00000  Uiso   1.00
H190   H     0.77225   0.19865   0.47022   0.00000  Uiso   1.00
H191   H     0.89415   0.13807   0.47239   0.00000  Uiso   1.00
H192   H     0.77104   0.14045   0.02799   0.00000  Uiso   1.00
C193   C     0.86863   0.18282   0.09382   0.00000  Uiso   1.00
C194   C     0.79814   0.18385   0.40608   0.00000  Uiso   1.00
C195   C     0.86864   0.15051   0.40725   0.00000  Uiso   1.00
C196   C     0.79718   0.15197   0.09300   0.00000  Uiso   1.00
C197   C     0.83296   0.16689   0.11640   0.00000  Uiso   1.00
C198   C     0.83344   0.16676   0.38365   0.00000  Uiso   1.00
H199   H     0.70424   0.09616   0.22964   0.00000  Uiso   1.00
H200   H     0.96245   0.23727   0.27002   0.00000  Uiso   1.00
H201   H     0.96227   0.09620   0.22944   0.00000  Uiso   1.00
H202   H     0.70442   0.23717   0.27045   0.00000  Uiso   1.00
C203   C     0.83290   0.16852   0.02417   0.00000  Uiso   1.00
C204   C     0.83320   0.16838   0.47589   0.00000  Uiso   1.00
C205   C     0.95751   0.16673   0.24971   0.00000  Uiso   1.00
C206   C     0.70917   0.16665   0.25011   0.00000  Uiso   1.00
C207   C     0.90816   0.19760   0.11773   0.00000  Uiso   1.00
C208   C     0.91053   0.24910   0.12124   0.00000  Uiso   1.00
H209   H     0.88341   0.26245   0.14001   0.00000  Uiso   1.00
H210   H     0.93952   0.25888   0.13923   0.00000  Uiso   1.00
H211   H     0.91098   0.26461   0.08742   0.00000  Uiso   1.00
H212   H     0.91052   0.18271   0.15170   0.00000  Uiso   1.00
H213   H     0.93582   0.18504   0.09923   0.00000  Uiso   1.00
C214   C     0.75907   0.19983   0.38200   0.00000  Uiso   1.00
C215   C     0.75790   0.25139   0.37862   0.00000  Uiso   1.00
H216   H     0.78539   0.26409   0.36002   0.00000  Uiso   1.00
H217   H     0.72922   0.26201   0.36051   0.00000  Uiso   1.00
H218   H     0.75765   0.26677   0.41247   0.00000  Uiso   1.00
H219   H     0.75649   0.18514   0.34799   0.00000  Uiso   1.00
H220   H     0.73105   0.18795   0.40034   0.00000  Uiso   1.00
C221   C     0.90796   0.13419   0.38431   0.00000  Uiso   1.00
C222   C     0.93498   0.17406   0.36974   0.00000  Uiso   1.00
H223   H     0.96358   0.16121   0.35329   0.00000  Uiso   1.00
H224   H     0.91790   0.19603   0.34577   0.00000  Uiso   1.00
H225   H     0.94432   0.19456   0.39925   0.00000  Uiso   1.00
H226   H     0.92672   0.11267   0.40736   0.00000  Uiso   1.00
H227   H     0.90042   0.11250   0.35514   0.00000  Uiso   1.00
C228   C     0.75749   0.13711   0.11620   0.00000  Uiso   1.00
C229   C     0.73159   0.17798   0.13036   0.00000  Uiso   1.00
H230   H     0.70239   0.16626   0.14643   0.00000  Uiso   1.00
H231   H     0.74910   0.19928   0.15454   0.00000  Uiso   1.00
H232   H     0.72324   0.19881   0.10071   0.00000  Uiso   1.00
H233   H     0.73815   0.11595   0.09341   0.00000  Uiso   1.00
H234   H     0.76451   0.11552   0.14564   0.00000  Uiso   1.00
O235   O     0.10559   0.53821   0.25000   0.00000  Uiso   1.00
O236   O     0.22774   0.46179   0.25001   0.00000  Uiso   1.00
O237   O     0.22774   0.53821   0.25001   0.00000  Uiso   1.00
O238   O     0.10559   0.46179   0.25000   0.00000  Uiso   1.00
N239   N     0.16667   0.61907   0.25000   0.00000  Uiso   1.00
N240   N     0.16667   0.38093   0.25000   0.00000  Uiso   1.00
C241   C     0.08664   0.49999   0.25007   0.00000  Uiso   1.00
C242   C     0.24670   0.50001   0.24988   0.00000  Uiso   1.00
O243   O     0.16666   0.53822   0.18453   0.00000  Uiso   1.00
O244   O     0.16667   0.46178   0.31547   0.00000  Uiso   1.00
O245   O     0.16667   0.53822   0.31547   0.00000  Uiso   1.00
O246   O     0.16666   0.46178   0.18453   0.00000  Uiso   1.00
C247   C     0.16616   0.50003   0.16414   0.00000  Uiso   1.00
C248   C     0.16712   0.49999   0.33588   0.00000  Uiso   1.00
Zn249  Zn    0.16667   0.55104   0.25000   0.00000  Uiso   1.00
Zn250  Zn    0.16667   0.44896   0.25000   0.00000  Uiso   1.00
H251   H     0.21414   0.37546   0.29925   0.00000  Uiso   1.00
H252   H     0.11921   0.62452   0.20073   0.00000  Uiso   1.00
H253   H     0.11919   0.37554   0.20075   0.00000  Uiso   1.00
H254   H     0.21412   0.62444   0.29927   0.00000  Uiso   1.00
C255   C     0.19305   0.35729   0.27738   0.00000  Uiso   1.00
C256   C     0.14029   0.64270   0.22262   0.00000  Uiso   1.00
C257   C     0.14028   0.35734   0.22263   0.00000  Uiso   1.00
C258   C     0.19304   0.64265   0.27738   0.00000  Uiso   1.00
C259   C     0.02130   0.46028   0.23876   0.00000  Uiso   1.00
C260   C     0.31206   0.53981   0.26095   0.00000  Uiso   1.00
C261   C     0.31195   0.46032   0.23857   0.00000  Uiso   1.00
C262   C     0.02140   0.53974   0.26124   0.00000  Uiso   1.00
C263   C     0.20119   0.51733   0.04751   0.00000  Uiso   1.00
C264   C     0.13211   0.51833   0.45239   0.00000  Uiso   1.00
C265   C     0.20109   0.48436   0.45356   0.00000  Uiso   1.00
C266   C     0.13122   0.48579   0.04667   0.00000  Uiso   1.00
H267   H     0.22804   0.53008   0.02956   0.00000  Uiso   1.00
H268   H     0.10558   0.53199   0.47022   0.00000  Uiso   1.00
H269   H     0.22748   0.47141   0.47239   0.00000  Uiso   1.00
H270   H     0.10437   0.47378   0.02799   0.00000  Uiso   1.00
C271   C     0.20196   0.51616   0.09382   0.00000  Uiso   1.00
C272   C     0.13147   0.51719   0.40608   0.00000  Uiso   1.00
C273   C     0.20197   0.48384   0.40725   0.00000  Uiso   1.00
C274   C     0.13051   0.48530   0.09300   0.00000  Uiso   1.00
C275   C     0.16630   0.50023   0.11640   0.00000  Uiso   1.00
C276   C     0.16677   0.50009   0.38365   0.00000  Uiso   1.00
H277   H     0.03757   0.42950   0.22964   0.00000  Uiso   1.00
H278   H     0.29579   0.57061   0.27002   0.00000  Uiso   1.00
H279   H     0.29560   0.42953   0.22944   0.00000  Uiso   1.00
H280   H     0.03775   0.57050   0.27045   0.00000  Uiso   1.00
C281   C     0.16623   0.50186   0.02417   0.00000  Uiso   1.00
C282   C     0.16653   0.50172   0.47589   0.00000  Uiso   1.00
C283   C     0.29084   0.50007   0.24971   0.00000  Uiso   1.00
C284   C     0.04250   0.49998   0.25011   0.00000  Uiso   1.00
C285   C     0.24150   0.53094   0.11773   0.00000  Uiso   1.00
C286   C     0.24386   0.58243   0.12124   0.00000  Uiso   1.00
H287   H     0.21674   0.59578   0.14001   0.00000  Uiso   1.00
H288   H     0.27285   0.59221   0.13923   0.00000  Uiso   1.00
H289   H     0.24431   0.59795   0.08742   0.00000  Uiso   1.00
H290   H     0.24386   0.51604   0.15170   0.00000  Uiso   1.00
H291   H     0.26915   0.51838   0.09923   0.00000  Uiso   1.00
C292   C     0.09240   0.53316   0.38200   0.00000  Uiso   1.00
C293   C     0.09123   0.58472   0.37862   0.00000  Uiso   1.00
H294   H     0.11873   0.59742   0.36002   0.00000  Uiso   1.00
H295   H     0.06255   0.59535   0.36051   0.00000  Uiso   1.00
H296   H     0.09099   0.60010   0.41247   0.00000  Uiso   1.00
H297   H     0.08982   0.51848   0.34799   0.00000  Uiso   1.00
H298   H     0.06438   0.52128   0.40034   0.00000  Uiso   1.00
C299   C     0.24129   0.46752   0.38431   0.00000  Uiso   1.00
C300   C     0.26831   0.50739   0.36974   0.00000  Uiso   1.00
H301   H     0.29692   0.49454   0.35329   0.00000  Uiso   1.00
H302   H     0.25123   0.52936   0.34577   0.00000  Uiso   1.00
H303   H     0.27765   0.52790   0.39925   0.00000  Uiso   1.00
H304   H     0.26005   0.44600   0.40736   0.00000  Uiso   1.00
H305   H     0.23376   0.44583   0.35514   0.00000  Uiso   1.00
C306   C     0.09082   0.47044   0.11620   0.00000  Uiso   1.00
C307   C     0.06492   0.51132   0.13036   0.00000  Uiso   1.00
H308   H     0.03572   0.49959   0.14643   0.00000  Uiso   1.00
H309   H     0.08243   0.53262   0.15454   0.00000  Uiso   1.00
H310   H     0.05657   0.53215   0.10071   0.00000  Uiso   1.00
H311   H     0.07148   0.44929   0.09341   0.00000  Uiso   1.00
H312   H     0.09784   0.44885   0.14564   0.00000  Uiso   1.00
O313   O     0.43892   0.53821   0.25000   0.00000  Uiso   1.00
O314   O     0.56108   0.46179   0.25001   0.00000  Uiso   1.00
O315   O     0.56108   0.53821   0.25001   0.00000  Uiso   1.00
O316   O     0.43892   0.46179   0.25000   0.00000  Uiso   1.00
N317   N     0.50000   0.61907   0.25000   0.00000  Uiso   1.00
N318   N     0.50000   0.38093   0.25000   0.00000  Uiso   1.00
C319   C     0.41997   0.49999   0.25007   0.00000  Uiso   1.00
C320   C     0.58003   0.50001   0.24988   0.00000  Uiso   1.00
O321   O     0.50000   0.53822   0.18453   0.00000  Uiso   1.00
O322   O     0.50000   0.46178   0.31547   0.00000  Uiso   1.00
O323   O     0.50000   0.53822   0.31547   0.00000  Uiso   1.00
O324   O     0.50000   0.46178   0.18453   0.00000  Uiso   1.00
C325   C     0.49949   0.50003   0.16414   0.00000  Uiso   1.00
C326   C     0.50046   0.49999   0.33588   0.00000  Uiso   1.00
Zn327  Zn    0.50000   0.55104   0.25000   0.00000  Uiso   1.00
Zn328  Zn    0.50000   0.44896   0.25000   0.00000  Uiso   1.00
H329   H     0.54748   0.37546   0.29925   0.00000  Uiso   1.00
H330   H     0.45254   0.62452   0.20073   0.00000  Uiso   1.00
H331   H     0.45252   0.37554   0.20075   0.00000  Uiso   1.00
H332   H     0.54746   0.62444   0.29927   0.00000  Uiso   1.00
C333   C     0.52638   0.35729   0.27738   0.00000  Uiso   1.00
C334   C     0.47362   0.64270   0.22262   0.00000  Uiso   1.00
C335   C     0.47362   0.35734   0.22263   0.00000  Uiso   1.00
C336   C     0.52638   0.64265   0.27738   0.00000  Uiso   1.00
C337   C     0.35463   0.46028   0.23876   0.00000  Uiso   1.00
C338   C     0.64539   0.53981   0.26095   0.00000  Uiso   1.00
C339   C     0.64529   0.46032   0.23857   0.00000  Uiso   1.00
C340   C     0.35473   0.53974   0.26124   0.00000  Uiso   1.00
C341   C     0.53452   0.51733   0.04751   0.00000  Uiso   1.00
C342   C     0.46544   0.51833   0.45239   0.00000  Uiso   1.00
C343   C     0.53442   0.48436   0.45356   0.00000  Uiso   1.00
C344   C     0.46455   0.48579   0.04667   0.00000  Uiso   1.00
H345   H     0.56137   0.53008   0.02956   0.00000  Uiso   1.00
H346   H     0.43892   0.53199   0.47022   0.00000  Uiso   1.00
H347   H     0.56082   0.47141   0.47239   0.00000  Uiso   1.00
H348   H     0.43771   0.47378   0.02799   0.00000  Uiso   1.00
C349   C     0.53529   0.51616   0.09382   0.00000  Uiso   1.00
C350   C     0.46481   0.51719   0.40608   0.00000  Uiso   1.00
C351   C     0.53531   0.48384   0.40725   0.00000  Uiso   1.00
C352   C     0.46384   0.48530   0.09300   0.00000  Uiso   1.00
C353   C     0.49963   0.50023   0.11640   0.00000  Uiso   1.00
C354   C     0.50010   0.50009   0.38365   0.00000  Uiso   1.00
H355   H     0.37090   0.42950   0.22964   0.00000  Uiso   1.00
H356   H     0.62912   0.57061   0.27002   0.00000  Uiso   1.00
H357   H     0.62894   0.42953   0.22944   0.00000  Uiso   1.00
H358   H     0.37108   0.57050   0.27045   0.00000  Uiso   1.00
C359   C     0.49956   0.50186   0.02417   0.00000  Uiso   1.00
C360   C     0.49986   0.50172   0.47589   0.00000  Uiso   1.00
C361   C     0.62418   0.50007   0.24971   0.00000  Uiso   1.00
C362   C     0.37584   0.49998   0.25011   0.00000  Uiso   1.00
C363   C     0.57483   0.53094   0.11773   0.00000  Uiso   1.00
C364   C     0.57719   0.58243   0.12124   0.00000  Uiso   1.00
H365   H     0.55007   0.59578   0.14001   0.00000  Uiso   1.00
H366   H     0.60618   0.59221   0.13923   0.00000  Uiso   1.00
H367   H     0.57764   0.59795   0.08742   0.00000  Uiso   1.00
H368   H     0.57719   0.51604   0.15170   0.00000  Uiso   1.00
H369   H     0.60249   0.51838   0.09923   0.00000  Uiso   1.00
C370   C     0.42573   0.53316   0.38200   0.00000  Uiso   1.00
C371   C     0.42456   0.58472   0.37862   0.00000  Uiso   1.00
H372   H     0.45206   0.59742   0.36002   0.00000  Uiso   1.00
H373   H     0.39588   0.59535   0.36051   0.00000  Uiso   1.00
H374   H     0.42432   0.60010   0.41247   0.00000  Uiso   1.00
H375   H     0.42315   0.51848   0.34799   0.00000  Uiso   1.00
H376   H     0.39772   0.52128   0.40034   0.00000  Uiso   1.00
C377   C     0.57462   0.46752   0.38431   0.00000  Uiso   1.00
C378   C     0.60165   0.50739   0.36974   0.00000  Uiso   1.00
H379   H     0.63025   0.49454   0.35329   0.00000  Uiso   1.00
H380   H     0.58456   0.52936   0.34577   0.00000  Uiso   1.00
H381   H     0.61098   0.52790   0.39925   0.00000  Uiso   1.00
H382   H     0.59338   0.44600   0.40736   0.00000  Uiso   1.00
H383   H     0.56709   0.44583   0.35514   0.00000  Uiso   1.00
C384   C     0.42416   0.47044   0.11620   0.00000  Uiso   1.00
C385   C     0.39825   0.51132   0.13036   0.00000  Uiso   1.00
H386   H     0.36906   0.49959   0.14643   0.00000  Uiso   1.00
H387   H     0.41576   0.53262   0.15454   0.00000  Uiso   1.00
H388   H     0.38991   0.53215   0.10071   0.00000  Uiso   1.00
H389   H     0.40481   0.44929   0.09341   0.00000  Uiso   1.00
H390   H     0.43117   0.44885   0.14564   0.00000  Uiso   1.00
O391   O     0.77226   0.53821   0.25000   0.00000  Uiso   1.00
O392   O     0.89441   0.46179   0.25001   0.00000  Uiso   1.00
O393   O     0.89441   0.53821   0.25001   0.00000  Uiso   1.00
O394   O     0.77226   0.46179   0.25000   0.00000  Uiso   1.00
N395   N     0.83333   0.61907   0.25000   0.00000  Uiso   1.00
N396   N     0.83333   0.38093   0.25000   0.00000  Uiso   1.00
C397   C     0.75330   0.49999   0.25007   0.00000  Uiso   1.00
C398   C     0.91337   0.50001   0.24988   0.00000  Uiso   1.00
O399   O     0.83333   0.53822   0.18453   0.00000  Uiso   1.00
O400   O     0.83334   0.46178   0.31547   0.00000  Uiso   1.00
O401   O     0.83334   0.53822   0.31547   0.00000  Uiso   1.00
O402   O     0.83333   0.46178   0.18453   0.00000  Uiso   1.00
C403   C     0.83282   0.50003   0.16414   0.00000  Uiso   1.00
C404   C     0.83379   0.49999   0.33588   0.00000  Uiso   1.00
Zn405  Zn    0.83333   0.55104   0.25000   0.00000  Uiso   1.00
Zn406  Zn    0.83333   0.44896   0.25000   0.00000  Uiso   1.00
H407   H     0.88081   0.37546   0.29925   0.00000  Uiso   1.00
H408   H     0.78588   0.62452   0.20073   0.00000  Uiso   1.00
H409   H     0.78585   0.37554   0.20075   0.00000  Uiso   1.00
H410   H     0.88079   0.62444   0.29927   0.00000  Uiso   1.00
C411   C     0.85972   0.35729   0.27738   0.00000  Uiso   1.00
C412   C     0.80696   0.64270   0.22262   0.00000  Uiso   1.00
C413   C     0.80695   0.35734   0.22263   0.00000  Uiso   1.00
C414   C     0.85971   0.64265   0.27738   0.00000  Uiso   1.00
C415   C     0.68796   0.46028   0.23876   0.00000  Uiso   1.00
C416   C     0.97872   0.53981   0.26095   0.00000  Uiso   1.00
C417   C     0.97862   0.46032   0.23857   0.00000  Uiso   1.00
C418   C     0.68806   0.53974   0.26124   0.00000  Uiso   1.00
C419   C     0.86786   0.51733   0.04751   0.00000  Uiso   1.00
C420   C     0.79877   0.51833   0.45239   0.00000  Uiso   1.00
C421   C     0.86775   0.48436   0.45356   0.00000  Uiso   1.00
C422   C     0.79788   0.48579   0.04667   0.00000  Uiso   1.00
H423   H     0.89470   0.53008   0.02956   0.00000  Uiso   1.00
H424   H     0.77225   0.53199   0.47022   0.00000  Uiso   1.00
H425   H     0.89415   0.47141   0.47239   0.00000  Uiso   1.00
H426   H     0.77104   0.47378   0.02799   0.00000  Uiso   1.00
C427   C     0.86863   0.51616   0.09382   0.00000  Uiso   1.00
C428   C     0.79814   0.51719   0.40608   0.00000  Uiso   1.00
C429   C     0.86864   0.48384   0.40725   0.00000  Uiso   1.00
C430   C     0.79718   0.48530   0.09300   0.00000  Uiso   1.00
C431   C     0.83296   0.50023   0.11640   0.00000  Uiso   1.00
C432   C     0.83344   0.50009   0.38365   0.00000  Uiso   1.00
H433   H     0.70424   0.42950   0.22964   0.00000  Uiso   1.00
H434   H     0.96245   0.57061   0.27002   0.00000  Uiso   1.00
H435   H     0.96227   0.42953   0.22944   0.00000  Uiso   1.00
H436   H     0.70442   0.57050   0.27045   0.00000  Uiso   1.00
C437   C     0.83290   0.50186   0.02417   0.00000  Uiso   1.00
C438   C     0.83320   0.50172   0.47589   0.00000  Uiso   1.00
C439   C     0.95751   0.50007   0.24971   0.00000  Uiso   1.00
C440   C     0.70917   0.49998   0.25011   0.00000  Uiso   1.00
C441   C     0.90816   0.53094   0.11773   0.00000  Uiso   1.00
C442   C     0.91053   0.58243   0.12124   0.00000  Uiso   1.00
H443   H     0.88341   0.59578   0.14001   0.00000  Uiso   1.00
H444   H     0.93952   0.59221   0.13923   0.00000  Uiso   1.00
H445   H     0.91098   0.59795   0.08742   0.00000  Uiso   1.00
H446   H     0.91052   0.51604   0.15170   0.00000  Uiso   1.00
H447   H     0.93582   0.51838   0.09923   0.00000  Uiso   1.00
C448   C     0.75907   0.53316   0.38200   0.00000  Uiso   1.00
C449   C     0.75790   0.58472   0.37862   0.00000  Uiso   1.00
H450   H     0.78539   0.59742   0.36002   0.00000  Uiso   1.00
H451   H     0.72922   0.59535   0.36051   0.00000  Uiso   1.00
H452   H     0.75765   0.60010   0.41247   0.00000  Uiso   1.00
H453   H     0.75649   0.51848   0.34799   0.00000  Uiso   1.00
H454   H     0.73105   0.52128   0.40034   0.00000  Uiso   1.00
C455   C     0.90796   0.46752   0.38431   0.00000  Uiso   1.00
C456   C     0.93498   0.50739   0.36974   0.00000  Uiso   1.00
H457   H     0.96358   0.49454   0.35329   0.00000  Uiso   1.00
H458   H     0.91790   0.52936   0.34577   0.00000  Uiso   1.00
H459   H     0.94432   0.52790   0.39925   0.00000  Uiso   1.00
H460   H     0.92672   0.44600   0.40736   0.00000  Uiso   1.00
H461   H     0.90042   0.44583   0.35514   0.00000  Uiso   1.00
C462   C     0.75749   0.47044   0.11620   0.00000  Uiso   1.00
C463   C     0.73159   0.51132   0.13036   0.00000  Uiso   1.00
H464   H     0.70239   0.49959   0.14643   0.00000  Uiso   1.00
H465   H     0.74910   0.53262   0.15454   0.00000  Uiso   1.00
H466   H     0.72324   0.53215   0.10071   0.00000  Uiso   1.00
H467   H     0.73815   0.44929   0.09341   0.00000  Uiso   1.00
H468   H     0.76451   0.44885   0.14564   0.00000  Uiso   1.00
O469   O     0.10559   0.87154   0.25000   0.00000  Uiso   1.00
O470   O     0.22774   0.79513   0.25001   0.00000  Uiso   1.00
O471   O     0.22774   0.87154   0.25001   0.00000  Uiso   1.00
O472   O     0.10559   0.79513   0.25000   0.00000  Uiso   1.00
N473   N     0.16667   0.95240   0.25000   0.00000  Uiso   1.00
N474   N     0.16667   0.71427   0.25000   0.00000  Uiso   1.00
C475   C     0.08664   0.83333   0.25007   0.00000  Uiso   1.00
C476   C     0.24670   0.83334   0.24988   0.00000  Uiso   1.00
O477   O     0.16666   0.87155   0.18453   0.00000  Uiso   1.00
O478   O     0.16667   0.79511   0.31547   0.00000  Uiso   1.00
O479   O     0.16667   0.87155   0.31547   0.00000  Uiso   1.00
O480   O     0.16666   0.79511   0.18453   0.00000  Uiso   1.00
C481   C     0.16616   0.83336   0.16414   0.00000  Uiso   1.00
C482   C     0.16712   0.83332   0.33588   0.00000  Uiso   1.00
Zn483  Zn    0.16667   0.88437   0.25000   0.00000  Uiso   1.00
Zn484  Zn    0.16667   0.78229   0.25000   0.00000  Uiso   1.00
H485   H     0.21414   0.70879   0.29925   0.00000  Uiso   1.00
H486   H     0.11921   0.95785   0.20073   0.00000  Uiso   1.00
H487   H     0.11919   0.70887   0.20075   0.00000  Uiso   1.00
H488   H     0.21412   0.95778   0.29927   0.00000  Uiso   1.00
C489   C     0.19305   0.69063   0.27738   0.00000  Uiso   1.00
C490   C     0.14029   0.97603   0.22262   0.00000  Uiso   1.00
C491   C     0.14028   0.69067   0.22263   0.00000  Uiso   1.00
C492   C     0.19304   0.97599   0.27738   0.00000  Uiso   1.00
C493   C     0.02130   0.79361   0.23876   0.00000  Uiso   1.00
C494   C     0.31206   0.87314   0.26095   0.00000  Uiso   1.00
C495   C     0.31195   0.79365   0.23857   0.00000  Uiso   1.00
C496   C     0.02140   0.87307   0.26124   0.00000  Uiso   1.00
C497   C     0.20119   0.85066   0.04751   0.00000  Uiso   1.00
C498   C     0.13211   0.85166   0.45239   0.00000  Uiso   1.00
C499   C     0.20109   0.81769   0.45356   0.00000  Uiso   1.00
C500   C     0.13122   0.81913   0.04667   0.00000  Uiso   1.00
H501   H     0.22804   0.86341   0.02956   0.00000  Uiso   1.00
H502   H     0.10558   0.86532   0.47022   0.00000  Uiso   1.00
H503   H     0.22748   0.80474   0.47239   0.00000  Uiso   1.00
H504   H     0.10437   0.80711   0.02799   0.00000  Uiso   1.00
C505   C     0.20196   0.84949   0.09382   0.00000  Uiso   1.00
C506   C     0.13147   0.85052   0.40608   0.00000  Uiso   1.00
C507   C     0.20197   0.81717   0.40725   0.00000  Uiso   1.00
C508   C     0.13051   0.81863   0.09300   0.00000  Uiso   1.00
C509   C     0.16630   0.83356   0.11640   0.00000  Uiso   1.00
C510   C     0.16677   0.83342   0.38365   0.00000  Uiso   1.00
H511   H     0.03757   0.76283   0.22964   0.00000  Uiso   1.00
H512   H     0.29579   0.90394   0.27002   0.00000  Uiso   1.00
H513   H     0.29560   0.76287   0.22944   0.00000  Uiso   1.00
H514   H     0.03775   0.90384   0.27045   0.00000  Uiso   1.00
C515   C     0.16623   0.83519   0.02417   0.00000  Uiso   1.00
C516   C     0.16653   0.83505   0.47589   0.00000  Uiso   1.00
C517   C     0.29084   0.83340   0.24971   0.00000  Uiso   1.00
C518   C     0.04250   0.83332   0.25011   0.00000  Uiso   1.00
C519   C     0.24150   0.86427   0.11773   0.00000  Uiso   1.00
C520   C     0.24386   0.91577   0.12124   0.00000  Uiso   1.00
H521   H     0.21674   0.92912   0.14001   0.00000  Uiso   1.00
H522   H     0.27285   0.92555   0.13923   0.00000  Uiso   1.00
H523   H     0.24431   0.93128   0.08742   0.00000  Uiso   1.00
H524   H     0.24386   0.84937   0.15170   0.00000  Uiso   1.00
H525   H     0.26915   0.85171   0.09923   0.00000  Uiso   1.00
C526   C     0.09240   0.86649   0.38200   0.00000  Uiso   1.00
C527   C     0.09123   0.91806   0.37862   0.00000  Uiso   1.00
H528   H     0.11873   0.93076   0.36002   0.00000  Uiso   1.00
H529   H     0.06255   0.92868   0.36051   0.00000  Uiso   1.00
H530   H     0.09099   0.93344   0.41247   0.00000  Uiso   1.00
H531   H     0.08982   0.85181   0.34799   0.00000  Uiso   1.00
H532   H     0.06438   0.85461   0.40034   0.00000  Uiso   1.00
C533   C     0.24129   0.80086   0.38431   0.00000  Uiso   1.00
C534   C     0.26831   0.84073   0.36974   0.00000  Uiso   1.00
H535   H     0.29692   0.82788   0.35329   0.00000  Uiso   1.00
H536   H     0.25123   0.86270   0.34577   0.00000  Uiso   1.00
H537   H     0.27765   0.86123   0.39925   0.00000  Uiso   1.00
H538   H     0.26005   0.77934   0.40736   0.00000  Uiso   1.00
H539   H     0.23376   0.77916   0.35514   0.00000  Uiso   1.00
C540   C     0.09082   0.80378   0.11620   0.00000  Uiso   1.00
C541   C     0.06492   0.84465   0.13036   0.00000  Uiso   1.00
H542   H     0.03572   0.83292   0.14643   0.00000  Uiso   1.00
H543   H     0.08243   0.86595   0.15454   0.00000  Uiso   1.00
H544   H     0.05657   0.86548   0.10071   0.00000  Uiso   1.00
H545   H     0.07148   0.78262   0.09341   0.00000  Uiso   1.00
H546   H     0.09784   0.78218   0.14564   0.00000  Uiso   1.00
O547   O     0.43892   0.87154   0.25000   0.00000  Uiso   1.00
O548   O     0.56108   0.79513   0.25001   0.00000  Uiso   1.00
O549   O     0.56108   0.87154   0.25001   0.00000  Uiso   1.00
O550   O     0.43892   0.79513   0.25000   0.00000  Uiso   1.00
N551   N     0.50000   0.95240   0.25000   0.00000  Uiso   1.00
N552   N     0.50000   0.71427   0.25000   0.00000  Uiso   1.00
C553   C     0.41997   0.83333   0.25007   0.00000  Uiso   1.00
C554   C     0.58003   0.83334   0.24988   0.00000  Uiso   1.00
O555   O     0.50000   0.87155   0.18453   0.00000  Uiso   1.00
O556   O     0.50000   0.79511   0.31547   0.00000  Uiso   1.00
O557   O     0.50000   0.87155   0.31547   0.00000  Uiso   1.00
O558   O     0.50000   0.79511   0.18453   0.00000  Uiso   1.00
C559   C     0.49949   0.83336   0.16414   0.00000  Uiso   1.00
C560   C     0.50046   0.83332   0.33588   0.00000  Uiso   1.00
Zn561  Zn    0.50000   0.88437   0.25000   0.00000  Uiso   1.00
Zn562  Zn    0.50000   0.78229   0.25000   0.00000  Uiso   1.00
H563   H     0.54748   0.70879   0.29925   0.00000  Uiso   1.00
H564   H     0.45254   0.95785   0.20073   0.00000  Uiso   1.00
H565   H     0.45252   0.70887   0.20075   0.00000  Uiso   1.00
H566   H     0.54746   0.95778   0.29927   0.00000  Uiso   1.00
C567   C     0.52638   0.69063   0.27738   0.00000  Uiso   1.00
C568   C     0.47362   0.97603   0.22262   0.00000  Uiso   1.00
C569   C     0.47362   0.69067   0.22263   0.00000  Uiso   1.00
C570   C     0.52638   0.97599   0.27738   0.00000  Uiso   1.00
C571   C     0.35463   0.79361   0.23876   0.00000  Uiso   1.00
C572   C     0.64539   0.87314   0.26095   0.00000  Uiso   1.00
C573   C     0.64529   0.79365   0.23857   0.00000  Uiso   1.00
C574   C     0.35473   0.87307   0.26124   0.00000  Uiso   1.00
C575   C     0.53452   0.85066   0.04751   0.00000  Uiso   1.00
C576   C     0.46544   0.85166   0.45239   0.00000  Uiso   1.00
C577   C     0.53442   0.81769   0.45356   0.00000  Uiso   1.00
C578   C     0.46455   0.81913   0.04667   0.00000  Uiso   1.00
H579   H     0.56137   0.86341   0.02956   0.00000  Uiso   1.00
H580   H     0.43892   0.86532   0.47022   0.00000  Uiso   1.00
H581   H     0.56082   0.80474   0.47239   0.00000  Uiso   1.00
H582   H     0.43771   0.80711   0.02799   0.00000  Uiso   1.00
C583   C     0.53529   0.84949   0.09382   0.00000  Uiso   1.00
C584   C     0.46481   0.85052   0.40608   0.00000  Uiso   1.00
C585   C     0.53531   0.81717   0.40725   0.00000  Uiso   1.00
C586   C     0.46384   0.81863   0.09300   0.00000  Uiso   1.00
C587   C     0.49963   0.83356   0.11640   0.00000  Uiso   1.00
C588   C     0.50010   0.83342   0.38365   0.00000  Uiso   1.00
H589   H     0.37090   0.76283   0.22964   0.00000  Uiso   1.00
H590   H     0.62912   0.90394   0.27002   0.00000  Uiso   1.00
H591   H     0.62894   0.76287   0.22944   0.00000  Uiso   1.00
H592   H     0.37108   0.90384   0.27045   0.00000  Uiso   1.00
C593   C     0.49956   0.83519   0.02417   0.00000  Uiso   1.00
C594   C     0.49986   0.83505   0.47589   0.00000  Uiso   1.00
C595   C     0.62418   0.83340   0.24971   0.00000  Uiso   1.00
C596   C     0.37584   0.83332   0.25011   0.00000  Uiso   1.00
C597   C     0.57483   0.86427   0.11773   0.00000  Uiso   1.00
C598   C     0.57719   0.91577   0.12124   0.00000  Uiso   1.00
H599   H     0.55007   0.92912   0.14001   0.00000  Uiso   1.00
H600   H     0.60618   0.92555   0.13923   0.00000  Uiso   1.00
H601   H     0.57764   0.93128   0.08742   0.00000  Uiso   1.00
H602   H     0.57719   0.84937   0.15170   0.00000  Uiso   1.00
H603   H     0.60249   0.85171   0.09923   0.00000  Uiso   1.00
C604   C     0.42573   0.86649   0.38200   0.00000  Uiso   1.00
C605   C     0.42456   0.91806   0.37862   0.00000  Uiso   1.00
H606   H     0.45206   0.93076   0.36002   0.00000  Uiso   1.00
H607   H     0.39588   0.92868   0.36051   0.00000  Uiso   1.00
H608   H     0.42432   0.93344   0.41247   0.00000  Uiso   1.00
H609   H     0.42315   0.85181   0.34799   0.00000  Uiso   1.00
H610   H     0.39772   0.85461   0.40034   0.00000  Uiso   1.00
C611   C     0.57462   0.80086   0.38431   0.00000  Uiso   1.00
C612   C     0.60165   0.84073   0.36974   0.00000  Uiso   1.00
H613   H     0.63025   0.82788   0.35329   0.00000  Uiso   1.00
H614   H     0.58456   0.86270   0.34577   0.00000  Uiso   1.00
H615   H     0.61098   0.86123   0.39925   0.00000  Uiso   1.00
H616   H     0.59338   0.77934   0.40736   0.00000  Uiso   1.00
H617   H     0.56709   0.77916   0.35514   0.00000  Uiso   1.00
C618   C     0.42416   0.80378   0.11620   0.00000  Uiso   1.00
C619   C     0.39825   0.84465   0.13036   0.00000  Uiso   1.00
H620   H     0.36906   0.83292   0.14643   0.00000  Uiso   1.00
H621   H     0.41576   0.86595   0.15454   0.00000  Uiso   1.00
H622   H     0.38991   0.86548   0.10071   0.00000  Uiso   1.00
H623   H     0.40481   0.78262   0.09341   0.00000  Uiso   1.00
H624   H     0.43117   0.78218   0.14564   0.00000  Uiso   1.00
O625   O     0.77226   0.87154   0.25000   0.00000  Uiso   1.00
O626   O     0.89441   0.79513   0.25001   0.00000  Uiso   1.00
O627   O     0.89441   0.87154   0.25001   0.00000  Uiso   1.00
O628   O     0.77226   0.79513   0.25000   0.00000  Uiso   1.00
N629   N     0.83333   0.95240   0.25000   0.00000  Uiso   1.00
N630   N     0.83333   0.71427   0.25000   0.00000  Uiso   1.00
C631   C     0.75330   0.83333   0.25007   0.00000  Uiso   1.00
C632   C     0.91337   0.83334   0.24988   0.00000  Uiso   1.00
O633   O     0.83333   0.87155   0.18453   0.00000  Uiso   1.00
O634   O     0.83334   0.79511   0.31547   0.00000  Uiso   1.00
O635   O     0.83334   0.87155   0.31547   0.00000  Uiso   1.00
O636   O     0.83333   0.79511   0.18453   0.00000  Uiso   1.00
C637   C     0.83282   0.83336   0.16414   0.00000  Uiso   1.00
C638   C     0.83379   0.83332   0.33588   0.00000  Uiso   1.00
Zn639  Zn    0.83333   0.88437   0.25000   0.00000  Uiso   1.00
Zn640  Zn    0.83333   0.78229   0.25000   0.00000  Uiso   1.00
H641   H     0.88081   0.70879   0.29925   0.00000  Uiso   1.00
H642   H     0.78588   0.95785   0.20073   0.00000  Uiso   1.00
H643   H     0.78585   0.70887   0.20075   0.00000  Uiso   1.00
H644   H     0.88079   0.95778   0.29927   0.00000  Uiso   1.00
C645   C     0.85972   0.69063   0.27738   0.00000  Uiso   1.00
C646   C     0.80696   0.97603   0.22262   0.00000  Uiso   1.00
C647   C     0.80695   0.69067   0.22263   0.00000  Uiso   1.00
C648   C     0.85971   0.97599   0.27738   0.00000  Uiso   1.00
C649   C     0.68796   0.79361   0.23876   0.00000  Uiso   1.00
C650   C     0.97872   0.87314   0.26095   0.00000  Uiso   1.00
C651   C     0.97862   0.79365   0.23857   0.00000  Uiso   1.00
C652   C     0.68806   0.87307   0.26124   0.00000  Uiso   1.00
C653   C     0.86786   0.85066   0.04751   0.00000  Uiso   1.00
C654   C     0.79877   0.85166   0.45239   0.00000  Uiso   1.00
C655   C     0.86775   0.81769   0.45356   0.00000  Uiso   1.00
C656   C     0.79788   0.81913   0.04667   0.00000  Uiso   1.00
H657   H     0.89470   0.86341   0.02956   0.00000  Uiso   1.00
H658   H     0.77225   0.86532   0.47022   0.00000  Uiso   1.00
H659   H     0.89415   0.80474   0.47239   0.00000  Uiso   1.00
H660   H     0.77104   0.80711   0.02799   0.00000  Uiso   1.00
C661   C     0.86863   0.84949   0.09382   0.00000  Uiso   1.00
C662   C     0.79814   0.85052   0.40608   0.00000  Uiso   1.00
C663   C     0.86864   0.81717   0.40725   0.00000  Uiso   1.00
C664   C     0.79718   0.81863   0.09300   0.00000  Uiso   1.00
C665   C     0.83296   0.83356   0.11640   0.00000  Uiso   1.00
C666   C     0.83344   0.83342   0.38365   0.00000  Uiso   1.00
H667   H     0.70424   0.76283   0.22964   0.00000  Uiso   1.00
H668   H     0.96245   0.90394   0.27002   0.00000  Uiso   1.00
H669   H     0.96227   0.76287   0.22944   0.00000  Uiso   1.00
H670   H     0.70442   0.90384   0.27045   0.00000  Uiso   1.00
C671   C     0.83290   0.83519   0.02417   0.00000  Uiso   1.00
C672   C     0.83320   0.83505   0.47589   0.00000  Uiso   1.00
C673   C     0.95751   0.83340   0.24971   0.00000  Uiso   1.00
C674   C     0.70917   0.83332   0.25011   0.00000  Uiso   1.00
C675   C     0.90816   0.86427   0.11773   0.00000  Uiso   1.00
C676   C     0.91053   0.91577   0.12124   0.00000  Uiso   1.00
H677   H     0.88341   0.92912   0.14001   0.00000  Uiso   1.00
H678   H     0.93952   0.92555   0.13923   0.00000  Uiso   1.00
H679   H     0.91098   0.93128   0.08742   0.00000  Uiso   1.00
H680   H     0.91052   0.84937   0.15170   0.00000  Uiso   1.00
H681   H     0.93582   0.85171   0.09923   0.00000  Uiso   1.00
C682   C     0.75907   0.86649   0.38200   0.00000  Uiso   1.00
C683   C     0.75790   0.91806   0.37862   0.00000  Uiso   1.00
H684   H     0.78539   0.93076   0.36002   0.00000  Uiso   1.00
H685   H     0.72922   0.92868   0.36051   0.00000  Uiso   1.00
H686   H     0.75765   0.93344   0.41247   0.00000  Uiso   1.00
H687   H     0.75649   0.85181   0.34799   0.00000  Uiso   1.00
H688   H     0.73105   0.85461   0.40034   0.00000  Uiso   1.00
C689   C     0.90796   0.80086   0.38431   0.00000  Uiso   1.00
C690   C     0.93498   0.84073   0.36974   0.00000  Uiso   1.00
H691   H     0.96358   0.82788   0.35329   0.00000  Uiso   1.00
H692   H     0.91790   0.86270   0.34577   0.00000  Uiso   1.00
H693   H     0.94432   0.86123   0.39925   0.00000  Uiso   1.00
H694   H     0.92672   0.77934   0.40736   0.00000  Uiso   1.00
H695   H     0.90042   0.77916   0.35514   0.00000  Uiso   1.00
C696   C     0.75749   0.80378   0.11620   0.00000  Uiso   1.00
C697   C     0.73159   0.84465   0.13036   0.00000  Uiso   1.00
H698   H     0.70239   0.83292   0.14643   0.00000  Uiso   1.00
H699   H     0.74910   0.86595   0.15454   0.00000  Uiso   1.00
H700   H     0.72324   0.86548   0.10071   0.00000  Uiso   1.00
H701   H     0.73815   0.78262   0.09341   0.00000  Uiso   1.00
H702   H     0.76451   0.78218   0.14564   0.00000  Uiso   1.00
O703   O     0.10559   0.20487   0.75000   0.00000  Uiso   1.00
O704   O     0.22774   0.12846   0.75001   0.00000  Uiso   1.00
O705   O     0.22774   0.20487   0.75001   0.00000  Uiso   1.00
O706   O     0.10559   0.12846   0.75000   0.00000  Uiso   1.00
N707   N     0.16667   0.28573   0.75000   0.00000  Uiso   1.00
N708   N     0.16667   0.04760   0.75000   0.00000  Uiso   1.00
C709   C     0.08664   0.16666   0.75007   0.00000  Uiso   1.00
C710   C     0.24670   0.16668   0.74988   0.00000  Uiso   1.00
O711   O     0.16666   0.20489   0.68453   0.00000  Uiso   1.00
O712   O     0.16667   0.12845   0.81547   0.00000  Uiso   1.00
O713   O     0.16667   0.20489   0.81547   0.00000  Uiso   1.00
O714   O     0.16666   0.12845   0.68453   0.00000  Uiso   1.00
C715   C     0.16616   0.16670   0.66414   0.00000  Uiso   1.00
C716   C     0.16712   0.16666   0.83588   0.00000  Uiso   1.00
Zn717  Zn    0.16667   0.21771   0.75000   0.00000  Uiso   1.00
Zn718  Zn    0.16667   0.11563   0.75000   0.00000  Uiso   1.00
H719   H     0.21414   0.04212   0.79925   0.00000  Uiso   1.00
H720   H     0.11921   0.29119   0.70073   0.00000  Uiso   1.00
H721   H     0.11919   0.04220   0.70075   0.00000  Uiso   1.00
H722   H     0.21412   0.29111   0.79927   0.00000  Uiso   1.00
C723   C     0.19305   0.02396   0.77738   0.00000  Uiso   1.00
C724   C     0.14029   0.30936   0.72262   0.00000  Uiso   1.00
C725   C     0.14028   0.02400   0.72263   0.00000  Uiso   1.00
C726   C     0.19304   0.30932   0.77738   0.00000  Uiso   1.00
C727   C     0.02130   0.12694   0.73876   0.00000  Uiso   1.00
C728   C     0.31206   0.20647   0.76095   0.00000  Uiso   1.00
C729   C     0.31195   0.12699   0.73857   0.00000  Uiso   1.00
C730   C     0.02140   0.20641   0.76124   0.00000  Uiso   1.00
C731   C     0.20119   0.18399   0.54751   0.00000  Uiso   1.00
C732   C     0.13211   0.18500   0.95239   0.00000  Uiso   1.00
C733   C     0.20109   0.15102   0.95356   0.00000  Uiso   1.00
C734   C     0.13122   0.15246   0.54667   0.00000  Uiso   1.00
H735   H     0.22804   0.19674   0.52956   0.00000  Uiso   1.00
H736   H     0.10558   0.19865   0.97022   0.00000  Uiso   1.00
H737   H     0.22748   0.13807   0.97239   0.00000  Uiso   1.00
H738   H     0.10437   0.14045   0.52799   0.00000  Uiso   1.00
C739   C     0.20196   0.18282   0.59382   0.00000  Uiso   1.00
C740   C     0.13147   0.18385   0.90608   0.00000  Uiso   1.00
C741   C     0.20197   0.15051   0.90725   0.00000  Uiso   1.00
C742   C     0.13051   0.15197   0.59300   0.00000  Uiso   1.00
C743   C     0.16630   0.16689   0.61640   0.00000  Uiso   1.00
C744   C     0.16677   0.16676   0.88365   0.00000  Uiso   1.00
H745   H     0.03757   0.09616   0.72964   0.00000  Uiso   1.00
H746   H     0.29579   0.23727   0.77002   0.00000  Uiso   1.00
H747   H     0.29560   0.09620   0.72944   0.00000  Uiso   1.00
H748   H     0.03775   0.23717   0.77045   0.00000  Uiso   1.00
C749   C     0.16623   0.16852   0.52417   0.00000  Uiso   1.00
C750   C     0.16653   0.16838   0.97589   0.00000  Uiso   1.00
C751   C     0.29084   0.16673   0.74971   0.00000  Uiso   1.00
C752   C     0.04250   0.16665   0.75011   0.00000  Uiso   1.00
C753   C     0.24150   0.19760   0.61773   0.00000  Uiso   1.00
C754   C     0.24386   0.24910   0.62124   0.00000  Uiso   1.00
H755   H     0.21674   0.26245   0.64001   0.00000  Uiso   1.00
H756   H     0.27285   0.25888   0.63923   0.00000  Uiso   1.00
H757   H     0.24431   0.26461   0.58742   0.00000  Uiso   1.00
H758   H     0.24386   0.18271   0.65170   0.00000  Uiso   1.00
H759   H     0.26915   0.18504   0.59923   0.00000  Uiso   1.00
C760   C     0.09240   0.19983   0.88200   0.00000  Uiso   1.00
C761   C     0.09123   0.25139   0.87862   0.00000  Uiso   1.00
H762   H     0.11873   0.26409   0.86002   0.00000  Uiso   1.00
H763   H     0.06255   0.26201   0.86051   0.00000  Uiso   1.00
H764   H     0.09099   0.26677   0.91247   0.00000  Uiso   1.00
H765   H     0.08982   0.18514   0.84799   0.00000  Uiso   1.00
H766   H     0.06438   0.18795   0.90034   0.00000  Uiso   1.00
C767   C     0.24129   0.13419   0.88431   0.00000  Uiso   1.00
C768   C     0.26831   0.17406   0.86974   0.00000  Uiso   1.00
H769   H     0.29692   0.16121   0.85329   0.00000  Uiso   1.00
H770   H     0.25123   0.19603   0.84577   0.00000  Uiso   1.00
H771   H     0.27765   0.19456   0.89925   0.00000  Uiso   1.00
H772   H     0.26005   0.11267   0.90736   0.00000  Uiso   1.00
H773   H     0.23376   0.11250   0.85514   0.00000  Uiso   1.00
C774   C     0.09082   0.13711   0.61620   0.00000  Uiso   1.00
C775   C     0.06492   0.17798   0.63036   0.00000  Uiso   1.00
H776   H     0.03572   0.16626   0.64643   0.00000  Uiso   1.00
H777   H     0.08243   0.19928   0.65454   0.00000  Uiso   1.00
H778   H     0.05657   0.19881   0.60071   0.00000  Uiso   1.00
H779   H     0.07148   0.11595   0.59341   0.00000  Uiso   1.00
H780   H     0.09784   0.11552   0.64564   0.00000  Uiso   1.00
O781   O     0.43892   0.20487   0.75000   0.00000  Uiso   1.00
O782   O     0.56108   0.12846   0.75001   0.00000  Uiso   1.00
O783   O     0.56108   0.20487   0.75001   0.00000  Uiso   1.00
O784   O     0.43892   0.12846   0.75000   0.00000  Uiso   1.00
N785   N     0.50000   0.28573   0.75000   0.00000  Uiso   1.00
N786   N     0.50000   0.04760   0.75000   0.00000  Uiso   1.00
C787   C     0.41997   0.16666   0.75007   0.00000  Uiso   1.00
C788   C     0.58003   0.16668   0.74988   0.00000  Uiso   1.00
O789   O     0.50000   0.20489   0.68453   0.00000  Uiso   1.00
O790   O     0.50000   0.12845   0.81547   0.00000  Uiso   1.00
O791   O     0.50000   0.20489   0.81547   0.00000  Uiso   1.00
O792   O     0.50000   0.12845   0.68453   0.00000  Uiso   1.00
C793   C     0.49949   0.16670   0.66414   0.00000  Uiso   1.00
C794   C     0.50046   0.16666   0.83588   0.00000  Uiso   1.00
Zn795  Zn    0.50000   0.21771   0.75000   0.00000  Uiso   1.00
Zn796  Zn    0.50000   0.11563   0.75000   0.00000  Uiso   1.00
H797   H     0.54748   0.04212   0.79925   0.00000  Uiso   1.00
H798   H     0.45254   0.29119   0.70073   0.00000  Uiso   1.00
H799   H     0.45252   0.04220   0.70075   0.00000  Uiso   1.00
H800   H     0.54746   0.29111   0.79927   0.00000  Uiso   1.00
C801   C     0.52638   0.02396   0.77738   0.00000  Uiso   1.00
C802   C     0.47362   0.30936   0.72262   0.00000  Uiso   1.00
C803   C     0.47362   0.02400   0.72263   0.00000  Uiso   1.00
C804   C     0.52638   0.30932   0.77738   0.00000  Uiso   1.00
C805   C     0.35463   0.12694   0.73876   0.00000  Uiso   1.00
C806   C     0.64539   0.20647   0.76095   0.00000  Uiso   1.00
C807   C     0.64529   0.12699   0.73857   0.00000  Uiso   1.00
C808   C     0.35473   0.20641   0.76124   0.00000  Uiso   1.00
C809   C     0.53452   0.18399   0.54751   0.00000  Uiso   1.00
C810   C     0.46544   0.18500   0.95239   0.00000  Uiso   1.00
C811   C     0.53442   0.15102   0.95356   0.00000  Uiso   1.00
C812   C     0.46455   0.15246   0.54667   0.00000  Uiso   1.00
H813   H     0.56137   0.19674   0.52956   0.00000  Uiso   1.00
H814   H     0.43892   0.19865   0.97022   0.00000  Uiso   1.00
H815   H     0.56082   0.13807   0.97239   0.00000  Uiso   1.00
H816   H     0.43771   0.14045   0.52799   0.00000  Uiso   1.00
C817   C     0.53529   0.18282   0.59382   0.00000  Uiso   1.00
C818   C     0.46481   0.18385   0.90608   0.00000  Uiso   1.00
C819   C     0.53531   0.15051   0.90725   0.00000  Uiso   1.00
C820   C     0.46384   0.15197   0.59300   0.00000  Uiso   1.00
C821   C     0.49963   0.16689   0.61640   0.00000  Uiso   1.00
C822   C     0.50010   0.16676   0.88365   0.00000  Uiso   1.00
H823   H     0.37090   0.09616   0.72964   0.00000  Uiso   1.00
H824   H     0.62912   0.23727   0.77002   0.00000  Uiso   1.00
H825   H     0.62894   0.09620   0.72944   0.00000  Uiso   1.00
H826   H     0.37108   0.23717   0.77045   0.00000  Uiso   1.00
C827   C     0.49956   0.16852   0.52417   0.00000  Uiso   1.00
C828   C     0.49986   0.16838   0.97589   0.00000  Uiso   1.00
C829   C     0.62418   0.16673   0.74971   0.00000  Uiso   1.00
C830   C     0.37584   0.16665   0.75011   0.00000  Uiso   1.00
C831   C     0.57483   0.19760   0.61773   0.00000  Uiso   1.00
C832   C     0.57719   0.24910   0.62124   0.00000  Uiso   1.00
H833   H     0.55007   0.26245   0.64001   0.00000  Uiso   1.00
H834   H     0.60618   0.25888   0.63923   0.00000  Uiso   1.00
H835   H     0.57764   0.26461   0.58742   0.00000  Uiso   1.00
H836   H     0.57719   0.18271   0.65170   0.00000  Uiso   1.00
H837   H     0.60249   0.18504   0.59923   0.00000  Uiso   1.00
C838   C     0.42573   0.19983   0.88200   0.00000  Uiso   1.00
C839   C     0.42456   0.25139   0.87862   0.00000  Uiso   1.00
H840   H     0.45206   0.26409   0.86002   0.00000  Uiso   1.00
H841   H     0.39588   0.26201   0.86051   0.00000  Uiso   1.00
H842   H     0.42432   0.26677   0.91247   0.00000  Uiso   1.00
H843   H     0.42315   0.18514   0.84799   0.00000  Uiso   1.00
H844   H     0.39772   0.18795   0.90034   0.00000  Uiso   1.00
C845   C     0.57462   0.13419   0.88431   0.00000  Uiso   1.00
C846   C     0.60165   0.17406   0.86974   0.00000  Uiso   1.00
H847   H     0.63025   0.16121   0.85329   0.00000  Uiso   1.00
H848   H     0.58456   0.19603   0.84577   0.00000  Uiso   1.00
H849   H     0.61098   0.19456   0.89925   0.00000  Uiso   1.00
H850   H     0.59338   0.11267   0.90736   0.00000  Uiso   1.00
H851   H     0.56709   0.11250   0.85514   0.00000  Uiso   1.00
C852   C     0.42416   0.13711   0.61620   0.00000  Uiso   1.00
C853   C     0.39825   0.17798   0.63036   0.00000  Uiso   1.00
H854   H     0.36906   0.16626   0.64643   0.00000  Uiso   1.00
H855   H     0.41576   0.19928   0.65454   0.00000  Uiso   1.00
H856   H     0.38991   0.19881   0.60071   0.00000  Uiso   1.00
H857   H     0.40481   0.11595   0.59341   0.00000  Uiso   1.00
H858   H     0.43117   0.11552   0.64564   0.00000  Uiso   1.00
O859   O     0.77226   0.20487   0.75000   0.00000  Uiso   1.00
O860   O     0.89441   0.12846   0.75001   0.00000  Uiso   1.00
O861   O     0.89441   0.20487   0.75001   0.00000  Uiso   1.00
O862   O     0.77226   0.12846   0.75000   0.00000  Uiso   1.00
N863   N     0.83333   0.28573   0.75000   0.00000  Uiso   1.00
N864   N     0.83333   0.04760   0.75000   0.00000  Uiso   1.00
C865   C     0.75330   0.16666   0.75007   0.00000  Uiso   1.00
C866   C     0.91337   0.16668   0.74988   0.00000  Uiso   1.00
O867   O     0.83333   0.20489   0.68453   0.00000  Uiso   1.00
O868   O     0.83334   0.12845   0.81547   0.00000  Uiso   1.00
O869   O     0.83334   0.20489   0.81547   0.00000  Uiso   1.00
O870   O     0.83333   0.12845   0.68453   0.00000  Uiso   1.00
C871   C     0.83282   0.16670   0.66414   0.00000  Uiso   1.00
C872   C     0.83379   0.16666   0.83588   0.00000  Uiso   1.00
Zn873  Zn    0.83333   0.21771   0.75000   0.00000  Uiso   1.00
Zn874  Zn    0.83333   0.11563   0.75000   0.00000  Uiso   1.00
H875   H     0.88081   0.04212   0.79925   0.00000  Uiso   1.00
H876   H     0.78588   0.29119   0.70073   0.00000  Uiso   1.00
H877   H     0.78585   0.04220   0.70075   0.00000  Uiso   1.00
H878   H     0.88079   0.29111   0.79927   0.00000  Uiso   1.00
C879   C     0.85972   0.02396   0.77738   0.00000  Uiso   1.00
C880   C     0.80696   0.30936   0.72262   0.00000  Uiso   1.00
C881   C     0.80695   0.02400   0.72263   0.00000  Uiso   1.00
C882   C     0.85971   0.30932   0.77738   0.00000  Uiso   1.00
C883   C     0.68796   0.12694   0.73876   0.00000  Uiso   1.00
C884   C     0.97872   0.20647   0.76095   0.00000  Uiso   1.00
C885   C     0.97862   0.12699   0.73857   0.00000  Uiso   1.00
C886   C     0.68806   0.20641   0.76124   0.00000  Uiso   1.00
C887   C     0.86786   0.18399   0.54751   0.00000  Uiso   1.00
C888   C     0.79877   0.18500   0.95239   0.00000  Uiso   1.00
C889   C     0.86775   0.15102   0.95356   0.00000  Uiso   1.00
C890   C     0.79788   0.15246   0.54667   0.00000  Uiso   1.00
H891   H     0.89470   0.19674   0.52956   0.00000  Uiso   1.00
H892   H     0.77225   0.19865   0.97022   0.00000  Uiso   1.00
H893   H     0.89415   0.13807   0.97239   0.00000  Uiso   1.00
H894   H     0.77104   0.14045   0.52799   0.00000  Uiso   1.00
C895   C     0.86863   0.18282   0.59382   0.00000  Uiso   1.00
C896   C     0.79814   0.18385   0.90608   0.00000  Uiso   1.00
C897   C     0.86864   0.15051   0.90725   0.00000  Uiso   1.00
C898   C     0.79718   0.15197   0.59300   0.00000  Uiso   1.00
C899   C     0.83296   0.16689   0.61640   0.00000  Uiso   1.00
C900   C     0.83344   0.16676   0.88365   0.00000  Uiso   1.00
H901   H     0.70424   0.09616   0.72964   0.00000  Uiso   1.00
H902   H     0.96245   0.23727   0.77002   0.00000  Uiso   1.00
H903   H     0.96227   0.09620   0.72944   0.00000  Uiso   1.00
H904   H     0.70442   0.23717   0.77045   0.00000  Uiso   1.00
C905   C     0.83290   0.16852   0.52417   0.00000  Uiso   1.00
C906   C     0.83320   0.16838   0.97589   0.00000  Uiso   1.00
C907   C     0.95751   0.16673   0.74971   0.00000  Uiso   1.00
C908   C     0.70917   0.16665   0.75011   0.00000  Uiso   1.00
C909   C     0.90816   0.19760   0.61773   0.00000  Uiso   1.00
C910   C     0.91053   0.24910   0.62124   0.00000  Uiso   1.00
H911   H     0.88341   0.26245   0.64001   0.00000  Uiso   1.00
H912   H     0.93952   0.25888   0.63923   0.00000  Uiso   1.00
H913   H     0.91098   0.26461   0.58742   0.00000  Uiso   1.00
H914   H     0.91052   0.18271   0.65170   0.00000  Uiso   1.00
H915   H     0.93582   0.18504   0.59923   0.00000  Uiso   1.00
C916   C     0.75907   0.19983   0.88200   0.00000  Uiso   1.00
C917   C     0.75790   0.25139   0.87862   0.00000  Uiso   1.00
H918   H     0.78539   0.26409   0.86002   0.00000  Uiso   1.00
H919   H     0.72922   0.26201   0.86051   0.00000  Uiso   1.00
H920   H     0.75765   0.26677   0.91247   0.00000  Uiso   1.00
H921   H     0.75649   0.18514   0.84799   0.00000  Uiso   1.00
H922   H     0.73105   0.18795   0.90034   0.00000  Uiso   1.00
C923   C     0.90796   0.13419   0.88431   0.00000  Uiso   1.00
C924   C     0.93498   0.17406   0.86974   0.00000  Uiso   1.00
H925   H     0.96358   0.16121   0.85329   0.00000  Uiso   1.00
H926   H     0.91790   0.19603   0.84577   0.00000  Uiso   1.00
H927   H     0.94432   0.19456   0.89925   0.00000  Uiso   1.00
H928   H     0.92672   0.11267   0.90736   0.00000  Uiso   1.00
H929   H     0.90042   0.11250   0.85514   0.00000  Uiso   1.00
C930   C     0.75749   0.13711   0.61620   0.00000  Uiso   1.00
C931   C     0.73159   0.17798   0.63036   0.00000  Uiso   1.00
H932   H     0.70239   0.16626   0.64643   0.00000  Uiso   1.00
H933   H     0.74910   0.19928   0.65454   0.00000  Uiso   1.00
H934   H     0.72324   0.19881   0.60071   0.00000  Uiso   1.00
H935   H     0.73815   0.11595   0.59341   0.00000  Uiso   1.00
H936   H     0.76451   0.11552   0.64564   0.00000  Uiso   1.00
O937   O     0.10559   0.53821   0.75000   0.00000  Uiso   1.00
O938   O     0.22774   0.46179   0.75001   0.00000  Uiso   1.00
O939   O     0.22774   0.53821   0.75001   0.00000  Uiso   1.00
O940   O     0.10559   0.46179   0.75000   0.00000  Uiso   1.00
N941   N     0.16667   0.61907   0.75000   0.00000  Uiso   1.00
N942   N     0.16667   0.38093   0.75000   0.00000  Uiso   1.00
C943   C     0.08664   0.49999   0.75007   0.00000  Uiso   1.00
C944   C     0.24670   0.50001   0.74988   0.00000  Uiso   1.00
O945   O     0.16666   0.53822   0.68453   0.00000  Uiso   1.00
O946   O     0.16667   0.46178   0.81547   0.00000  Uiso   1.00
O947   O     0.16667   0.53822   0.81547   0.00000  Uiso   1.00
O948   O     0.16666   0.46178   0.68453   0.00000  Uiso   1.00
C949   C     0.16616   0.50003   0.66414   0.00000  Uiso   1.00
C950   C     0.16712   0.49999   0.83588   0.00000  Uiso   1.00
Zn951  Zn    0.16667   0.55104   0.75000   0.00000  Uiso   1.00
Zn952  Zn    0.16667   0.44896   0.75000   0.00000  Uiso   1.00
H953   H     0.21414   0.37546   0.79925   0.00000  Uiso   1.00
H954   H     0.11921   0.62452   0.70073   0.00000  Uiso   1.00
H955   H     0.11919   0.37554   0.70075   0.00000  Uiso   1.00
H956   H     0.21412   0.62444   0.79927   0.00000  Uiso   1.00
C957   C     0.19305   0.35729   0.77738   0.00000  Uiso   1.00
C958   C     0.14029   0.64270   0.72262   0.00000  Uiso   1.00
C959   C     0.14028   0.35734   0.72263   0.00000  Uiso   1.00
C960   C     0.19304   0.64265   0.77738   0.00000  Uiso   1.00
C961   C     0.02130   0.46028   0.73876   0.00000  Uiso   1.00
C962   C     0.31206   0.53981   0.76095   0.00000  Uiso   1.00
C963   C     0.31195   0.46032   0.73857   0.00000  Uiso   1.00
C964   C     0.02140   0.53974   0.76124   0.00000  Uiso   1.00
C965   C     0.20119   0.51733   0.54751   0.00000  Uiso   1.00
C966   C     0.13211   0.51833   0.95239   0.00000  Uiso   1.00
C967   C     0.20109   0.48436   0.95356   0.00000  Uiso   1.00
C968   C     0.13122   0.48579   0.54667   0.00000  Uiso   1.00
H969   H     0.22804   0.53008   0.52956   0.00000  Uiso   1.00
H970   H     0.10558   0.53199   0.97022   0.00000  Uiso   1.00
H971   H     0.22748   0.47141   0.97239   0.00000  Uiso   1.00
H972   H     0.10437   0.47378   0.52799   0.00000  Uiso   1.00
C973   C     0.20196   0.51616   0.59382   0.00000  Uiso   1.00
C974   C     0.13147   0.51719   0.90608   0.00000  Uiso   1.00
C975   C     0.20197   0.48384   0.90725   0.00000  Uiso   1.00
C976   C     0.13051   0.48530   0.59300   0.00000  Uiso   1.00
C977   C     0.16630   0.50023   0.61640   0.00000  Uiso   1.00
C978   C     0.16677   0.50009   0.88365   0.00000  Uiso   1.00
H979   H     0.03757   0.42950   0.72964   0.00000  Uiso   1.00
H980   H     0.29579   0.57061   0.77002   0.00000  Uiso   1.00
H981   H     0.29560   0.42953   0.72944   0.00000  Uiso   1.00
H982   H     0.03775   0.57050   0.77045   0.00000  Uiso   1.00
C983   C     0.16623   0.50186   0.52417   0.00000  Uiso   1.00
C984   C     0.16653   0.50172   0.97589   0.00000  Uiso   1.00
C985   C     0.29084   0.50007   0.74971   0.00000  Uiso   1.00
C986   C     0.04250   0.49998   0.75011   0.00000  Uiso   1.00
C987   C     0.24150   0.53094   0.61773   0.00000  Uiso   1.00
C988   C     0.24386   0.58243   0.62124   0.00000  Uiso   1.00
H989   H     0.21674   0.59578   0.64001   0.00000  Uiso   1.00
H990   H     0.27285   0.59221   0.63923   0.00000  Uiso   1.00
H991   H     0.24431   0.59795   0.58742   0.00000  Uiso   1.00
H992   H     0.24386   0.51604   0.65170   0.00000  Uiso   1.00
H993   H     0.26915   0.51838   0.59923   0.00000  Uiso   1.00
C994   C     0.09240   0.53316   0.88200   0.00000  Uiso   1.00
C995   C     0.09123   0.58472   0.87862   0.00000  Uiso   1.00
H996   H     0.11873   0.59742   0.86002   0.00000  Uiso   1.00
H997   H     0.06255   0.59535   0.86051   0.00000  Uiso   1.00
H998   H     0.09099   0.60010   0.91247   0.00000  Uiso   1.00
H999   H     0.08982   0.51848   0.84799   0.00000  Uiso   1.00
H1000  H     0.06438   0.52128   0.90034   0.00000  Uiso   1.00
C1001  C     0.24129   0.46752   0.88431   0.00000  Uiso   1.00
C1002  C     0.26831   0.50739   0.86974   0.00000  Uiso   1.00
H1003  H     0.29692   0.49454   0.85329   0.00000  Uiso   1.00
H1004  H     0.25123   0.52936   0.84577   0.00000  Uiso   1.00
H1005  H     0.27765   0.52790   0.89925   0.00000  Uiso   1.00
H1006  H     0.26005   0.44600   0.90736   0.00000  Uiso   1.00
H1007  H     0.23376   0.44583   0.85514   0.00000  Uiso   1.00
C1008  C     0.09082   0.47044   0.61620   0.00000  Uiso   1.00
C1009  C     0.06492   0.51132   0.63036   0.00000  Uiso   1.00
H1010  H     0.03572   0.49959   0.64643   0.00000  Uiso   1.00
H1011  H     0.08243   0.53262   0.65454   0.00000  Uiso   1.00
H1012  H     0.05657   0.53215   0.60071   0.00000  Uiso   1.00
H1013  H     0.07148   0.44929   0.59341   0.00000  Uiso   1.00
H1014  H     0.09784   0.44885   0.64564   0.00000  Uiso   1.00
O1015  O     0.43892   0.53821   0.75000   0.00000  Uiso   1.00
O1016  O     0.56108   0.46179   0.75001   0.00000  Uiso   1.00
O1017  O     0.56108   0.53821   0.75001   0.00000  Uiso   1.00
O1018  O     0.43892   0.46179   0.75000   0.00000  Uiso   1.00
N1019  N     0.50000   0.61907   0.75000   0.00000  Uiso   1.00
N1020  N     0.50000   0.38093   0.75000   0.00000  Uiso   1.00
C1021  C     0.41997   0.49999   0.75007   0.00000  Uiso   1.00
C1022  C     0.58003   0.50001   0.74988   0.00000  Uiso   1.00
O1023  O     0.50000   0.53822   0.68453   0.00000  Uiso   1.00
O1024  O     0.50000   0.46178   0.81547   0.00000  Uiso   1.00
O1025  O     0.50000   0.53822   0.81547   0.00000  Uiso   1.00
O1026  O     0.50000   0.46178   0.68453   0.00000  Uiso   1.00
C1027  C     0.49949   0.50003   0.66414   0.00000  Uiso   1.00
C1028  C     0.50046   0.49999   0.83588   0.00000  Uiso   1.00
Zn1029 Zn    0.50000   0.55104   0.75000   0.00000  Uiso   1.00
Zn1030 Zn    0.50000   0.44896   0.75000   0.00000  Uiso   1.00
H1031  H     0.54748   0.37546   0.79925   0.00000  Uiso   1.00
H1032  H     0.45254   0.62452   0.70073   0.00000  Uiso   1.00
H1033  H     0.45252   0.37554   0.70075   0.00000  Uiso   1.00
H1034  H     0.54746   0.62444   0.79927   0.00000  Uiso   1.00
C1035  C     0.52638   0.35729   0.77738   0.00000  Uiso   1.00
C1036  C     0.47362   0.64270   0.72262   0.00000  Uiso   1.00
C1037  C     0.47362   0.35734   0.72263   0.00000  Uiso   1.00
C1038  C     0.52638   0.64265   0.77738   0.00000  Uiso   1.00
C1039  C     0.35463   0.46028   0.73876   0.00000  Uiso   1.00
C1040  C     0.64539   0.53981   0.76095   0.00000  Uiso   1.00
C1041  C     0.64529   0.46032   0.73857   0.00000  Uiso   1.00
C1042  C     0.35473   0.53974   0.76124   0.00000  Uiso   1.00
C1043  C     0.53452   0.51733   0.54751   0.00000  Uiso   1.00
C1044  C     0.46544   0.51833   0.95239   0.00000  Uiso   1.00
C1045  C     0.53442   0.48436   0.95356   0.00000  Uiso   1.00
C1046  C     0.46455   0.48579   0.54667   0.00000  Uiso   1.00
H1047  H     0.56137   0.53008   0.52956   0.00000  Uiso   1.00
H1048  H     0.43892   0.53199   0.97022   0.00000  Uiso   1.00
H1049  H     0.56082   0.47141   0.97239   0.00000  Uiso   1.00
H1050  H     0.43771   0.47378   0.52799   0.00000  Uiso   1.00
C1051  C     0.53529   0.51616   0.59382   0.00000  Uiso   1.00
C1052  C     0.46481   0.51719   0.90608   0.00000  Uiso   1.00
C1053  C     0.53531   0.48384   0.90725   0.00000  Uiso   1.00
C1054  C     0.46384   0.48530   0.59300   0.00000  Uiso   1.00
C1055  C     0.49963   0.50023   0.61640   0.00000  Uiso   1.00
C1056  C     0.50010   0.50009   0.88365   0.00000  Uiso   1.00
H1057  H     0.37090   0.42950   0.72964   0.00000  Uiso   1.00
H1058  H     0.62912   0.57061   0.77002   0.00000  Uiso   1.00
H1059  H     0.62894   0.42953   0.72944   0.00000  Uiso   1.00
H1060  H     0.37108   0.57050   0.77045   0.00000  Uiso   1.00
C1061  C     0.49956   0.50186   0.52417   0.00000  Uiso   1.00
C1062  C     0.49986   0.50172   0.97589   0.00000  Uiso   1.00
C1063  C     0.62418   0.50007   0.74971   0.00000  Uiso   1.00
C1064  C     0.37584   0.49998   0.75011   0.00000  Uiso   1.00
C1065  C     0.57483   0.53094   0.61773   0.00000  Uiso   1.00
C1066  C     0.57719   0.58243   0.62124   0.00000  Uiso   1.00
H1067  H     0.55007   0.59578   0.64001   0.00000  Uiso   1.00
H1068  H     0.60618   0.59221   0.63923   0.00000  Uiso   1.00
H1069  H     0.57764   0.59795   0.58742   0.00000  Uiso   1.00
H1070  H     0.57719   0.51604   0.65170   0.00000  Uiso   1.00
H1071  H     0.60249   0.51838   0.59923   0.00000  Uiso   1.00
C1072  C     0.42573   0.53316   0.88200   0.00000  Uiso   1.00
C1073  C     0.42456   0.58472   0.87862   0.00000  Uiso   1.00
H1074  H     0.45206   0.59742   0.86002   0.00000  Uiso   1.00
H1075  H     0.39588   0.59535   0.86051   0.00000  Uiso   1.00
H1076  H     0.42432   0.60010   0.91247   0.00000  Uiso   1.00
H1077  H     0.42315   0.51848   0.84799   0.00000  Uiso   1.00
H1078  H     0.39772   0.52128   0.90034   0.00000  Uiso   1.00
C1079  C     0.57462   0.46752   0.88431   0.00000  Uiso   1.00
C1080  C     0.60165   0.50739   0.86974   0.00000  Uiso   1.00
H1081  H     0.63025   0.49454   0.85329   0.00000  Uiso   1.00
H1082  H     0.58456   0.52936   0.84577   0.00000  Uiso   1.00
H1083  H     0.61098   0.52790   0.89925   0.00000  Uiso   1.00
H1084  H     0.59338   0.44600   0.90736   0.00000  Uiso   1.00
H1085  H     0.56709   0.44583   0.85514   0.00000  Uiso   1.00
C1086  C     0.42416   0.47044   0.61620   0.00000  Uiso   1.00
C1087  C     0.39825   0.51132   0.63036   0.00000  Uiso   1.00
H1088  H     0.36906   0.49959   0.64643   0.00000  Uiso   1.00
H1089  H     0.41576   0.53262   0.65454   0.00000  Uiso   1.00
H1090  H     0.38991   0.53215   0.60071   0.00000  Uiso   1.00
H1091  H     0.40481   0.44929   0.59341   0.00000  Uiso   1.00
H1092  H     0.43117   0.44885   0.64564   0.00000  Uiso   1.00
O1093  O     0.77226   0.53821   0.75000   0.00000  Uiso   1.00
O1094  O     0.89441   0.46179   0.75001   0.00000  Uiso   1.00
O1095  O     0.89441   0.53821   0.75001   0.00000  Uiso   1.00
O1096  O     0.77226   0.46179   0.75000   0.00000  Uiso   1.00
N1097  N     0.83333   0.61907   0.75000   0.00000  Uiso   1.00
N1098  N     0.83333   0.38093   0.75000   0.00000  Uiso   1.00
C1099  C     0.75330   0.49999   0.75007   0.00000  Uiso   1.00
C1100  C     0.91337   0.50001   0.74988   0.00000  Uiso   1.00
O1101  O     0.83333   0.53822   0.68453   0.00000  Uiso   1.00
O1102  O     0.83334   0.46178   0.81547   0.00000  Uiso   1.00
O1103  O     0.83334   0.53822   0.81547   0.00000  Uiso   1.00
O1104  O     0.83333   0.46178   0.68453   0.00000  Uiso   1.00
C1105  C     0.83282   0.50003   0.66414   0.00000  Uiso   1.00
C1106  C     0.83379   0.49999   0.83588   0.00000  Uiso   1.00
Zn1107 Zn    0.83333   0.55104   0.75000   0.00000  Uiso   1.00
Zn1108 Zn    0.83333   0.44896   0.75000   0.00000  Uiso   1.00
H1109  H     0.88081   0.37546   0.79925   0.00000  Uiso   1.00
H1110  H     0.78588   0.62452   0.70073   0.00000  Uiso   1.00
H1111  H     0.78585   0.37554   0.70075   0.00000  Uiso   1.00
H1112  H     0.88079   0.62444   0.79927   0.00000  Uiso   1.00
C1113  C     0.85972   0.35729   0.77738   0.00000  Uiso   1.00
C1114  C     0.80696   0.64270   0.72262   0.00000  Uiso   1.00
C1115  C     0.80695   0.35734   0.72263   0.00000  Uiso   1.00
C1116  C     0.85971   0.64265   0.77738   0.00000  Uiso   1.00
C1117  C     0.68796   0.46028   0.73876   0.00000  Uiso   1.00
C1118  C     0.97872   0.53981   0.76095   0.00000  Uiso   1.00
C1119  C     0.97862   0.46032   0.73857   0.00000  Uiso   1.00
C1120  C     0.68806   0.53974   0.76124   0.00000  Uiso   1.00
C1121  C     0.86786   0.51733   0.54751   0.00000  Uiso   1.00
C1122  C     0.79877   0.51833   0.95239   0.00000  Uiso   1.00
C1123  C     0.86775   0.48436   0.95356   0.00000  Uiso   1.00
C1124  C     0.79788   0.48579   0.54667   0.00000  Uiso   1.00
H1125  H     0.89470   0.53008   0.52956   0.00000  Uiso   1.00
H1126  H     0.77225   0.53199   0.97022   0.00000  Uiso   1.00
H1127  H     0.89415   0.47141   0.97239   0.00000  Uiso   1.00
H1128  H     0.77104   0.47378   0.52799   0.00000  Uiso   1.00
C1129  C     0.86863   0.51616   0.59382   0.00000  Uiso   1.00
C1130  C     0.79814   0.51719   0.90608   0.00000  Uiso   1.00
C1131  C     0.86864   0.48384   0.90725   0.00000  Uiso   1.00
C1132  C     0.79718   0.48530   0.59300   0.00000  Uiso   1.00
C1133  C     0.83296   0.50023   0.61640   0.00000  Uiso   1.00
C1134  C     0.83344   0.50009   0.88365   0.00000  Uiso   1.00
H1135  H     0.70424   0.42950   0.72964   0.00000  Uiso   1.00
H1136  H     0.96245   0.57061   0.77002   0.00000  Uiso   1.00
H1137  H     0.96227   0.42953   0.72944   0.00000  Uiso   1.00
H1138  H     0.70442   0.57050   0.77045   0.00000  Uiso   1.00
C1139  C     0.83290   0.50186   0.52417   0.00000  Uiso   1.00
C1140  C     0.83320   0.50172   0.97589   0.00000  Uiso   1.00
C1141  C     0.95751   0.50007   0.74971   0.00000  Uiso   1.00
C1142  C     0.70917   0.49998   0.75011   0.00000  Uiso   1.00
C1143  C     0.90816   0.53094   0.61773   0.00000  Uiso   1.00
C1144  C     0.91053   0.58243   0.62124   0.00000  Uiso   1.00
H1145  H     0.88341   0.59578   0.64001   0.00000  Uiso   1.00
H1146  H     0.93952   0.59221   0.63923   0.00000  Uiso   1.00
H1147  H     0.91098   0.59795   0.58742   0.00000  Uiso   1.00
H1148  H     0.91052   0.51604   0.65170   0.00000  Uiso   1.00
H1149  H     0.93582   0.51838   0.59923   0.00000  Uiso   1.00
C1150  C     0.75907   0.53316   0.88200   0.00000  Uiso   1.00
C1151  C     0.75790   0.58472   0.87862   0.00000  Uiso   1.00
H1152  H     0.78539   0.59742   0.86002   0.00000  Uiso   1.00
H1153  H     0.72922   0.59535   0.86051   0.00000  Uiso   1.00
H1154  H     0.75765   0.60010   0.91247   0.00000  Uiso   1.00
H1155  H     0.75649   0.51848   0.84799   0.00000  Uiso   1.00
H1156  H     0.73105   0.52128   0.90034   0.00000  Uiso   1.00
C1157  C     0.90796   0.46752   0.88431   0.00000  Uiso   1.00
C1158  C     0.93498   0.50739   0.86974   0.00000  Uiso   1.00
H1159  H     0.96358   0.49454   0.85329   0.00000  Uiso   1.00
H1160  H     0.91790   0.52936   0.84577   0.00000  Uiso   1.00
H1161  H     0.94432   0.52790   0.89925   0.00000  Uiso   1.00
H1162  H     0.92672   0.44600   0.90736   0.00000  Uiso   1.00
H1163  H     0.90042   0.44583   0.85514   0.00000  Uiso   1.00
C1164  C     0.75749   0.47044   0.61620   0.00000  Uiso   1.00
C1165  C     0.73159   0.51132   0.63036   0.00000  Uiso   1.00
H1166  H     0.70239   0.49959   0.64643   0.00000  Uiso   1.00
H1167  H     0.74910   0.53262   0.65454   0.00000  Uiso   1.00
H1168  H     0.72324   0.53215   0.60071   0.00000  Uiso   1.00
H1169  H     0.73815   0.44929   0.59341   0.00000  Uiso   1.00
H1170  H     0.76451   0.44885   0.64564   0.00000  Uiso   1.00
O1171  O     0.10559   0.87154   0.75000   0.00000  Uiso   1.00
O1172  O     0.22774   0.79513   0.75001   0.00000  Uiso   1.00
O1173  O     0.22774   0.87154   0.75001   0.00000  Uiso   1.00
O1174  O     0.10559   0.79513   0.75000   0.00000  Uiso   1.00
N1175  N     0.16667   0.95240   0.75000   0.00000  Uiso   1.00
N1176  N     0.16667   0.71427   0.75000   0.00000  Uiso   1.00
C1177  C     0.08664   0.83333   0.75007   0.00000  Uiso   1.00
C1178  C     0.24670   0.83334   0.74988   0.00000  Uiso   1.00
O1179  O     0.16666   0.87155   0.68453   0.00000  Uiso   1.00
O1180  O     0.16667   0.79511   0.81547   0.00000  Uiso   1.00
O1181  O     0.16667   0.87155   0.81547   0.00000  Uiso   1.00
O1182  O     0.16666   0.79511   0.68453   0.00000  Uiso   1.00
C1183  C     0.16616   0.83336   0.66414   0.00000  Uiso   1.00
C1184  C     0.16712   0.83332   0.83588   0.00000  Uiso   1.00
Zn1185 Zn    0.16667   0.88437   0.75000   0.00000  Uiso   1.00
Zn1186 Zn    0.16667   0.78229   0.75000   0.00000  Uiso   1.00
H1187  H     0.21414   0.70879   0.79925   0.00000  Uiso   1.00
H1188  H     0.11921   0.95785   0.70073   0.00000  Uiso   1.00
H1189  H     0.11919   0.70887   0.70075   0.00000  Uiso   1.00
H1190  H     0.21412   0.95778   0.79927   0.00000  Uiso   1.00
C1191  C     0.19305   0.69063   0.77738   0.00000  Uiso   1.00
C1192  C     0.14029   0.97603   0.72262   0.00000  Uiso   1.00
C1193  C     0.14028   0.69067   0.72263   0.00000  Uiso   1.00
C1194  C     0.19304   0.97599   0.77738   0.00000  Uiso   1.00
C1195  C     0.02130   0.79361   0.73876   0.00000  Uiso   1.00
C1196  C     0.31206   0.87314   0.76095   0.00000  Uiso   1.00
C1197  C     0.31195   0.79365   0.73857   0.00000  Uiso   1.00
C1198  C     0.02140   0.87307   0.76124   0.00000  Uiso   1.00
C1199  C     0.20119   0.85066   0.54751   0.00000  Uiso   1.00
C1200  C     0.13211   0.85166   0.95239   0.00000  Uiso   1.00
C1201  C     0.20109   0.81769   0.95356   0.00000  Uiso   1.00
C1202  C     0.13122   0.81913   0.54667   0.00000  Uiso   1.00
H1203  H     0.22804   0.86341   0.52956   0.00000  Uiso   1.00
H1204  H     0.10558   0.86532   0.97022   0.00000  Uiso   1.00
H1205  H     0.22748   0.80474   0.97239   0.00000  Uiso   1.00
H1206  H     0.10437   0.80711   0.52799   0.00000  Uiso   1.00
C1207  C     0.20196   0.84949   0.59382   0.00000  Uiso   1.00
C1208  C     0.13147   0.85052   0.90608   0.00000  Uiso   1.00
C1209  C     0.20197   0.81717   0.90725   0.00000  Uiso   1.00
C1210  C     0.13051   0.81863   0.59300   0.00000  Uiso   1.00
C1211  C     0.16630   0.83356   0.61640   0.00000  Uiso   1.00
C1212  C     0.16677   0.83342   0.88365   0.00000  Uiso   1.00
H1213  H     0.03757   0.76283   0.72964   0.00000  Uiso   1.00
H1214  H     0.29579   0.90394   0.77002   0.00000  Uiso   1.00
H1215  H     0.29560   0.76287   0.72944   0.00000  Uiso   1.00
H1216  H     0.03775   0.90384   0.77045   0.00000  Uiso   1.00
C1217  C     0.16623   0.83519   0.52417   0.00000  Uiso   1.00
C1218  C     0.16653   0.83505   0.97589   0.00000  Uiso   1.00
C1219  C     0.29084   0.83340   0.74971   0.00000  Uiso   1.00
C1220  C     0.04250   0.83332   0.75011   0.00000  Uiso   1.00
C1221  C     0.24150   0.86427   0.61773   0.00000  Uiso   1.00
C1222  C     0.24386   0.91577   0.62124   0.00000  Uiso   1.00
H1223  H     0.21674   0.92912   0.64001   0.00000  Uiso   1.00
H1224  H     0.27285   0.92555   0.63923   0.00000  Uiso   1.00
H1225  H     0.24431   0.93128   0.58742   0.00000  Uiso   1.00
H1226  H     0.24386   0.84937   0.65170   0.00000  Uiso   1.00
H1227  H     0.26915   0.85171   0.59923   0.00000  Uiso   1.00
C1228  C     0.09240   0.86649   0.88200   0.00000  Uiso   1.00
C1229  C     0.09123   0.91806   0.87862   0.00000  Uiso   1.00
H1230  H     0.11873   0.93076   0.86002   0.00000  Uiso   1.00
H1231  H     0.06255   0.92868   0.86051   0.00000  Uiso   1.00
H1232  H     0.09099   0.93344   0.91247   0.00000  Uiso   1.00
H1233  H     0.08982   0.85181   0.84799   0.00000  Uiso   1.00
H1234  H     0.06438   0.85461   0.90034   0.00000  Uiso   1.00
C1235  C     0.24129   0.80086   0.88431   0.00000  Uiso   1.00
C1236  C     0.26831   0.84073   0.86974   0.00000  Uiso   1.00
H1237  H     0.29692   0.82788   0.85329   0.00000  Uiso   1.00
H1238  H     0.25123   0.86270   0.84577   0.00000  Uiso   1.00
H1239  H     0.27765   0.86123   0.89925   0.00000  Uiso   1.00
H1240  H     0.26005   0.77934   0.90736   0.00000  Uiso   1.00
H1241  H     0.23376   0.77916   0.85514   0.00000  Uiso   1.00
C1242  C     0.09082   0.80378   0.61620   0.00000  Uiso   1.00
C1243  C     0.06492   0.84465   0.63036   0.00000  Uiso   1.00
H1244  H     0.03572   0.83292   0.64643   0.00000  Uiso   1.00
H1245  H     0.08243   0.86595   0.65454   0.00000  Uiso   1.00
H1246  H     0.05657   0.86548   0.60071   0.00000  Uiso   1.00
H1247  H     0.07148   0.78262   0.59341   0.00000  Uiso   1.00
H1248  H     0.09784   0.78218   0.64564   0.00000  Uiso   1.00
O1249  O     0.43892   0.87154   0.75000   0.00000  Uiso   1.00
O1250  O     0.56108   0.79513   0.75001   0.00000  Uiso   1.00
O1251  O     0.56108   0.87154   0.75001   0.00000  Uiso   1.00
O1252  O     0.43892   0.79513   0.75000   0.00000  Uiso   1.00
N1253  N     0.50000   0.95240   0.75000   0.00000  Uiso   1.00
N1254  N     0.50000   0.71427   0.75000   0.00000  Uiso   1.00
C1255  C     0.41997   0.83333   0.75007   0.00000  Uiso   1.00
C1256  C     0.58003   0.83334   0.74988   0.00000  Uiso   1.00
O1257  O     0.50000   0.87155   0.68453   0.00000  Uiso   1.00
O1258  O     0.50000   0.79511   0.81547   0.00000  Uiso   1.00
O1259  O     0.50000   0.87155   0.81547   0.00000  Uiso   1.00
O1260  O     0.50000   0.79511   0.68453   0.00000  Uiso   1.00
C1261  C     0.49949   0.83336   0.66414   0.00000  Uiso   1.00
C1262  C     0.50046   0.83332   0.83588   0.00000  Uiso   1.00
Zn1263 Zn    0.50000   0.88437   0.75000   0.00000  Uiso   1.00
Zn1264 Zn    0.50000   0.78229   0.75000   0.00000  Uiso   1.00
H1265  H     0.54748   0.70879   0.79925   0.00000  Uiso   1.00
H1266  H     0.45254   0.95785   0.70073   0.00000  Uiso   1.00
H1267  H     0.45252   0.70887   0.70075   0.00000  Uiso   1.00
H1268  H     0.54746   0.95778   0.79927   0.00000  Uiso   1.00
C1269  C     0.52638   0.69063   0.77738   0.00000  Uiso   1.00
C1270  C     0.47362   0.97603   0.72262   0.00000  Uiso   1.00
C1271  C     0.47362   0.69067   0.72263   0.00000  Uiso   1.00
C1272  C     0.52638   0.97599   0.77738   0.00000  Uiso   1.00
C1273  C     0.35463   0.79361   0.73876   0.00000  Uiso   1.00
C1274  C     0.64539   0.87314   0.76095   0.00000  Uiso   1.00
C1275  C     0.64529   0.79365   0.73857   0.00000  Uiso   1.00
C1276  C     0.35473   0.87307   0.76124   0.00000  Uiso   1.00
C1277  C     0.53452   0.85066   0.54751   0.00000  Uiso   1.00
C1278  C     0.46544   0.85166   0.95239   0.00000  Uiso   1.00
C1279  C     0.53442   0.81769   0.95356   0.00000  Uiso   1.00
C1280  C     0.46455   0.81913   0.54667   0.00000  Uiso   1.00
H1281  H     0.56137   0.86341   0.52956   0.00000  Uiso   1.00
H1282  H     0.43892   0.86532   0.97022   0.00000  Uiso   1.00
H1283  H     0.56082   0.80474   0.97239   0.00000  Uiso   1.00
H1284  H     0.43771   0.80711   0.52799   0.00000  Uiso   1.00
C1285  C     0.53529   0.84949   0.59382   0.00000  Uiso   1.00
C1286  C     0.46481   0.85052   0.90608   0.00000  Uiso   1.00
C1287  C     0.53531   0.81717   0.90725   0.00000  Uiso   1.00
C1288  C     0.46384   0.81863   0.59300   0.00000  Uiso   1.00
C1289  C     0.49963   0.83356   0.61640   0.00000  Uiso   1.00
C1290  C     0.50010   0.83342   0.88365   0.00000  Uiso   1.00
H1291  H     0.37090   0.76283   0.72964   0.00000  Uiso   1.00
H1292  H     0.62912   0.90394   0.77002   0.00000  Uiso   1.00
H1293  H     0.62894   0.76287   0.72944   0.00000  Uiso   1.00
H1294  H     0.37108   0.90384   0.77045   0.00000  Uiso   1.00
C1295  C     0.49956   0.83519   0.52417   0.00000  Uiso   1.00
C1296  C     0.49986   0.83505   0.97589   0.00000  Uiso   1.00
C1297  C     0.62418   0.83340   0.74971   0.00000  Uiso   1.00
C1298  C     0.37584   0.83332   0.75011   0.00000  Uiso   1.00
C1299  C     0.57483   0.86427   0.61773   0.00000  Uiso   1.00
C1300  C     0.57719   0.91577   0.62124   0.00000  Uiso   1.00
H1301  H     0.55007   0.92912   0.64001   0.00000  Uiso   1.00
H1302  H     0.60618   0.92555   0.63923   0.00000  Uiso   1.00
H1303  H     0.57764   0.93128   0.58742   0.00000  Uiso   1.00
H1304  H     0.57719   0.84937   0.65170   0.00000  Uiso   1.00
H1305  H     0.60249   0.85171   0.59923   0.00000  Uiso   1.00
C1306  C     0.42573   0.86649   0.88200   0.00000  Uiso   1.00
C1307  C     0.42456   0.91806   0.87862   0.00000  Uiso   1.00
H1308  H     0.45206   0.93076   0.86002   0.00000  Uiso   1.00
H1309  H     0.39588   0.92868   0.86051   0.00000  Uiso   1.00
H1310  H     0.42432   0.93344   0.91247   0.00000  Uiso   1.00
H1311  H     0.42315   0.85181   0.84799   0.00000  Uiso   1.00
H1312  H     0.39772   0.85461   0.90034   0.00000  Uiso   1.00
C1313  C     0.57462   0.80086   0.88431   0.00000  Uiso   1.00
C1314  C     0.60165   0.84073   0.86974   0.00000  Uiso   1.00
H1315  H     0.63025   0.82788   0.85329   0.00000  Uiso   1.00
H1316  H     0.58456   0.86270   0.84577   0.00000  Uiso   1.00
H1317  H     0.61098   0.86123   0.89925   0.00000  Uiso   1.00
H1318  H     0.59338   0.77934   0.90736   0.00000  Uiso   1.00
H1319  H     0.56709   0.77916   0.85514   0.00000  Uiso   1.00
C1320  C     0.42416   0.80378   0.61620   0.00000  Uiso   1.00
C1321  C     0.39825   0.84465   0.63036   0.00000  Uiso   1.00
H1322  H     0.36906   0.83292   0.64643   0.00000  Uiso   1.00
H1323  H     0.41576   0.86595   0.65454   0.00000  Uiso   1.00
H1324  H     0.38991   0.86548   0.60071   0.00000  Uiso   1.00
H1325  H     0.40481   0.78262   0.59341   0.00000  Uiso   1.00
H1326  H     0.43117   0.78218   0.64564   0.00000  Uiso   1.00
O1327  O     0.77226   0.87154   0.75000   0.00000  Uiso   1.00
O1328  O     0.89441   0.79513   0.75001   0.00000  Uiso   1.00
O1329  O     0.89441   0.87154   0.75001   0.00000  Uiso   1.00
O1330  O     0.77226   0.79513   0.75000   0.00000  Uiso   1.00
N1331  N     0.83333   0.95240   0.75000   0.00000  Uiso   1.00
N1332  N     0.83333   0.71427   0.75000   0.00000  Uiso   1.00
C1333  C     0.75330   0.83333   0.75007   0.00000  Uiso   1.00
C1334  C     0.91337   0.83334   0.74988   0.00000  Uiso   1.00
O1335  O     0.83333   0.87155   0.68453   0.00000  Uiso   1.00
O1336  O     0.83334   0.79511   0.81547   0.00000  Uiso   1.00
O1337  O     0.83334   0.87155   0.81547   0.00000  Uiso   1.00
O1338  O     0.83333   0.79511   0.68453   0.00000  Uiso   1.00
C1339  C     0.83282   0.83336   0.66414   0.00000  Uiso   1.00
C1340  C     0.83379   0.83332   0.83588   0.00000  Uiso   1.00
Zn1341 Zn    0.83333   0.88437   0.75000   0.00000  Uiso   1.00
Zn1342 Zn    0.83333   0.78229   0.75000   0.00000  Uiso   1.00
H1343  H     0.88081   0.70879   0.79925   0.00000  Uiso   1.00
H1344  H     0.78588   0.95785   0.70073   0.00000  Uiso   1.00
H1345  H     0.78585   0.70887   0.70075   0.00000  Uiso   1.00
H1346  H     0.88079   0.95778   0.79927   0.00000  Uiso   1.00
C1347  C     0.85972   0.69063   0.77738   0.00000  Uiso   1.00
C1348  C     0.80696   0.97603   0.72262   0.00000  Uiso   1.00
C1349  C     0.80695   0.69067   0.72263   0.00000  Uiso   1.00
C1350  C     0.85971   0.97599   0.77738   0.00000  Uiso   1.00
C1351  C     0.68796   0.79361   0.73876   0.00000  Uiso   1.00
C1352  C     0.97872   0.87314   0.76095   0.00000  Uiso   1.00
C1353  C     0.97862   0.79365   0.73857   0.00000  Uiso   1.00
C1354  C     0.68806   0.87307   0.76124   0.00000  Uiso   1.00
C1355  C     0.86786   0.85066   0.54751   0.00000  Uiso   1.00
C1356  C     0.79877   0.85166   0.95239   0.00000  Uiso   1.00
C1357  C     0.86775   0.81769   0.95356   0.00000  Uiso   1.00
C1358  C     0.79788   0.81913   0.54667   0.00000  Uiso   1.00
H1359  H     0.89470   0.86341   0.52956   0.00000  Uiso   1.00
H1360  H     0.77225   0.86532   0.97022   0.00000  Uiso   1.00
H1361  H     0.89415   0.80474   0.97239   0.00000  Uiso   1.00
H1362  H     0.77104   0.80711   0.52799   0.00000  Uiso   1.00
C1363  C     0.86863   0.84949   0.59382   0.00000  Uiso   1.00
C1364  C     0.79814   0.85052   0.90608   0.00000  Uiso   1.00
C1365  C     0.86864   0.81717   0.90725   0.00000  Uiso   1.00
C1366  C     0.79718   0.81863   0.59300   0.00000  Uiso   1.00
C1367  C     0.83296   0.83356   0.61640   0.00000  Uiso   1.00
C1368  C     0.83344   0.83342   0.88365   0.00000  Uiso   1.00
H1369  H     0.70424   0.76283   0.72964   0.00000  Uiso   1.00
H1370  H     0.96245   0.90394   0.77002   0.00000  Uiso   1.00
H1371  H     0.96227   0.76287   0.72944   0.00000  Uiso   1.00
H1372  H     0.70442   0.90384   0.77045   0.00000  Uiso   1.00
C1373  C     0.83290   0.83519   0.52417   0.00000  Uiso   1.00
C1374  C     0.83320   0.83505   0.97589   0.00000  Uiso   1.00
C1375  C     0.95751   0.83340   0.74971   0.00000  Uiso   1.00
C1376  C     0.70917   0.83332   0.75011   0.00000  Uiso   1.00
C1377  C     0.90816   0.86427   0.61773   0.00000  Uiso   1.00
C1378  C     0.91053   0.91577   0.62124   0.00000  Uiso   1.00
H1379  H     0.88341   0.92912   0.64001   0.00000  Uiso   1.00
H1380  H     0.93952   0.92555   0.63923   0.00000  Uiso   1.00
H1381  H     0.91098   0.93128   0.58742   0.00000  Uiso   1.00
H1382  H     0.91052   0.84937   0.65170   0.00000  Uiso   1.00
H1383  H     0.93582   0.85171   0.59923   0.00000  Uiso   1.00
C1384  C     0.75907   0.86649   0.88200   0.00000  Uiso   1.00
C1385  C     0.75790   0.91806   0.87862   0.00000  Uiso   1.00
H1386  H     0.78539   0.93076   0.86002   0.00000  Uiso   1.00
H1387  H     0.72922   0.92868   0.86051   0.00000  Uiso   1.00
H1388  H     0.75765   0.93344   0.91247   0.00000  Uiso   1.00
H1389  H     0.75649   0.85181   0.84799   0.00000  Uiso   1.00
H1390  H     0.73105   0.85461   0.90034   0.00000  Uiso   1.00
C1391  C     0.90796   0.80086   0.88431   0.00000  Uiso   1.00
C1392  C     0.93498   0.84073   0.86974   0.00000  Uiso   1.00
H1393  H     0.96358   0.82788   0.85329   0.00000  Uiso   1.00
H1394  H     0.91790   0.86270   0.84577   0.00000  Uiso   1.00
H1395  H     0.94432   0.86123   0.89925   0.00000  Uiso   1.00
H1396  H     0.92672   0.77934   0.90736   0.00000  Uiso   1.00
H1397  H     0.90042   0.77916   0.85514   0.00000  Uiso   1.00
C1398  C     0.75749   0.80378   0.61620   0.00000  Uiso   1.00
C1399  C     0.73159   0.84465   0.63036   0.00000  Uiso   1.00
H1400  H     0.70239   0.83292   0.64643   0.00000  Uiso   1.00
H1401  H     0.74910   0.86595   0.65454   0.00000  Uiso   1.00
H1402  H     0.72324   0.86548   0.60071   0.00000  Uiso   1.00
H1403  H     0.73815   0.78262   0.59341   0.00000  Uiso   1.00
H1404  H     0.76451   0.78218   0.64564   0.00000  Uiso   1.00
loop_
_geom_bond_atom_site_label_1
_geom_bond_atom_site_label_2
_geom_bond_distance
_geom_bond_site_symmetry_2
_ccdc_geom_bond_type
O1     C7      1.281   .     A
O1     Zn15    1.996   .     S
O2     Zn16    1.996   .     S
O2     C8      1.282   .     A
O3     C8      1.281   .     A
O3     Zn15    1.996   .     S
O4     C7      1.281   .     A
O4     Zn16    1.996   .     S
N5     C22     1.366   .     A
N5     C24     1.366   .     A
N5     Zn15    2.008   .     S
N6     C21     1.366   .     A
N6     C23     1.366   .     A
N6     Zn16    2.008   .     S
C7     C50     1.416   .     S
C8     C49     1.416   .     S
O9     C13     1.282   .     A
O9     Zn15    1.996   .     S
O10    C14     1.283   .     A
O10    Zn16    1.996   .     S
O11    C14     1.283   .     A
O11    Zn15    1.995   .     S
O12    Zn16    1.995   .     S
O12    C13     1.283   .     A
C13    C41     1.429   .     S
C14    C42     1.430   .     S
H17    C21     1.082   .     S
H18    C22     1.082   .     S
H19    C23     1.082   .     S
H20    C24     1.082   .     S
C21    C492    1.416   1_545 S
C22    C257    1.416   .     S
C23    C490    1.416   1_545 S
C24    C255    1.416   .     S
C25    H43     1.084   .     S
C25    C50     1.397   .     A
C25    C183    1.369   1_455 S
C26    H44     1.084   .     S
C26    C49     1.397   .     A
C26    C106    1.369   .     S
C27    H45     1.084   .     S
C27    C49     1.396   .     A
C27    C103    1.369   .     S
C28    H46     1.084   .     S
C28    C50     1.396   .     A
C28    C182    1.369   1_455 S
C29    C47     1.395   .     A
C29    H33     1.085   .     S
C29    C37     1.386   .     A
C30    C48     1.395   .     A
C30    C38     1.387   .     A
C30    H34     1.085   .     S
C31    C48     1.395   .     A
C31    H35     1.084   .     S
C31    C39     1.387   .     A
C32    H36     1.084   .     S
C32    C47     1.395   .     A
C32    C40     1.387   .     A
C37    C51     1.518   .     S
C37    C41     1.412   .     A
C38    C42     1.413   .     A
C38    C58     1.518   .     S
C39    C65     1.518   .     S
C39    C42     1.413   .     A
C40    C41     1.413   .     A
C40    C72     1.518   .     S
C47    C750    1.445   1_554 S
C48    C749    1.445   .     S
C51    H56     1.109   .     S
C51    H57     1.112   .     S
C51    C52     1.526   .     S
C52    H55     1.111   .     S
C52    H54     1.111   .     S
C52    H53     1.110   .     S
C58    H64     1.112   .     S
C58    C59     1.526   .     S
C58    H63     1.109   .     S
C59    H60     1.110   .     S
C59    H61     1.111   .     S
C59    H62     1.111   .     S
C65    H70     1.112   .     S
C65    H71     1.109   .     S
C65    C66     1.526   .     S
C66    H68     1.110   .     S
C66    H69     1.111   .     S
C66    H67     1.110   .     S
C72    H78     1.109   .     S
C72    H77     1.112   .     S
C72    C73     1.527   .     S
C73    H75     1.110   .     S
C73    H74     1.110   .     S
C73    H76     1.111   .     S
O79    C85     1.281   .     A
O79    Zn93    1.996   .     S
O80    Zn94    1.996   .     S
O80    C86     1.282   .     A
O81    C86     1.281   .     A
O81    Zn93    1.996   .     S
O82    C85     1.281   .     A
O82    Zn94    1.996   .     S
N83    C100    1.366   .     A
N83    C102    1.366   .     A
N83    Zn93    2.008   .     S
N84    C99     1.366   .     A
N84    C101    1.366   .     A
N84    Zn94    2.008   .     S
C85    C128    1.416   .     S
C86    C127    1.416   .     S
O87    C91     1.282   .     A
O87    Zn93    1.996   .     S
O88    C92     1.283   .     A
O88    Zn94    1.996   .     S
O89    C92     1.283   .     A
O89    Zn93    1.995   .     S
O90    Zn94    1.995   .     S
O90    C91     1.283   .     A
C91    C119    1.429   .     S
C92    C120    1.430   .     S
H95    C99     1.082   .     S
H96    C100    1.082   .     S
H97    C101    1.082   .     S
H98    C102    1.082   .     S
C99    C570    1.416   1_545 S
C100   C335    1.416   .     S
C101   C568    1.416   1_545 S
C102   C333    1.416   .     S
C103   H121    1.084   .     S
C103   C128    1.397   .     A
C104   H122    1.084   .     S
C104   C127    1.397   .     A
C104   C184    1.369   .     S
C105   H123    1.084   .     S
C105   C127    1.396   .     A
C105   C181    1.369   .     S
C106   H124    1.084   .     S
C106   C128    1.396   .     A
C107   C125    1.395   .     A
C107   H111    1.085   .     S
C107   C115    1.386   .     A
C108   C126    1.395   .     A
C108   C116    1.387   .     A
C108   H112    1.085   .     S
C109   C126    1.395   .     A
C109   H113    1.084   .     S
C109   C117    1.387   .     A
C110   H114    1.084   .     S
C110   C125    1.395   .     A
C110   C118    1.387   .     A
C115   C129    1.518   .     S
C115   C119    1.412   .     A
C116   C120    1.413   .     A
C116   C136    1.518   .     S
C117   C143    1.518   .     S
C117   C120    1.413   .     A
C118   C119    1.413   .     A
C118   C150    1.518   .     S
C125   C828    1.445   1_554 S
C126   C827    1.445   .     S
C129   H134    1.109   .     S
C129   H135    1.112   .     S
C129   C130    1.526   .     S
C130   H133    1.111   .     S
C130   H132    1.111   .     S
C130   H131    1.110   .     S
C136   H142    1.112   .     S
C136   C137    1.526   .     S
C136   H141    1.109   .     S
C137   H138    1.110   .     S
C137   H139    1.111   .     S
C137   H140    1.111   .     S
C143   H148    1.112   .     S
C143   H149    1.109   .     S
C143   C144    1.526   .     S
C144   H146    1.110   .     S
C144   H147    1.111   .     S
C144   H145    1.110   .     S
C150   H156    1.109   .     S
C150   H155    1.112   .     S
C150   C151    1.527   .     S
C151   H153    1.110   .     S
C151   H152    1.110   .     S
C151   H154    1.111   .     S
O157   C163    1.281   .     A
O157   Zn171   1.996   .     S
O158   Zn172   1.996   .     S
O158   C164    1.282   .     A
O159   C164    1.281   .     A
O159   Zn171   1.996   .     S
O160   C163    1.281   .     A
O160   Zn172   1.996   .     S
N161   C178    1.366   .     A
N161   C180    1.366   .     A
N161   Zn171   2.008   .     S
N162   C177    1.366   .     A
N162   C179    1.366   .     A
N162   Zn172   2.008   .     S
C163   C206    1.416   .     S
C164   C205    1.416   .     S
O165   C169    1.282   .     A
O165   Zn171   1.996   .     S
O166   C170    1.283   .     A
O166   Zn172   1.996   .     S
O167   C170    1.283   .     A
O167   Zn171   1.995   .     S
O168   Zn172   1.995   .     S
O168   C169    1.283   .     A
C169   C197    1.429   .     S
C170   C198    1.430   .     S
H173   C177    1.082   .     S
H174   C178    1.082   .     S
H175   C179    1.082   .     S
H176   C180    1.082   .     S
C177   C648    1.416   1_545 S
C178   C413    1.416   .     S
C179   C646    1.416   1_545 S
C180   C411    1.416   .     S
C181   H199    1.084   .     S
C181   C206    1.397   .     A
C182   H200    1.084   .     S
C182   C205    1.397   .     A
C182   C28     1.369   1_655 S
C183   H201    1.084   .     S
C183   C205    1.396   .     A
C183   C25     1.369   1_655 S
C184   H202    1.084   .     S
C184   C206    1.396   .     A
C185   C203    1.395   .     A
C185   H189    1.085   .     S
C185   C193    1.386   .     A
C186   C204    1.395   .     A
C186   C194    1.387   .     A
C186   H190    1.085   .     S
C187   C204    1.395   .     A
C187   H191    1.084   .     S
C187   C195    1.387   .     A
C188   H192    1.084   .     S
C188   C203    1.395   .     A
C188   C196    1.387   .     A
C193   C207    1.518   .     S
C193   C197    1.412   .     A
C194   C198    1.413   .     A
C194   C214    1.518   .     S
C195   C221    1.518   .     S
C195   C198    1.413   .     A
C196   C197    1.413   .     A
C196   C228    1.518   .     S
C203   C906    1.445   1_554 S
C204   C905    1.445   .     S
C207   H212    1.109   .     S
C207   H213    1.112   .     S
C207   C208    1.526   .     S
C208   H211    1.111   .     S
C208   H210    1.111   .     S
C208   H209    1.110   .     S
C214   H220    1.112   .     S
C214   C215    1.526   .     S
C214   H219    1.109   .     S
C215   H216    1.110   .     S
C215   H217    1.111   .     S
C215   H218    1.111   .     S
C221   H226    1.112   .     S
C221   H227    1.109   .     S
C221   C222    1.526   .     S
C222   H224    1.110   .     S
C222   H225    1.111   .     S
C222   H223    1.110   .     S
C228   H234    1.109   .     S
C228   H233    1.112   .     S
C228   C229    1.527   .     S
C229   H231    1.110   .     S
C229   H230    1.110   .     S
C229   H232    1.111   .     S
O235   C241    1.281   .     A
O235   Zn249   1.996   .     S
O236   Zn250   1.996   .     S
O236   C242    1.282   .     A
O237   C242    1.281   .     A
O237   Zn249   1.996   .     S
O238   C241    1.281   .     A
O238   Zn250   1.996   .     S
N239   C256    1.366   .     A
N239   C258    1.366   .     A
N239   Zn249   2.008   .     S
N240   C255    1.366   .     A
N240   C257    1.366   .     A
N240   Zn250   2.008   .     S
C241   C284    1.416   .     S
C242   C283    1.416   .     S
O243   C247    1.282   .     A
O243   Zn249   1.996   .     S
O244   C248    1.283   .     A
O244   Zn250   1.996   .     S
O245   C248    1.283   .     A
O245   Zn249   1.995   .     S
O246   Zn250   1.995   .     S
O246   C247    1.283   .     A
C247   C275    1.429   .     S
C248   C276    1.430   .     S
H251   C255    1.082   .     S
H252   C256    1.082   .     S
H253   C257    1.082   .     S
H254   C258    1.082   .     S
C256   C491    1.416   .     S
C258   C489    1.416   .     S
C259   H277    1.084   .     S
C259   C284    1.397   .     A
C259   C417    1.369   1_455 S
C260   H278    1.084   .     S
C260   C283    1.397   .     A
C260   C340    1.369   .     S
C261   H279    1.084   .     S
C261   C283    1.396   .     A
C261   C337    1.369   .     S
C262   H280    1.084   .     S
C262   C284    1.396   .     A
C262   C416    1.369   1_455 S
C263   C281    1.395   .     A
C263   H267    1.085   .     S
C263   C271    1.386   .     A
C264   C282    1.395   .     A
C264   C272    1.387   .     A
C264   H268    1.085   .     S
C265   C282    1.395   .     A
C265   H269    1.084   .     S
C265   C273    1.387   .     A
C266   H270    1.084   .     S
C266   C281    1.395   .     A
C266   C274    1.387   .     A
C271   C285    1.518   .     S
C271   C275    1.412   .     A
C272   C276    1.413   .     A
C272   C292    1.518   .     S
C273   C299    1.518   .     S
C273   C276    1.413   .     A
C274   C275    1.413   .     A
C274   C306    1.518   .     S
C281   C984    1.445   1_554 S
C282   C983    1.445   .     S
C285   H290    1.109   .     S
C285   H291    1.112   .     S
C285   C286    1.526   .     S
C286   H289    1.111   .     S
C286   H288    1.111   .     S
C286   H287    1.110   .     S
C292   H298    1.112   .     S
C292   C293    1.526   .     S
C292   H297    1.109   .     S
C293   H294    1.110   .     S
C293   H295    1.111   .     S
C293   H296    1.111   .     S
C299   H304    1.112   .     S
C299   H305    1.109   .     S
C299   C300    1.526   .     S
C300   H302    1.110   .     S
C300   H303    1.111   .     S
C300   H301    1.110   .     S
C306   H312    1.109   .     S
C306   H311    1.112   .     S
C306   C307    1.527   .     S
C307   H309    1.110   .     S
C307   H308    1.110   .     S
C307   H310    1.111   .     S
O313   C319    1.281   .     A
O313   Zn327   1.996   .     S
O314   Zn328   1.996   .     S
O314   C320    1.282   .     A
O315   C320    1.281   .     A
O315   Zn327   1.996   .     S
O316   C319    1.281   .     A
O316   Zn328   1.996   .     S
N317   C334    1.366   .     A
N317   C336    1.366   .     A
N317   Zn327   2.008   .     S
N318   C333    1.366   .     A
N318   C335    1.366   .     A
N318   Zn328   2.008   .     S
C319   C362    1.416   .     S
C320   C361    1.416   .     S
O321   C325    1.282   .     A
O321   Zn327   1.996   .     S
O322   C326    1.283   .     A
O322   Zn328   1.996   .     S
O323   C326    1.283   .     A
O323   Zn327   1.995   .     S
O324   Zn328   1.995   .     S
O324   C325    1.283   .     A
C325   C353    1.429   .     S
C326   C354    1.430   .     S
H329   C333    1.082   .     S
H330   C334    1.082   .     S
H331   C335    1.082   .     S
H332   C336    1.082   .     S
C334   C569    1.416   .     S
C336   C567    1.416   .     S
C337   H355    1.084   .     S
C337   C362    1.397   .     A
C338   H356    1.084   .     S
C338   C361    1.397   .     A
C338   C418    1.369   .     S
C339   H357    1.084   .     S
C339   C361    1.396   .     A
C339   C415    1.369   .     S
C340   H358    1.084   .     S
C340   C362    1.396   .     A
C341   C359    1.395   .     A
C341   H345    1.085   .     S
C341   C349    1.386   .     A
C342   C360    1.395   .     A
C342   C350    1.387   .     A
C342   H346    1.085   .     S
C343   C360    1.395   .     A
C343   H347    1.084   .     S
C343   C351    1.387   .     A
C344   H348    1.084   .     S
C344   C359    1.395   .     A
C344   C352    1.387   .     A
C349   C363    1.518   .     S
C349   C353    1.412   .     A
C350   C354    1.413   .     A
C350   C370    1.518   .     S
C351   C377    1.518   .     S
C351   C354    1.413   .     A
C352   C353    1.413   .     A
C352   C384    1.518   .     S
C359   C1062   1.445   1_554 S
C360   C1061   1.445   .     S
C363   H368    1.109   .     S
C363   H369    1.112   .     S
C363   C364    1.526   .     S
C364   H367    1.111   .     S
C364   H366    1.111   .     S
C364   H365    1.110   .     S
C370   H376    1.112   .     S
C370   C371    1.526   .     S
C370   H375    1.109   .     S
C371   H372    1.110   .     S
C371   H373    1.111   .     S
C371   H374    1.111   .     S
C377   H382    1.112   .     S
C377   H383    1.109   .     S
C377   C378    1.526   .     S
C378   H380    1.110   .     S
C378   H381    1.111   .     S
C378   H379    1.110   .     S
C384   H390    1.109   .     S
C384   H389    1.112   .     S
C384   C385    1.527   .     S
C385   H387    1.110   .     S
C385   H386    1.110   .     S
C385   H388    1.111   .     S
O391   C397    1.281   .     A
O391   Zn405   1.996   .     S
O392   Zn406   1.996   .     S
O392   C398    1.282   .     A
O393   C398    1.281   .     A
O393   Zn405   1.996   .     S
O394   C397    1.281   .     A
O394   Zn406   1.996   .     S
N395   C412    1.366   .     A
N395   C414    1.366   .     A
N395   Zn405   2.008   .     S
N396   C411    1.366   .     A
N396   C413    1.366   .     A
N396   Zn406   2.008   .     S
C397   C440    1.416   .     S
C398   C439    1.416   .     S
O399   C403    1.282   .     A
O399   Zn405   1.996   .     S
O400   C404    1.283   .     A
O400   Zn406   1.996   .     S
O401   C404    1.283   .     A
O401   Zn405   1.995   .     S
O402   Zn406   1.995   .     S
O402   C403    1.283   .     A
C403   C431    1.429   .     S
C404   C432    1.430   .     S
H407   C411    1.082   .     S
H408   C412    1.082   .     S
H409   C413    1.082   .     S
H410   C414    1.082   .     S
C412   C647    1.416   .     S
C414   C645    1.416   .     S
C415   H433    1.084   .     S
C415   C440    1.397   .     A
C416   H434    1.084   .     S
C416   C439    1.397   .     A
C416   C262    1.369   1_655 S
C417   H435    1.084   .     S
C417   C439    1.396   .     A
C417   C259    1.369   1_655 S
C418   H436    1.084   .     S
C418   C440    1.396   .     A
C419   C437    1.395   .     A
C419   H423    1.085   .     S
C419   C427    1.386   .     A
C420   C438    1.395   .     A
C420   C428    1.387   .     A
C420   H424    1.085   .     S
C421   C438    1.395   .     A
C421   H425    1.084   .     S
C421   C429    1.387   .     A
C422   H426    1.084   .     S
C422   C437    1.395   .     A
C422   C430    1.387   .     A
C427   C441    1.518   .     S
C427   C431    1.412   .     A
C428   C432    1.413   .     A
C428   C448    1.518   .     S
C429   C455    1.518   .     S
C429   C432    1.413   .     A
C430   C431    1.413   .     A
C430   C462    1.518   .     S
C437   C1140   1.445   1_554 S
C438   C1139   1.445   .     S
C441   H446    1.109   .     S
C441   H447    1.112   .     S
C441   C442    1.526   .     S
C442   H445    1.111   .     S
C442   H444    1.111   .     S
C442   H443    1.110   .     S
C448   H454    1.112   .     S
C448   C449    1.526   .     S
C448   H453    1.109   .     S
C449   H450    1.110   .     S
C449   H451    1.111   .     S
C449   H452    1.111   .     S
C455   H460    1.112   .     S
C455   H461    1.109   .     S
C455   C456    1.526   .     S
C456   H458    1.110   .     S
C456   H459    1.111   .     S
C456   H457    1.110   .     S
C462   H468    1.109   .     S
C462   H467    1.112   .     S
C462   C463    1.527   .     S
C463   H465    1.110   .     S
C463   H464    1.110   .     S
C463   H466    1.111   .     S
O469   C475    1.281   .     A
O469   Zn483   1.996   .     S
O470   Zn484   1.996   .     S
O470   C476    1.282   .     A
O471   C476    1.281   .     A
O471   Zn483   1.996   .     S
O472   C475    1.281   .     A
O472   Zn484   1.996   .     S
N473   C490    1.366   .     A
N473   C492    1.366   .     A
N473   Zn483   2.008   .     S
N474   C489    1.366   .     A
N474   C491    1.366   .     A
N474   Zn484   2.008   .     S
C475   C518    1.416   .     S
C476   C517    1.416   .     S
O477   C481    1.282   .     A
O477   Zn483   1.996   .     S
O478   C482    1.283   .     A
O478   Zn484   1.996   .     S
O479   C482    1.283   .     A
O479   Zn483   1.995   .     S
O480   Zn484   1.995   .     S
O480   C481    1.283   .     A
C481   C509    1.429   .     S
C482   C510    1.430   .     S
H485   C489    1.082   .     S
H486   C490    1.082   .     S
H487   C491    1.082   .     S
H488   C492    1.082   .     S
C490   C23     1.416   1_565 S
C492   C21     1.416   1_565 S
C493   H511    1.084   .     S
C493   C518    1.397   .     A
C493   C651    1.369   1_455 S
C494   H512    1.084   .     S
C494   C517    1.397   .     A
C494   C574    1.369   .     S
C495   H513    1.084   .     S
C495   C517    1.396   .     A
C495   C571    1.369   .     S
C496   H514    1.084   .     S
C496   C518    1.396   .     A
C496   C650    1.369   1_455 S
C497   C515    1.395   .     A
C497   H501    1.085   .     S
C497   C505    1.386   .     A
C498   C516    1.395   .     A
C498   C506    1.387   .     A
C498   H502    1.085   .     S
C499   C516    1.395   .     A
C499   H503    1.084   .     S
C499   C507    1.387   .     A
C500   H504    1.084   .     S
C500   C515    1.395   .     A
C500   C508    1.387   .     A
C505   C519    1.518   .     S
C505   C509    1.412   .     A
C506   C510    1.413   .     A
C506   C526    1.518   .     S
C507   C533    1.518   .     S
C507   C510    1.413   .     A
C508   C509    1.413   .     A
C508   C540    1.518   .     S
C515   C1218   1.445   1_554 S
C516   C1217   1.445   .     S
C519   H524    1.109   .     S
C519   H525    1.112   .     S
C519   C520    1.526   .     S
C520   H523    1.111   .     S
C520   H522    1.111   .     S
C520   H521    1.110   .     S
C526   H532    1.112   .     S
C526   C527    1.526   .     S
C526   H531    1.109   .     S
C527   H528    1.110   .     S
C527   H529    1.111   .     S
C527   H530    1.111   .     S
C533   H538    1.112   .     S
C533   H539    1.109   .     S
C533   C534    1.526   .     S
C534   H536    1.110   .     S
C534   H537    1.111   .     S
C534   H535    1.110   .     S
C540   H546    1.109   .     S
C540   H545    1.112   .     S
C540   C541    1.527   .     S
C541   H543    1.110   .     S
C541   H542    1.110   .     S
C541   H544    1.111   .     S
O547   C553    1.281   .     A
O547   Zn561   1.996   .     S
O548   Zn562   1.996   .     S
O548   C554    1.282   .     A
O549   C554    1.281   .     A
O549   Zn561   1.996   .     S
O550   C553    1.281   .     A
O550   Zn562   1.996   .     S
N551   C568    1.366   .     A
N551   C570    1.366   .     A
N551   Zn561   2.008   .     S
N552   C567    1.366   .     A
N552   C569    1.366   .     A
N552   Zn562   2.008   .     S
C553   C596    1.416   .     S
C554   C595    1.416   .     S
O555   C559    1.282   .     A
O555   Zn561   1.996   .     S
O556   C560    1.283   .     A
O556   Zn562   1.996   .     S
O557   C560    1.283   .     A
O557   Zn561   1.995   .     S
O558   Zn562   1.995   .     S
O558   C559    1.283   .     A
C559   C587    1.429   .     S
C560   C588    1.430   .     S
H563   C567    1.082   .     S
H564   C568    1.082   .     S
H565   C569    1.082   .     S
H566   C570    1.082   .     S
C568   C101    1.416   1_565 S
C570   C99     1.416   1_565 S
C571   H589    1.084   .     S
C571   C596    1.397   .     A
C572   H590    1.084   .     S
C572   C595    1.397   .     A
C572   C652    1.369   .     S
C573   H591    1.084   .     S
C573   C595    1.396   .     A
C573   C649    1.369   .     S
C574   H592    1.084   .     S
C574   C596    1.396   .     A
C575   C593    1.395   .     A
C575   H579    1.085   .     S
C575   C583    1.386   .     A
C576   C594    1.395   .     A
C576   C584    1.387   .     A
C576   H580    1.085   .     S
C577   C594    1.395   .     A
C577   H581    1.084   .     S
C577   C585    1.387   .     A
C578   H582    1.084   .     S
C578   C593    1.395   .     A
C578   C586    1.387   .     A
C583   C597    1.518   .     S
C583   C587    1.412   .     A
C584   C588    1.413   .     A
C584   C604    1.518   .     S
C585   C611    1.518   .     S
C585   C588    1.413   .     A
C586   C587    1.413   .     A
C586   C618    1.518   .     S
C593   C1296   1.445   1_554 S
C594   C1295   1.445   .     S
C597   H602    1.109   .     S
C597   H603    1.112   .     S
C597   C598    1.526   .     S
C598   H601    1.111   .     S
C598   H600    1.111   .     S
C598   H599    1.110   .     S
C604   H610    1.112   .     S
C604   C605    1.526   .     S
C604   H609    1.109   .     S
C605   H606    1.110   .     S
C605   H607    1.111   .     S
C605   H608    1.111   .     S
C611   H616    1.112   .     S
C611   H617    1.109   .     S
C611   C612    1.526   .     S
C612   H614    1.110   .     S
C612   H615    1.111   .     S
C612   H613    1.110   .     S
C618   H624    1.109   .     S
C618   H623    1.112   .     S
C618   C619    1.527   .     S
C619   H621    1.110   .     S
C619   H620    1.110   .     S
C619   H622    1.111   .     S
O625   C631    1.281   .     A
O625   Zn639   1.996   .     S
O626   Zn640   1.996   .     S
O626   C632    1.282   .     A
O627   C632    1.281   .     A
O627   Zn639   1.996   .     S
O628   C631    1.281   .     A
O628   Zn640   1.996   .     S
N629   C646    1.366   .     A
N629   C648    1.366   .     A
N629   Zn639   2.008   .     S
N630   C645    1.366   .     A
N630   C647    1.366   .     A
N630   Zn640   2.008   .     S
C631   C674    1.416   .     S
C632   C673    1.416   .     S
O633   C637    1.282   .     A
O633   Zn639   1.996   .     S
O634   C638    1.283   .     A
O634   Zn640   1.996   .     S
O635   C638    1.283   .     A
O635   Zn639   1.995   .     S
O636   Zn640   1.995   .     S
O636   C637    1.283   .     A
C637   C665    1.429   .     S
C638   C666    1.430   .     S
H641   C645    1.082   .     S
H642   C646    1.082   .     S
H643   C647    1.082   .     S
H644   C648    1.082   .     S
C646   C179    1.416   1_565 S
C648   C177    1.416   1_565 S
C649   H667    1.084   .     S
C649   C674    1.397   .     A
C650   H668    1.084   .     S
C650   C673    1.397   .     A
C650   C496    1.369   1_655 S
C651   H669    1.084   .     S
C651   C673    1.396   .     A
C651   C493    1.369   1_655 S
C652   H670    1.084   .     S
C652   C674    1.396   .     A
C653   C671    1.395   .     A
C653   H657    1.085   .     S
C653   C661    1.386   .     A
C654   C672    1.395   .     A
C654   C662    1.387   .     A
C654   H658    1.085   .     S
C655   C672    1.395   .     A
C655   H659    1.084   .     S
C655   C663    1.387   .     A
C656   H660    1.084   .     S
C656   C671    1.395   .     A
C656   C664    1.387   .     A
C661   C675    1.518   .     S
C661   C665    1.412   .     A
C662   C666    1.413   .     A
C662   C682    1.518   .     S
C663   C689    1.518   .     S
C663   C666    1.413   .     A
C664   C665    1.413   .     A
C664   C696    1.518   .     S
C671   C1374   1.445   1_554 S
C672   C1373   1.445   .     S
C675   H680    1.109   .     S
C675   H681    1.112   .     S
C675   C676    1.526   .     S
C676   H679    1.111   .     S
C676   H678    1.111   .     S
C676   H677    1.110   .     S
C682   H688    1.112   .     S
C682   C683    1.526   .     S
C682   H687    1.109   .     S
C683   H684    1.110   .     S
C683   H685    1.111   .     S
C683   H686    1.111   .     S
C689   H694    1.112   .     S
C689   H695    1.109   .     S
C689   C690    1.526   .     S
C690   H692    1.110   .     S
C690   H693    1.111   .     S
C690   H691    1.110   .     S
C696   H702    1.109   .     S
C696   H701    1.112   .     S
C696   C697    1.527   .     S
C697   H699    1.110   .     S
C697   H698    1.110   .     S
C697   H700    1.111   .     S
O703   C709    1.281   .     A
O703   Zn717   1.996   .     S
O704   Zn718   1.996   .     S
O704   C710    1.282   .     A
O705   C710    1.281   .     A
O705   Zn717   1.996   .     S
O706   C709    1.281   .     A
O706   Zn718   1.996   .     S
N707   C724    1.366   .     A
N707   C726    1.366   .     A
N707   Zn717   2.008   .     S
N708   C723    1.366   .     A
N708   C725    1.366   .     A
N708   Zn718   2.008   .     S
C709   C752    1.416   .     S
C710   C751    1.416   .     S
O711   C715    1.282   .     A
O711   Zn717   1.996   .     S
O712   C716    1.283   .     A
O712   Zn718   1.996   .     S
O713   C716    1.283   .     A
O713   Zn717   1.995   .     S
O714   Zn718   1.995   .     S
O714   C715    1.283   .     A
C715   C743    1.429   .     S
C716   C744    1.430   .     S
H719   C723    1.082   .     S
H720   C724    1.082   .     S
H721   C725    1.082   .     S
H722   C726    1.082   .     S
C723   C1194   1.416   1_545 S
C724   C959    1.416   .     S
C725   C1192   1.416   1_545 S
C726   C957    1.416   .     S
C727   H745    1.084   .     S
C727   C752    1.397   .     A
C727   C885    1.369   1_455 S
C728   H746    1.084   .     S
C728   C751    1.397   .     A
C728   C808    1.369   .     S
C729   H747    1.084   .     S
C729   C751    1.396   .     A
C729   C805    1.369   .     S
C730   H748    1.084   .     S
C730   C752    1.396   .     A
C730   C884    1.369   1_455 S
C731   C749    1.395   .     A
C731   H735    1.085   .     S
C731   C739    1.386   .     A
C732   C750    1.395   .     A
C732   C740    1.387   .     A
C732   H736    1.085   .     S
C733   C750    1.395   .     A
C733   H737    1.084   .     S
C733   C741    1.387   .     A
C734   H738    1.084   .     S
C734   C749    1.395   .     A
C734   C742    1.387   .     A
C739   C753    1.518   .     S
C739   C743    1.412   .     A
C740   C744    1.413   .     A
C740   C760    1.518   .     S
C741   C767    1.518   .     S
C741   C744    1.413   .     A
C742   C743    1.413   .     A
C742   C774    1.518   .     S
C750   C47     1.445   1_556 S
C753   H758    1.109   .     S
C753   H759    1.112   .     S
C753   C754    1.526   .     S
C754   H757    1.111   .     S
C754   H756    1.111   .     S
C754   H755    1.110   .     S
C760   H766    1.112   .     S
C760   C761    1.526   .     S
C760   H765    1.109   .     S
C761   H762    1.110   .     S
C761   H763    1.111   .     S
C761   H764    1.111   .     S
C767   H772    1.112   .     S
C767   H773    1.109   .     S
C767   C768    1.526   .     S
C768   H770    1.110   .     S
C768   H771    1.111   .     S
C768   H769    1.110   .     S
C774   H780    1.109   .     S
C774   H779    1.112   .     S
C774   C775    1.527   .     S
C775   H777    1.110   .     S
C775   H776    1.110   .     S
C775   H778    1.111   .     S
O781   C787    1.281   .     A
O781   Zn795   1.996   .     S
O782   Zn796   1.996   .     S
O782   C788    1.282   .     A
O783   C788    1.281   .     A
O783   Zn795   1.996   .     S
O784   C787    1.281   .     A
O784   Zn796   1.996   .     S
N785   C802    1.366   .     A
N785   C804    1.366   .     A
N785   Zn795   2.008   .     S
N786   C801    1.366   .     A
N786   C803    1.366   .     A
N786   Zn796   2.008   .     S
C787   C830    1.416   .     S
C788   C829    1.416   .     S
O789   C793    1.282   .     A
O789   Zn795   1.996   .     S
O790   C794    1.283   .     A
O790   Zn796   1.996   .     S
O791   C794    1.283   .     A
O791   Zn795   1.995   .     S
O792   Zn796   1.995   .     S
O792   C793    1.283   .     A
C793   C821    1.429   .     S
C794   C822    1.430   .     S
H797   C801    1.082   .     S
H798   C802    1.082   .     S
H799   C803    1.082   .     S
H800   C804    1.082   .     S
C801   C1272   1.416   1_545 S
C802   C1037   1.416   .     S
C803   C1270   1.416   1_545 S
C804   C1035   1.416   .     S
C805   H823    1.084   .     S
C805   C830    1.397   .     A
C806   H824    1.084   .     S
C806   C829    1.397   .     A
C806   C886    1.369   .     S
C807   H825    1.084   .     S
C807   C829    1.396   .     A
C807   C883    1.369   .     S
C808   H826    1.084   .     S
C808   C830    1.396   .     A
C809   C827    1.395   .     A
C809   H813    1.085   .     S
C809   C817    1.386   .     A
C810   C828    1.395   .     A
C810   C818    1.387   .     A
C810   H814    1.085   .     S
C811   C828    1.395   .     A
C811   H815    1.084   .     S
C811   C819    1.387   .     A
C812   H816    1.084   .     S
C812   C827    1.395   .     A
C812   C820    1.387   .     A
C817   C831    1.518   .     S
C817   C821    1.412   .     A
C818   C822    1.413   .     A
C818   C838    1.518   .     S
C819   C845    1.518   .     S
C819   C822    1.413   .     A
C820   C821    1.413   .     A
C820   C852    1.518   .     S
C828   C125    1.445   1_556 S
C831   H836    1.109   .     S
C831   H837    1.112   .     S
C831   C832    1.526   .     S
C832   H835    1.111   .     S
C832   H834    1.111   .     S
C832   H833    1.110   .     S
C838   H844    1.112   .     S
C838   C839    1.526   .     S
C838   H843    1.109   .     S
C839   H840    1.110   .     S
C839   H841    1.111   .     S
C839   H842    1.111   .     S
C845   H850    1.112   .     S
C845   H851    1.109   .     S
C845   C846    1.526   .     S
C846   H848    1.110   .     S
C846   H849    1.111   .     S
C846   H847    1.110   .     S
C852   H858    1.109   .     S
C852   H857    1.112   .     S
C852   C853    1.527   .     S
C853   H855    1.110   .     S
C853   H854    1.110   .     S
C853   H856    1.111   .     S
O859   C865    1.281   .     A
O859   Zn873   1.996   .     S
O860   Zn874   1.996   .     S
O860   C866    1.282   .     A
O861   C866    1.281   .     A
O861   Zn873   1.996   .     S
O862   C865    1.281   .     A
O862   Zn874   1.996   .     S
N863   C880    1.366   .     A
N863   C882    1.366   .     A
N863   Zn873   2.008   .     S
N864   C879    1.366   .     A
N864   C881    1.366   .     A
N864   Zn874   2.008   .     S
C865   C908    1.416   .     S
C866   C907    1.416   .     S
O867   C871    1.282   .     A
O867   Zn873   1.996   .     S
O868   C872    1.283   .     A
O868   Zn874   1.996   .     S
O869   C872    1.283   .     A
O869   Zn873   1.995   .     S
O870   Zn874   1.995   .     S
O870   C871    1.283   .     A
C871   C899    1.429   .     S
C872   C900    1.430   .     S
H875   C879    1.082   .     S
H876   C880    1.082   .     S
H877   C881    1.082   .     S
H878   C882    1.082   .     S
C879   C1350   1.416   1_545 S
C880   C1115   1.416   .     S
C881   C1348   1.416   1_545 S
C882   C1113   1.416   .     S
C883   H901    1.084   .     S
C883   C908    1.397   .     A
C884   H902    1.084   .     S
C884   C907    1.397   .     A
C884   C730    1.369   1_655 S
C885   H903    1.084   .     S
C885   C907    1.396   .     A
C885   C727    1.369   1_655 S
C886   H904    1.084   .     S
C886   C908    1.396   .     A
C887   C905    1.395   .     A
C887   H891    1.085   .     S
C887   C895    1.386   .     A
C888   C906    1.395   .     A
C888   C896    1.387   .     A
C888   H892    1.085   .     S
C889   C906    1.395   .     A
C889   H893    1.084   .     S
C889   C897    1.387   .     A
C890   H894    1.084   .     S
C890   C905    1.395   .     A
C890   C898    1.387   .     A
C895   C909    1.518   .     S
C895   C899    1.412   .     A
C896   C900    1.413   .     A
C896   C916    1.518   .     S
C897   C923    1.518   .     S
C897   C900    1.413   .     A
C898   C899    1.413   .     A
C898   C930    1.518   .     S
C906   C203    1.445   1_556 S
C909   H914    1.109   .     S
C909   H915    1.112   .     S
C909   C910    1.526   .     S
C910   H913    1.111   .     S
C910   H912    1.111   .     S
C910   H911    1.110   .     S
C916   H922    1.112   .     S
C916   C917    1.526   .     S
C916   H921    1.109   .     S
C917   H918    1.110   .     S
C917   H919    1.111   .     S
C917   H920    1.111   .     S
C923   H928    1.112   .     S
C923   H929    1.109   .     S
C923   C924    1.526   .     S
C924   H926    1.110   .     S
C924   H927    1.111   .     S
C924   H925    1.110   .     S
C930   H936    1.109   .     S
C930   H935    1.112   .     S
C930   C931    1.527   .     S
C931   H933    1.110   .     S
C931   H932    1.110   .     S
C931   H934    1.111   .     S
O937   C943    1.281   .     A
O937   Zn951   1.996   .     S
O938   Zn952   1.996   .     S
O938   C944    1.282   .     A
O939   C944    1.281   .     A
O939   Zn951   1.996   .     S
O940   C943    1.281   .     A
O940   Zn952   1.996   .     S
N941   C958    1.366   .     A
N941   C960    1.366   .     A
N941   Zn951   2.008   .     S
N942   C957    1.366   .     A
N942   C959    1.366   .     A
N942   Zn952   2.008   .     S
C943   C986    1.416   .     S
C944   C985    1.416   .     S
O945   C949    1.282   .     A
O945   Zn951   1.996   .     S
O946   C950    1.283   .     A
O946   Zn952   1.996   .     S
O947   C950    1.283   .     A
O947   Zn951   1.995   .     S
O948   Zn952   1.995   .     S
O948   C949    1.283   .     A
C949   C977    1.429   .     S
C950   C978    1.430   .     S
H953   C957    1.082   .     S
H954   C958    1.082   .     S
H955   C959    1.082   .     S
H956   C960    1.082   .     S
C958   C1193   1.416   .     S
C960   C1191   1.416   .     S
C961   H979    1.084   .     S
C961   C986    1.397   .     A
C961   C1119   1.369   1_455 S
C962   H980    1.084   .     S
C962   C985    1.397   .     A
C962   C1042   1.369   .     S
C963   H981    1.084   .     S
C963   C985    1.396   .     A
C963   C1039   1.369   .     S
C964   H982    1.084   .     S
C964   C986    1.396   .     A
C964   C1118   1.369   1_455 S
C965   C983    1.395   .     A
C965   H969    1.085   .     S
C965   C973    1.386   .     A
C966   C984    1.395   .     A
C966   C974    1.387   .     A
C966   H970    1.085   .     S
C967   C984    1.395   .     A
C967   H971    1.084   .     S
C967   C975    1.387   .     A
C968   H972    1.084   .     S
C968   C983    1.395   .     A
C968   C976    1.387   .     A
C973   C987    1.518   .     S
C973   C977    1.412   .     A
C974   C978    1.413   .     A
C974   C994    1.518   .     S
C975   C1001   1.518   .     S
C975   C978    1.413   .     A
C976   C977    1.413   .     A
C976   C1008   1.518   .     S
C984   C281    1.445   1_556 S
C987   H992    1.109   .     S
C987   H993    1.112   .     S
C987   C988    1.526   .     S
C988   H991    1.111   .     S
C988   H990    1.111   .     S
C988   H989    1.110   .     S
C994   H1000   1.112   .     S
C994   C995    1.526   .     S
C994   H999    1.109   .     S
C995   H996    1.110   .     S
C995   H997    1.111   .     S
C995   H998    1.111   .     S
C1001  H1006   1.112   .     S
C1001  H1007   1.109   .     S
C1001  C1002   1.526   .     S
C1002  H1004   1.110   .     S
C1002  H1005   1.111   .     S
C1002  H1003   1.110   .     S
C1008  H1014   1.109   .     S
C1008  H1013   1.112   .     S
C1008  C1009   1.527   .     S
C1009  H1011   1.110   .     S
C1009  H1010   1.110   .     S
C1009  H1012   1.111   .     S
O1015  C1021   1.281   .     A
O1015  Zn1029  1.996   .     S
O1016  Zn1030  1.996   .     S
O1016  C1022   1.282   .     A
O1017  C1022   1.281   .     A
O1017  Zn1029  1.996   .     S
O1018  C1021   1.281   .     A
O1018  Zn1030  1.996   .     S
N1019  C1036   1.366   .     A
N1019  C1038   1.366   .     A
N1019  Zn1029  2.008   .     S
N1020  C1035   1.366   .     A
N1020  C1037   1.366   .     A
N1020  Zn1030  2.008   .     S
C1021  C1064   1.416   .     S
C1022  C1063   1.416   .     S
O1023  C1027   1.282   .     A
O1023  Zn1029  1.996   .     S
O1024  C1028   1.283   .     A
O1024  Zn1030  1.996   .     S
O1025  C1028   1.283   .     A
O1025  Zn1029  1.995   .     S
O1026  Zn1030  1.995   .     S
O1026  C1027   1.283   .     A
C1027  C1055   1.429   .     S
C1028  C1056   1.430   .     S
H1031  C1035   1.082   .     S
H1032  C1036   1.082   .     S
H1033  C1037   1.082   .     S
H1034  C1038   1.082   .     S
C1036  C1271   1.416   .     S
C1038  C1269   1.416   .     S
C1039  H1057   1.084   .     S
C1039  C1064   1.397   .     A
C1040  H1058   1.084   .     S
C1040  C1063   1.397   .     A
C1040  C1120   1.369   .     S
C1041  H1059   1.084   .     S
C1041  C1063   1.396   .     A
C1041  C1117   1.369   .     S
C1042  H1060   1.084   .     S
C1042  C1064   1.396   .     A
C1043  C1061   1.395   .     A
C1043  H1047   1.085   .     S
C1043  C1051   1.386   .     A
C1044  C1062   1.395   .     A
C1044  C1052   1.387   .     A
C1044  H1048   1.085   .     S
C1045  C1062   1.395   .     A
C1045  H1049   1.084   .     S
C1045  C1053   1.387   .     A
C1046  H1050   1.084   .     S
C1046  C1061   1.395   .     A
C1046  C1054   1.387   .     A
C1051  C1065   1.518   .     S
C1051  C1055   1.412   .     A
C1052  C1056   1.413   .     A
C1052  C1072   1.518   .     S
C1053  C1079   1.518   .     S
C1053  C1056   1.413   .     A
C1054  C1055   1.413   .     A
C1054  C1086   1.518   .     S
C1062  C359    1.445   1_556 S
C1065  H1070   1.109   .     S
C1065  H1071   1.112   .     S
C1065  C1066   1.526   .     S
C1066  H1069   1.111   .     S
C1066  H1068   1.111   .     S
C1066  H1067   1.110   .     S
C1072  H1078   1.112   .     S
C1072  C1073   1.526   .     S
C1072  H1077   1.109   .     S
C1073  H1074   1.110   .     S
C1073  H1075   1.111   .     S
C1073  H1076   1.111   .     S
C1079  H1084   1.112   .     S
C1079  H1085   1.109   .     S
C1079  C1080   1.526   .     S
C1080  H1082   1.110   .     S
C1080  H1083   1.111   .     S
C1080  H1081   1.110   .     S
C1086  H1092   1.109   .     S
C1086  H1091   1.112   .     S
C1086  C1087   1.527   .     S
C1087  H1089   1.110   .     S
C1087  H1088   1.110   .     S
C1087  H1090   1.111   .     S
O1093  C1099   1.281   .     A
O1093  Zn1107  1.996   .     S
O1094  Zn1108  1.996   .     S
O1094  C1100   1.282   .     A
O1095  C1100   1.281   .     A
O1095  Zn1107  1.996   .     S
O1096  C1099   1.281   .     A
O1096  Zn1108  1.996   .     S
N1097  C1114   1.366   .     A
N1097  C1116   1.366   .     A
N1097  Zn1107  2.008   .     S
N1098  C1113   1.366   .     A
N1098  C1115   1.366   .     A
N1098  Zn1108  2.008   .     S
C1099  C1142   1.416   .     S
C1100  C1141   1.416   .     S
O1101  C1105   1.282   .     A
O1101  Zn1107  1.996   .     S
O1102  C1106   1.283   .     A
O1102  Zn1108  1.996   .     S
O1103  C1106   1.283   .     A
O1103  Zn1107  1.995   .     S
O1104  Zn1108  1.995   .     S
O1104  C1105   1.283   .     A
C1105  C1133   1.429   .     S
C1106  C1134   1.430   .     S
H1109  C1113   1.082   .     S
H1110  C1114   1.082   .     S
H1111  C1115   1.082   .     S
H1112  C1116   1.082   .     S
C1114  C1349   1.416   .     S
C1116  C1347   1.416   .     S
C1117  H1135   1.084   .     S
C1117  C1142   1.397   .     A
C1118  H1136   1.084   .     S
C1118  C1141   1.397   .     A
C1118  C964    1.369   1_655 S
C1119  H1137   1.084   .     S
C1119  C1141   1.396   .     A
C1119  C961    1.369   1_655 S
C1120  H1138   1.084   .     S
C1120  C1142   1.396   .     A
C1121  C1139   1.395   .     A
C1121  H1125   1.085   .     S
C1121  C1129   1.386   .     A
C1122  C1140   1.395   .     A
C1122  C1130   1.387   .     A
C1122  H1126   1.085   .     S
C1123  C1140   1.395   .     A
C1123  H1127   1.084   .     S
C1123  C1131   1.387   .     A
C1124  H1128   1.084   .     S
C1124  C1139   1.395   .     A
C1124  C1132   1.387   .     A
C1129  C1143   1.518   .     S
C1129  C1133   1.412   .     A
C1130  C1134   1.413   .     A
C1130  C1150   1.518   .     S
C1131  C1157   1.518   .     S
C1131  C1134   1.413   .     A
C1132  C1133   1.413   .     A
C1132  C1164   1.518   .     S
C1140  C437    1.445   1_556 S
C1143  H1148   1.109   .     S
C1143  H1149   1.112   .     S
C1143  C1144   1.526   .     S
C1144  H1147   1.111   .     S
C1144  H1146   1.111   .     S
C1144  H1145   1.110   .     S
C1150  H1156   1.112   .     S
C1150  C1151   1.526   .     S
C1150  H1155   1.109   .     S
C1151  H1152   1.110   .     S
C1151  H1153   1.111   .     S
C1151  H1154   1.111   .     S
C1157  H1162   1.112   .     S
C1157  H1163   1.109   .     S
C1157  C1158   1.526   .     S
C1158  H1160   1.110   .     S
C1158  H1161   1.111   .     S
C1158  H1159   1.110   .     S
C1164  H1170   1.109   .     S
C1164  H1169   1.112   .     S
C1164  C1165   1.527   .     S
C1165  H1167   1.110   .     S
C1165  H1166   1.110   .     S
C1165  H1168   1.111   .     S
O1171  C1177   1.281   .     A
O1171  Zn1185  1.996   .     S
O1172  Zn1186  1.996   .     S
O1172  C1178   1.282   .     A
O1173  C1178   1.281   .     A
O1173  Zn1185  1.996   .     S
O1174  C1177   1.281   .     A
O1174  Zn1186  1.996   .     S
N1175  C1192   1.366   .     A
N1175  C1194   1.366   .     A
N1175  Zn1185  2.008   .     S
N1176  C1191   1.366   .     A
N1176  C1193   1.366   .     A
N1176  Zn1186  2.008   .     S
C1177  C1220   1.416   .     S
C1178  C1219   1.416   .     S
O1179  C1183   1.282   .     A
O1179  Zn1185  1.996   .     S
O1180  C1184   1.283   .     A
O1180  Zn1186  1.996   .     S
O1181  C1184   1.283   .     A
O1181  Zn1185  1.995   .     S
O1182  Zn1186  1.995   .     S
O1182  C1183   1.283   .     A
C1183  C1211   1.429   .     S
C1184  C1212   1.430   .     S
H1187  C1191   1.082   .     S
H1188  C1192   1.082   .     S
H1189  C1193   1.082   .     S
H1190  C1194   1.082   .     S
C1192  C725    1.416   1_565 S
C1194  C723    1.416   1_565 S
C1195  H1213   1.084   .     S
C1195  C1220   1.397   .     A
C1195  C1353   1.369   1_455 S
C1196  H1214   1.084   .     S
C1196  C1219   1.397   .     A
C1196  C1276   1.369   .     S
C1197  H1215   1.084   .     S
C1197  C1219   1.396   .     A
C1197  C1273   1.369   .     S
C1198  H1216   1.084   .     S
C1198  C1220   1.396   .     A
C1198  C1352   1.369   1_455 S
C1199  C1217   1.395   .     A
C1199  H1203   1.085   .     S
C1199  C1207   1.386   .     A
C1200  C1218   1.395   .     A
C1200  C1208   1.387   .     A
C1200  H1204   1.085   .     S
C1201  C1218   1.395   .     A
C1201  H1205   1.084   .     S
C1201  C1209   1.387   .     A
C1202  H1206   1.084   .     S
C1202  C1217   1.395   .     A
C1202  C1210   1.387   .     A
C1207  C1221   1.518   .     S
C1207  C1211   1.412   .     A
C1208  C1212   1.413   .     A
C1208  C1228   1.518   .     S
C1209  C1235   1.518   .     S
C1209  C1212   1.413   .     A
C1210  C1211   1.413   .     A
C1210  C1242   1.518   .     S
C1218  C515    1.445   1_556 S
C1221  H1226   1.109   .     S
C1221  H1227   1.112   .     S
C1221  C1222   1.526   .     S
C1222  H1225   1.111   .     S
C1222  H1224   1.111   .     S
C1222  H1223   1.110   .     S
C1228  H1234   1.112   .     S
C1228  C1229   1.526   .     S
C1228  H1233   1.109   .     S
C1229  H1230   1.110   .     S
C1229  H1231   1.111   .     S
C1229  H1232   1.111   .     S
C1235  H1240   1.112   .     S
C1235  H1241   1.109   .     S
C1235  C1236   1.526   .     S
C1236  H1238   1.110   .     S
C1236  H1239   1.111   .     S
C1236  H1237   1.110   .     S
C1242  H1248   1.109   .     S
C1242  H1247   1.112   .     S
C1242  C1243   1.527   .     S
C1243  H1245   1.110   .     S
C1243  H1244   1.110   .     S
C1243  H1246   1.111   .     S
O1249  C1255   1.281   .     A
O1249  Zn1263  1.996   .     S
O1250  Zn1264  1.996   .     S
O1250  C1256   1.282   .     A
O1251  C1256   1.281   .     A
O1251  Zn1263  1.996   .     S
O1252  C1255   1.281   .     A
O1252  Zn1264  1.996   .     S
N1253  C1270   1.366   .     A
N1253  C1272   1.366   .     A
N1253  Zn1263  2.008   .     S
N1254  C1269   1.366   .     A
N1254  C1271   1.366   .     A
N1254  Zn1264  2.008   .     S
C1255  C1298   1.416   .     S
C1256  C1297   1.416   .     S
O1257  C1261   1.282   .     A
O1257  Zn1263  1.996   .     S
O1258  C1262   1.283   .     A
O1258  Zn1264  1.996   .     S
O1259  C1262   1.283   .     A
O1259  Zn1263  1.995   .     S
O1260  Zn1264  1.995   .     S
O1260  C1261   1.283   .     A
C1261  C1289   1.429   .     S
C1262  C1290   1.430   .     S
H1265  C1269   1.082   .     S
H1266  C1270   1.082   .     S
H1267  C1271   1.082   .     S
H1268  C1272   1.082   .     S
C1270  C803    1.416   1_565 S
C1272  C801    1.416   1_565 S
C1273  H1291   1.084   .     S
C1273  C1298   1.397   .     A
C1274  H1292   1.084   .     S
C1274  C1297   1.397   .     A
C1274  C1354   1.369   .     S
C1275  H1293   1.084   .     S
C1275  C1297   1.396   .     A
C1275  C1351   1.369   .     S
C1276  H1294   1.084   .     S
C1276  C1298   1.396   .     A
C1277  C1295   1.395   .     A
C1277  H1281   1.085   .     S
C1277  C1285   1.386   .     A
C1278  C1296   1.395   .     A
C1278  C1286   1.387   .     A
C1278  H1282   1.085   .     S
C1279  C1296   1.395   .     A
C1279  H1283   1.084   .     S
C1279  C1287   1.387   .     A
C1280  H1284   1.084   .     S
C1280  C1295   1.395   .     A
C1280  C1288   1.387   .     A
C1285  C1299   1.518   .     S
C1285  C1289   1.412   .     A
C1286  C1290   1.413   .     A
C1286  C1306   1.518   .     S
C1287  C1313   1.518   .     S
C1287  C1290   1.413   .     A
C1288  C1289   1.413   .     A
C1288  C1320   1.518   .     S
C1296  C593    1.445   1_556 S
C1299  H1304   1.109   .     S
C1299  H1305   1.112   .     S
C1299  C1300   1.526   .     S
C1300  H1303   1.111   .     S
C1300  H1302   1.111   .     S
C1300  H1301   1.110   .     S
C1306  H1312   1.112   .     S
C1306  C1307   1.526   .     S
C1306  H1311   1.109   .     S
C1307  H1308   1.110   .     S
C1307  H1309   1.111   .     S
C1307  H1310   1.111   .     S
C1313  H1318   1.112   .     S
C1313  H1319   1.109   .     S
C1313  C1314   1.526   .     S
C1314  H1316   1.110   .     S
C1314  H1317   1.111   .     S
C1314  H1315   1.110   .     S
C1320  H1326   1.109   .     S
C1320  H1325   1.112   .     S
C1320  C1321   1.527   .     S
C1321  H1323   1.110   .     S
C1321  H1322   1.110   .     S
C1321  H1324   1.111   .     S
O1327  C1333   1.281   .     A
O1327  Zn1341  1.996   .     S
O1328  Zn1342  1.996   .     S
O1328  C1334   1.282   .     A
O1329  C1334   1.281   .     A
O1329  Zn1341  1.996   .     S
O1330  C1333   1.281   .     A
O1330  Zn1342  1.996   .     S
N1331  C1348   1.366   .     A
N1331  C1350   1.366   .     A
N1331  Zn1341  2.008   .     S
N1332  C1347   1.366   .     A
N1332  C1349   1.366   .     A
N1332  Zn1342  2.008   .     S
C1333  C1376   1.416   .     S
C1334  C1375   1.416   .     S
O1335  C1339   1.282   .     A
O1335  Zn1341  1.996   .     S
O1336  C1340   1.283   .     A
O1336  Zn1342  1.996   .     S
O1337  C1340   1.283   .     A
O1337  Zn1341  1.995   .     S
O1338  Zn1342  1.995   .     S
O1338  C1339   1.283   .     A
C1339  C1367   1.429   .     S
C1340  C1368   1.430   .     S
H1343  C1347   1.082   .     S
H1344  C1348   1.082   .     S
H1345  C1349   1.082   .     S
H1346  C1350   1.082   .     S
C1348  C881    1.416   1_565 S
C1350  C879    1.416   1_565 S
C1351  H1369   1.084   .     S
C1351  C1376   1.397   .     A
C1352  H1370   1.084   .     S
C1352  C1375   1.397   .     A
C1352  C1198   1.369   1_655 S
C1353  H1371   1.084   .     S
C1353  C1375   1.396   .     A
C1353  C1195   1.369   1_655 S
C1354  H1372   1.084   .     S
C1354  C1376   1.396   .     A
C1355  C1373   1.395   .     A
C1355  H1359   1.085   .     S
C1355  C1363   1.386   .     A
C1356  C1374   1.395   .     A
C1356  C1364   1.387   .     A
C1356  H1360   1.085   .     S
C1357  C1374   1.395   .     A
C1357  H1361   1.084   .     S
C1357  C1365   1.387   .     A
C1358  H1362   1.084   .     S
C1358  C1373   1.395   .     A
C1358  C1366   1.387   .     A
C1363  C1377   1.518   .     S
C1363  C1367   1.412   .     A
C1364  C1368   1.413   .     A
C1364  C1384   1.518   .     S
C1365  C1391   1.518   .     S
C1365  C1368   1.413   .     A
C1366  C1367   1.413   .     A
C1366  C1398   1.518   .     S
C1374  C671    1.445   1_556 S
C1377  H1382   1.109   .     S
C1377  H1383   1.112   .     S
C1377  C1378   1.526   .     S
C1378  H1381   1.111   .     S
C1378  H1380   1.111   .     S
C1378  H1379   1.110   .     S
C1384  H1390   1.112   .     S
C1384  C1385   1.526   .     S
C1384  H1389   1.109   .     S
C1385  H1386   1.110   .     S
C1385  H1387   1.111   .     S
C1385  H1388   1.111   .     S
C1391  H1396   1.112   .     S
C1391  H1397   1.109   .     S
C1391  C1392   1.526   .     S
C1392  H1394   1.110   .     S
C1392  H1395   1.111   .     S
C1392  H1393   1.110   .     S
C1398  H1404   1.109   .     S
C1398  H1403   1.112   .     S
C1398  C1399   1.527   .     S
C1399  H1401   1.110   .     S
C1399  H1400   1.110   .     S
C1399  H1402   1.111   .     S
