data_str_m2_o2_o5_pcu_sym.129
_audit_creation_date              2020-01-03
_audit_creation_method            'Materials Studio'
_symmetry_space_group_name_H-M    'P1'
_symmetry_Int_Tables_number       1
_symmetry_cell_setting            triclinic
loop_
_symmetry_equiv_pos_as_xyz
  x,y,z
_cell_length_a                    30.4420
_cell_length_b                    27.9726
_cell_length_c                    27.1612
_cell_angle_alpha                 89.9970
_cell_angle_beta                  92.2005
_cell_angle_gamma                 89.9957
loop_
_atom_site_label
_atom_site_type_symbol
_atom_site_fract_x
_atom_site_fract_y
_atom_site_fract_z
_atom_site_U_iso_or_equiv
_atom_site_adp_type
_atom_site_occupancy
C1     C     0.16495   0.25008   0.16713   0.00000  Uiso   1.00
C2     C     0.33505   0.25008   0.16620   0.00000  Uiso   1.00
C3     C     0.26566   0.10327   0.20713   0.00000  Uiso   1.00
C4     C     0.22078   0.39554   0.13667   0.00000  Uiso   1.00
C5     C     0.23432   0.10329   0.12620   0.00000  Uiso   1.00
C6     C     0.27923   0.39554   0.19665   0.00000  Uiso   1.00
C7     C     0.26510   0.05283   0.20764   0.00000  Uiso   1.00
C8     C     0.21998   0.44591   0.13680   0.00000  Uiso   1.00
C9     C     0.23491   0.05285   0.12566   0.00000  Uiso   1.00
C10    C     0.28004   0.44590   0.19650   0.00000  Uiso   1.00
C11    C     0.24995   0.25002   0.07361   0.00000  Uiso   1.00
C12    C     0.25005   0.25002   0.25972   0.00000  Uiso   1.00
C13    C     0.25001   0.02650   0.16664   0.00000  Uiso   1.00
C14    C     0.25001   0.47225   0.16664   0.00000  Uiso   1.00
C15    C     0.24999   0.25006   0.02187   0.00000  Uiso   1.00
C16    C     0.25001   0.25006   0.31146   0.00000  Uiso   1.00
C17    C     0.04856   0.29157   0.18925   0.00000  Uiso   1.00
C18    C     0.45495   0.21715   0.18959   0.00000  Uiso   1.00
C19    C     0.45140   0.29143   0.14374   0.00000  Uiso   1.00
C20    C     0.04505   0.21702   0.14390   0.00000  Uiso   1.00
C21    C     0.09446   0.28978   0.19042   0.00000  Uiso   1.00
C22    C     0.40927   0.21408   0.18793   0.00000  Uiso   1.00
C23    C     0.40549   0.28963   0.14262   0.00000  Uiso   1.00
C24    C     0.09073   0.21396   0.14560   0.00000  Uiso   1.00
C25    C     0.11633   0.25095   0.16799   0.00000  Uiso   1.00
C26    C     0.38366   0.25095   0.16532   0.00000  Uiso   1.00
C27    C     0.02399   0.25533   0.16599   0.00000  Uiso   1.00
C28    C     0.47598   0.25533   0.16722   0.00000  Uiso   1.00
Cu29   Cu    0.25000   0.29821   0.16667   0.00000  Uiso   1.00
Cu30   Cu    0.25000   0.20178   0.16667   0.00000  Uiso   1.00
H31    H     0.27623   0.03433   0.24086   0.00000  Uiso   1.00
H32    H     0.19543   0.46412   0.11381   0.00000  Uiso   1.00
H33    H     0.22376   0.03436   0.09244   0.00000  Uiso   1.00
H34    H     0.30459   0.46411   0.21948   0.00000  Uiso   1.00
N35    N     0.25000   0.12934   0.16667   0.00000  Uiso   1.00
N36    N     0.25000   0.37065   0.16667   0.00000  Uiso   1.00
O37    O     0.18573   0.29071   0.16667   0.00000  Uiso   1.00
O38    O     0.31427   0.20928   0.16666   0.00000  Uiso   1.00
O39    O     0.31427   0.29071   0.16666   0.00000  Uiso   1.00
O40    O     0.18573   0.20928   0.16667   0.00000  Uiso   1.00
O41    O     0.25000   0.29071   0.09613   0.00000  Uiso   1.00
O42    O     0.25000   0.20929   0.23720   0.00000  Uiso   1.00
O43    O     0.25000   0.29071   0.23720   0.00000  Uiso   1.00
O44    O     0.25000   0.20929   0.09613   0.00000  Uiso   1.00
C45    C     0.28354   0.12497   0.25151   0.00000  Uiso   1.00
N46    N     0.29804   0.14119   0.28786   0.00000  Uiso   1.00
C47    C     0.19015   0.37089   0.10398   0.00000  Uiso   1.00
N48    N     0.16541   0.35138   0.07752   0.00000  Uiso   1.00
C49    C     0.21633   0.12503   0.08189   0.00000  Uiso   1.00
N50    N     0.20173   0.14128   0.04560   0.00000  Uiso   1.00
C51    C     0.30985   0.37088   0.22936   0.00000  Uiso   1.00
N52    N     0.33459   0.35137   0.25583   0.00000  Uiso   1.00
F53    F     0.02769   0.32790   0.21209   0.00000  Uiso   1.00
F54    F     0.47928   0.18244   0.21285   0.00000  Uiso   1.00
F55    F     0.47223   0.32762   0.12066   0.00000  Uiso   1.00
F56    F     0.02074   0.18217   0.12085   0.00000  Uiso   1.00
C57    C     0.11807   0.32712   0.21714   0.00000  Uiso   1.00
N58    N     0.13692   0.35700   0.23853   0.00000  Uiso   1.00
C59    C     0.39055   0.17186   0.20918   0.00000  Uiso   1.00
N60    N     0.37670   0.13730   0.22601   0.00000  Uiso   1.00
C61    C     0.38184   0.32681   0.11568   0.00000  Uiso   1.00
N62    N     0.36295   0.35655   0.09411   0.00000  Uiso   1.00
C63    C     0.10947   0.17158   0.12466   0.00000  Uiso   1.00
N64    N     0.12332   0.13691   0.10809   0.00000  Uiso   1.00
C65    C     0.66495   0.25008   0.16713   0.00000  Uiso   1.00
C66    C     0.83505   0.25008   0.16620   0.00000  Uiso   1.00
C67    C     0.76566   0.10327   0.20713   0.00000  Uiso   1.00
C68    C     0.72078   0.39554   0.13667   0.00000  Uiso   1.00
C69    C     0.73432   0.10329   0.12620   0.00000  Uiso   1.00
C70    C     0.77923   0.39554   0.19665   0.00000  Uiso   1.00
C71    C     0.76510   0.05283   0.20764   0.00000  Uiso   1.00
C72    C     0.71998   0.44591   0.13680   0.00000  Uiso   1.00
C73    C     0.73491   0.05285   0.12566   0.00000  Uiso   1.00
C74    C     0.78004   0.44590   0.19650   0.00000  Uiso   1.00
C75    C     0.74995   0.25002   0.07361   0.00000  Uiso   1.00
C76    C     0.75005   0.25002   0.25972   0.00000  Uiso   1.00
C77    C     0.75001   0.02650   0.16664   0.00000  Uiso   1.00
C78    C     0.75001   0.47225   0.16664   0.00000  Uiso   1.00
C79    C     0.74999   0.25006   0.02187   0.00000  Uiso   1.00
C80    C     0.75001   0.25006   0.31146   0.00000  Uiso   1.00
C81    C     0.54856   0.29157   0.18925   0.00000  Uiso   1.00
C82    C     0.95495   0.21715   0.18959   0.00000  Uiso   1.00
C83    C     0.95140   0.29143   0.14374   0.00000  Uiso   1.00
C84    C     0.54505   0.21702   0.14390   0.00000  Uiso   1.00
C85    C     0.59446   0.28978   0.19042   0.00000  Uiso   1.00
C86    C     0.90927   0.21408   0.18793   0.00000  Uiso   1.00
C87    C     0.90549   0.28963   0.14262   0.00000  Uiso   1.00
C88    C     0.59073   0.21396   0.14560   0.00000  Uiso   1.00
C89    C     0.61633   0.25095   0.16799   0.00000  Uiso   1.00
C90    C     0.88366   0.25095   0.16532   0.00000  Uiso   1.00
C91    C     0.52399   0.25533   0.16599   0.00000  Uiso   1.00
C92    C     0.97598   0.25533   0.16722   0.00000  Uiso   1.00
Cu93   Cu    0.75000   0.29821   0.16667   0.00000  Uiso   1.00
Cu94   Cu    0.75000   0.20178   0.16667   0.00000  Uiso   1.00
H95    H     0.77623   0.03433   0.24086   0.00000  Uiso   1.00
H96    H     0.69543   0.46412   0.11381   0.00000  Uiso   1.00
H97    H     0.72376   0.03436   0.09244   0.00000  Uiso   1.00
H98    H     0.80459   0.46411   0.21948   0.00000  Uiso   1.00
N99    N     0.75000   0.12934   0.16667   0.00000  Uiso   1.00
N100   N     0.75000   0.37065   0.16667   0.00000  Uiso   1.00
O101   O     0.68573   0.29071   0.16667   0.00000  Uiso   1.00
O102   O     0.81427   0.20928   0.16666   0.00000  Uiso   1.00
O103   O     0.81427   0.29071   0.16666   0.00000  Uiso   1.00
O104   O     0.68573   0.20928   0.16667   0.00000  Uiso   1.00
O105   O     0.75000   0.29071   0.09613   0.00000  Uiso   1.00
O106   O     0.75000   0.20929   0.23720   0.00000  Uiso   1.00
O107   O     0.75000   0.29071   0.23720   0.00000  Uiso   1.00
O108   O     0.75000   0.20929   0.09613   0.00000  Uiso   1.00
C109   C     0.78354   0.12497   0.25151   0.00000  Uiso   1.00
N110   N     0.79804   0.14119   0.28786   0.00000  Uiso   1.00
C111   C     0.69015   0.37089   0.10398   0.00000  Uiso   1.00
N112   N     0.66541   0.35138   0.07752   0.00000  Uiso   1.00
C113   C     0.71633   0.12503   0.08189   0.00000  Uiso   1.00
N114   N     0.70173   0.14128   0.04560   0.00000  Uiso   1.00
C115   C     0.80985   0.37088   0.22936   0.00000  Uiso   1.00
N116   N     0.83459   0.35137   0.25583   0.00000  Uiso   1.00
F117   F     0.52769   0.32790   0.21209   0.00000  Uiso   1.00
F118   F     0.97928   0.18244   0.21285   0.00000  Uiso   1.00
F119   F     0.97223   0.32762   0.12066   0.00000  Uiso   1.00
F120   F     0.52074   0.18217   0.12085   0.00000  Uiso   1.00
C121   C     0.61807   0.32712   0.21714   0.00000  Uiso   1.00
N122   N     0.63692   0.35700   0.23853   0.00000  Uiso   1.00
C123   C     0.89055   0.17186   0.20918   0.00000  Uiso   1.00
N124   N     0.87670   0.13730   0.22601   0.00000  Uiso   1.00
C125   C     0.88184   0.32681   0.11568   0.00000  Uiso   1.00
N126   N     0.86295   0.35655   0.09411   0.00000  Uiso   1.00
C127   C     0.60947   0.17158   0.12466   0.00000  Uiso   1.00
N128   N     0.62332   0.13691   0.10809   0.00000  Uiso   1.00
C129   C     0.16495   0.75008   0.16713   0.00000  Uiso   1.00
C130   C     0.33505   0.75008   0.16620   0.00000  Uiso   1.00
C131   C     0.26566   0.60327   0.20713   0.00000  Uiso   1.00
C132   C     0.22078   0.89554   0.13667   0.00000  Uiso   1.00
C133   C     0.23432   0.60329   0.12620   0.00000  Uiso   1.00
C134   C     0.27923   0.89554   0.19665   0.00000  Uiso   1.00
C135   C     0.26510   0.55283   0.20764   0.00000  Uiso   1.00
C136   C     0.21998   0.94591   0.13680   0.00000  Uiso   1.00
C137   C     0.23491   0.55285   0.12566   0.00000  Uiso   1.00
C138   C     0.28004   0.94590   0.19650   0.00000  Uiso   1.00
C139   C     0.24995   0.75002   0.07361   0.00000  Uiso   1.00
C140   C     0.25005   0.75002   0.25972   0.00000  Uiso   1.00
C141   C     0.25001   0.52650   0.16664   0.00000  Uiso   1.00
C142   C     0.25001   0.97225   0.16664   0.00000  Uiso   1.00
C143   C     0.24999   0.75006   0.02187   0.00000  Uiso   1.00
C144   C     0.25001   0.75006   0.31146   0.00000  Uiso   1.00
C145   C     0.04856   0.79157   0.18925   0.00000  Uiso   1.00
C146   C     0.45495   0.71715   0.18959   0.00000  Uiso   1.00
C147   C     0.45140   0.79143   0.14374   0.00000  Uiso   1.00
C148   C     0.04505   0.71702   0.14390   0.00000  Uiso   1.00
C149   C     0.09446   0.78978   0.19042   0.00000  Uiso   1.00
C150   C     0.40927   0.71408   0.18793   0.00000  Uiso   1.00
C151   C     0.40549   0.78963   0.14262   0.00000  Uiso   1.00
C152   C     0.09073   0.71396   0.14560   0.00000  Uiso   1.00
C153   C     0.11633   0.75095   0.16799   0.00000  Uiso   1.00
C154   C     0.38366   0.75095   0.16532   0.00000  Uiso   1.00
C155   C     0.02399   0.75533   0.16599   0.00000  Uiso   1.00
C156   C     0.47598   0.75533   0.16722   0.00000  Uiso   1.00
Cu157  Cu    0.25000   0.79821   0.16667   0.00000  Uiso   1.00
Cu158  Cu    0.25000   0.70178   0.16667   0.00000  Uiso   1.00
H159   H     0.27623   0.53433   0.24086   0.00000  Uiso   1.00
H160   H     0.19543   0.96412   0.11381   0.00000  Uiso   1.00
H161   H     0.22376   0.53436   0.09244   0.00000  Uiso   1.00
H162   H     0.30459   0.96411   0.21948   0.00000  Uiso   1.00
N163   N     0.25000   0.62934   0.16667   0.00000  Uiso   1.00
N164   N     0.25000   0.87065   0.16667   0.00000  Uiso   1.00
O165   O     0.18573   0.79071   0.16667   0.00000  Uiso   1.00
O166   O     0.31427   0.70928   0.16666   0.00000  Uiso   1.00
O167   O     0.31427   0.79071   0.16666   0.00000  Uiso   1.00
O168   O     0.18573   0.70928   0.16667   0.00000  Uiso   1.00
O169   O     0.25000   0.79071   0.09613   0.00000  Uiso   1.00
O170   O     0.25000   0.70929   0.23720   0.00000  Uiso   1.00
O171   O     0.25000   0.79071   0.23720   0.00000  Uiso   1.00
O172   O     0.25000   0.70929   0.09613   0.00000  Uiso   1.00
C173   C     0.28354   0.62497   0.25151   0.00000  Uiso   1.00
N174   N     0.29804   0.64119   0.28786   0.00000  Uiso   1.00
C175   C     0.19015   0.87089   0.10398   0.00000  Uiso   1.00
N176   N     0.16541   0.85138   0.07752   0.00000  Uiso   1.00
C177   C     0.21633   0.62503   0.08189   0.00000  Uiso   1.00
N178   N     0.20173   0.64128   0.04560   0.00000  Uiso   1.00
C179   C     0.30985   0.87088   0.22936   0.00000  Uiso   1.00
N180   N     0.33459   0.85137   0.25583   0.00000  Uiso   1.00
F181   F     0.02769   0.82790   0.21209   0.00000  Uiso   1.00
F182   F     0.47928   0.68244   0.21285   0.00000  Uiso   1.00
F183   F     0.47223   0.82762   0.12066   0.00000  Uiso   1.00
F184   F     0.02074   0.68217   0.12085   0.00000  Uiso   1.00
C185   C     0.11807   0.82712   0.21714   0.00000  Uiso   1.00
N186   N     0.13692   0.85700   0.23853   0.00000  Uiso   1.00
C187   C     0.39055   0.67186   0.20918   0.00000  Uiso   1.00
N188   N     0.37670   0.63730   0.22601   0.00000  Uiso   1.00
C189   C     0.38184   0.82681   0.11568   0.00000  Uiso   1.00
N190   N     0.36295   0.85655   0.09411   0.00000  Uiso   1.00
C191   C     0.10947   0.67158   0.12466   0.00000  Uiso   1.00
N192   N     0.12332   0.63691   0.10809   0.00000  Uiso   1.00
C193   C     0.66495   0.75008   0.16713   0.00000  Uiso   1.00
C194   C     0.83505   0.75008   0.16620   0.00000  Uiso   1.00
C195   C     0.76566   0.60327   0.20713   0.00000  Uiso   1.00
C196   C     0.72078   0.89554   0.13667   0.00000  Uiso   1.00
C197   C     0.73432   0.60329   0.12620   0.00000  Uiso   1.00
C198   C     0.77923   0.89554   0.19665   0.00000  Uiso   1.00
C199   C     0.76510   0.55283   0.20764   0.00000  Uiso   1.00
C200   C     0.71998   0.94591   0.13680   0.00000  Uiso   1.00
C201   C     0.73491   0.55285   0.12566   0.00000  Uiso   1.00
C202   C     0.78004   0.94590   0.19650   0.00000  Uiso   1.00
C203   C     0.74995   0.75002   0.07361   0.00000  Uiso   1.00
C204   C     0.75005   0.75002   0.25972   0.00000  Uiso   1.00
C205   C     0.75001   0.52650   0.16664   0.00000  Uiso   1.00
C206   C     0.75001   0.97225   0.16664   0.00000  Uiso   1.00
C207   C     0.74999   0.75006   0.02187   0.00000  Uiso   1.00
C208   C     0.75001   0.75006   0.31146   0.00000  Uiso   1.00
C209   C     0.54856   0.79157   0.18925   0.00000  Uiso   1.00
C210   C     0.95495   0.71715   0.18959   0.00000  Uiso   1.00
C211   C     0.95140   0.79143   0.14374   0.00000  Uiso   1.00
C212   C     0.54505   0.71702   0.14390   0.00000  Uiso   1.00
C213   C     0.59446   0.78978   0.19042   0.00000  Uiso   1.00
C214   C     0.90927   0.71408   0.18793   0.00000  Uiso   1.00
C215   C     0.90549   0.78963   0.14262   0.00000  Uiso   1.00
C216   C     0.59073   0.71396   0.14560   0.00000  Uiso   1.00
C217   C     0.61633   0.75095   0.16799   0.00000  Uiso   1.00
C218   C     0.88366   0.75095   0.16532   0.00000  Uiso   1.00
C219   C     0.52399   0.75533   0.16599   0.00000  Uiso   1.00
C220   C     0.97598   0.75533   0.16722   0.00000  Uiso   1.00
Cu221  Cu    0.75000   0.79821   0.16667   0.00000  Uiso   1.00
Cu222  Cu    0.75000   0.70178   0.16667   0.00000  Uiso   1.00
H223   H     0.77623   0.53433   0.24086   0.00000  Uiso   1.00
H224   H     0.69543   0.96412   0.11381   0.00000  Uiso   1.00
H225   H     0.72376   0.53436   0.09244   0.00000  Uiso   1.00
H226   H     0.80459   0.96411   0.21948   0.00000  Uiso   1.00
N227   N     0.75000   0.62934   0.16667   0.00000  Uiso   1.00
N228   N     0.75000   0.87065   0.16667   0.00000  Uiso   1.00
O229   O     0.68573   0.79071   0.16667   0.00000  Uiso   1.00
O230   O     0.81427   0.70928   0.16666   0.00000  Uiso   1.00
O231   O     0.81427   0.79071   0.16666   0.00000  Uiso   1.00
O232   O     0.68573   0.70928   0.16667   0.00000  Uiso   1.00
O233   O     0.75000   0.79071   0.09613   0.00000  Uiso   1.00
O234   O     0.75000   0.70929   0.23720   0.00000  Uiso   1.00
O235   O     0.75000   0.79071   0.23720   0.00000  Uiso   1.00
O236   O     0.75000   0.70929   0.09613   0.00000  Uiso   1.00
C237   C     0.78354   0.62497   0.25151   0.00000  Uiso   1.00
N238   N     0.79804   0.64119   0.28786   0.00000  Uiso   1.00
C239   C     0.69015   0.87089   0.10398   0.00000  Uiso   1.00
N240   N     0.66541   0.85138   0.07752   0.00000  Uiso   1.00
C241   C     0.71633   0.62503   0.08189   0.00000  Uiso   1.00
N242   N     0.70173   0.64128   0.04560   0.00000  Uiso   1.00
C243   C     0.80985   0.87088   0.22936   0.00000  Uiso   1.00
N244   N     0.83459   0.85137   0.25583   0.00000  Uiso   1.00
F245   F     0.52769   0.82790   0.21209   0.00000  Uiso   1.00
F246   F     0.97928   0.68244   0.21285   0.00000  Uiso   1.00
F247   F     0.97223   0.82762   0.12066   0.00000  Uiso   1.00
F248   F     0.52074   0.68217   0.12085   0.00000  Uiso   1.00
C249   C     0.61807   0.82712   0.21714   0.00000  Uiso   1.00
N250   N     0.63692   0.85700   0.23853   0.00000  Uiso   1.00
C251   C     0.89055   0.67186   0.20918   0.00000  Uiso   1.00
N252   N     0.87670   0.63730   0.22601   0.00000  Uiso   1.00
C253   C     0.88184   0.82681   0.11568   0.00000  Uiso   1.00
N254   N     0.86295   0.85655   0.09411   0.00000  Uiso   1.00
C255   C     0.60947   0.67158   0.12466   0.00000  Uiso   1.00
N256   N     0.62332   0.63691   0.10809   0.00000  Uiso   1.00
C257   C     0.16495   0.25008   0.50047   0.00000  Uiso   1.00
C258   C     0.33505   0.25008   0.49953   0.00000  Uiso   1.00
C259   C     0.26566   0.10327   0.54046   0.00000  Uiso   1.00
C260   C     0.22078   0.39554   0.47000   0.00000  Uiso   1.00
C261   C     0.23432   0.10329   0.45953   0.00000  Uiso   1.00
C262   C     0.27923   0.39554   0.52999   0.00000  Uiso   1.00
C263   C     0.26510   0.05283   0.54098   0.00000  Uiso   1.00
C264   C     0.21998   0.44591   0.47013   0.00000  Uiso   1.00
C265   C     0.23491   0.05285   0.45899   0.00000  Uiso   1.00
C266   C     0.28004   0.44590   0.52984   0.00000  Uiso   1.00
C267   C     0.24995   0.25002   0.40695   0.00000  Uiso   1.00
C268   C     0.25005   0.25002   0.59305   0.00000  Uiso   1.00
C269   C     0.25001   0.02650   0.49998   0.00000  Uiso   1.00
C270   C     0.25001   0.47225   0.49998   0.00000  Uiso   1.00
C271   C     0.24999   0.25006   0.35521   0.00000  Uiso   1.00
C272   C     0.25001   0.25006   0.64479   0.00000  Uiso   1.00
C273   C     0.04856   0.29157   0.52259   0.00000  Uiso   1.00
C274   C     0.45495   0.21715   0.52292   0.00000  Uiso   1.00
C275   C     0.45140   0.29143   0.47708   0.00000  Uiso   1.00
C276   C     0.04505   0.21702   0.47723   0.00000  Uiso   1.00
C277   C     0.09446   0.28978   0.52375   0.00000  Uiso   1.00
C278   C     0.40927   0.21408   0.52126   0.00000  Uiso   1.00
C279   C     0.40549   0.28963   0.47595   0.00000  Uiso   1.00
C280   C     0.09073   0.21396   0.47894   0.00000  Uiso   1.00
C281   C     0.11633   0.25095   0.50132   0.00000  Uiso   1.00
C282   C     0.38366   0.25095   0.49865   0.00000  Uiso   1.00
C283   C     0.02399   0.25533   0.49933   0.00000  Uiso   1.00
C284   C     0.47598   0.25533   0.50056   0.00000  Uiso   1.00
Cu285  Cu    0.25000   0.29821   0.50000   0.00000  Uiso   1.00
Cu286  Cu    0.25000   0.20178   0.50000   0.00000  Uiso   1.00
H287   H     0.27623   0.03433   0.57420   0.00000  Uiso   1.00
H288   H     0.19543   0.46412   0.44714   0.00000  Uiso   1.00
H289   H     0.22376   0.03436   0.42577   0.00000  Uiso   1.00
H290   H     0.30459   0.46411   0.55281   0.00000  Uiso   1.00
N291   N     0.25000   0.12934   0.50000   0.00000  Uiso   1.00
N292   N     0.25000   0.37065   0.50000   0.00000  Uiso   1.00
O293   O     0.18573   0.29071   0.50000   0.00000  Uiso   1.00
O294   O     0.31427   0.20928   0.50000   0.00000  Uiso   1.00
O295   O     0.31427   0.29071   0.50000   0.00000  Uiso   1.00
O296   O     0.18573   0.20928   0.50000   0.00000  Uiso   1.00
O297   O     0.25000   0.29071   0.42946   0.00000  Uiso   1.00
O298   O     0.25000   0.20929   0.57054   0.00000  Uiso   1.00
O299   O     0.25000   0.29071   0.57054   0.00000  Uiso   1.00
O300   O     0.25000   0.20929   0.42946   0.00000  Uiso   1.00
C301   C     0.28354   0.12497   0.58484   0.00000  Uiso   1.00
N302   N     0.29804   0.14119   0.62119   0.00000  Uiso   1.00
C303   C     0.19015   0.37089   0.43731   0.00000  Uiso   1.00
N304   N     0.16541   0.35138   0.41085   0.00000  Uiso   1.00
C305   C     0.21633   0.12503   0.41522   0.00000  Uiso   1.00
N306   N     0.20173   0.14128   0.37894   0.00000  Uiso   1.00
C307   C     0.30985   0.37088   0.56269   0.00000  Uiso   1.00
N308   N     0.33459   0.35137   0.58916   0.00000  Uiso   1.00
F309   F     0.02769   0.32790   0.54542   0.00000  Uiso   1.00
F310   F     0.47928   0.18244   0.54619   0.00000  Uiso   1.00
F311   F     0.47223   0.32762   0.45399   0.00000  Uiso   1.00
F312   F     0.02074   0.18217   0.45418   0.00000  Uiso   1.00
C313   C     0.11807   0.32712   0.55048   0.00000  Uiso   1.00
N314   N     0.13692   0.35700   0.57187   0.00000  Uiso   1.00
C315   C     0.39055   0.17186   0.54251   0.00000  Uiso   1.00
N316   N     0.37670   0.13730   0.55934   0.00000  Uiso   1.00
C317   C     0.38184   0.32681   0.44901   0.00000  Uiso   1.00
N318   N     0.36295   0.35655   0.42744   0.00000  Uiso   1.00
C319   C     0.10947   0.17158   0.45800   0.00000  Uiso   1.00
N320   N     0.12332   0.13691   0.44143   0.00000  Uiso   1.00
C321   C     0.66495   0.25008   0.50047   0.00000  Uiso   1.00
C322   C     0.83505   0.25008   0.49953   0.00000  Uiso   1.00
C323   C     0.76566   0.10327   0.54046   0.00000  Uiso   1.00
C324   C     0.72078   0.39554   0.47000   0.00000  Uiso   1.00
C325   C     0.73432   0.10329   0.45953   0.00000  Uiso   1.00
C326   C     0.77923   0.39554   0.52999   0.00000  Uiso   1.00
C327   C     0.76510   0.05283   0.54098   0.00000  Uiso   1.00
C328   C     0.71998   0.44591   0.47013   0.00000  Uiso   1.00
C329   C     0.73491   0.05285   0.45899   0.00000  Uiso   1.00
C330   C     0.78004   0.44590   0.52984   0.00000  Uiso   1.00
C331   C     0.74995   0.25002   0.40695   0.00000  Uiso   1.00
C332   C     0.75005   0.25002   0.59305   0.00000  Uiso   1.00
C333   C     0.75001   0.02650   0.49998   0.00000  Uiso   1.00
C334   C     0.75001   0.47225   0.49998   0.00000  Uiso   1.00
C335   C     0.74999   0.25006   0.35521   0.00000  Uiso   1.00
C336   C     0.75001   0.25006   0.64479   0.00000  Uiso   1.00
C337   C     0.54856   0.29157   0.52259   0.00000  Uiso   1.00
C338   C     0.95495   0.21715   0.52292   0.00000  Uiso   1.00
C339   C     0.95140   0.29143   0.47708   0.00000  Uiso   1.00
C340   C     0.54505   0.21702   0.47723   0.00000  Uiso   1.00
C341   C     0.59446   0.28978   0.52375   0.00000  Uiso   1.00
C342   C     0.90927   0.21408   0.52126   0.00000  Uiso   1.00
C343   C     0.90549   0.28963   0.47595   0.00000  Uiso   1.00
C344   C     0.59073   0.21396   0.47894   0.00000  Uiso   1.00
C345   C     0.61633   0.25095   0.50132   0.00000  Uiso   1.00
C346   C     0.88366   0.25095   0.49865   0.00000  Uiso   1.00
C347   C     0.52399   0.25533   0.49933   0.00000  Uiso   1.00
C348   C     0.97598   0.25533   0.50056   0.00000  Uiso   1.00
Cu349  Cu    0.75000   0.29821   0.50000   0.00000  Uiso   1.00
Cu350  Cu    0.75000   0.20178   0.50000   0.00000  Uiso   1.00
H351   H     0.77623   0.03433   0.57420   0.00000  Uiso   1.00
H352   H     0.69543   0.46412   0.44714   0.00000  Uiso   1.00
H353   H     0.72376   0.03436   0.42577   0.00000  Uiso   1.00
H354   H     0.80459   0.46411   0.55281   0.00000  Uiso   1.00
N355   N     0.75000   0.12934   0.50000   0.00000  Uiso   1.00
N356   N     0.75000   0.37065   0.50000   0.00000  Uiso   1.00
O357   O     0.68573   0.29071   0.50000   0.00000  Uiso   1.00
O358   O     0.81427   0.20928   0.50000   0.00000  Uiso   1.00
O359   O     0.81427   0.29071   0.50000   0.00000  Uiso   1.00
O360   O     0.68573   0.20928   0.50000   0.00000  Uiso   1.00
O361   O     0.75000   0.29071   0.42946   0.00000  Uiso   1.00
O362   O     0.75000   0.20929   0.57054   0.00000  Uiso   1.00
O363   O     0.75000   0.29071   0.57054   0.00000  Uiso   1.00
O364   O     0.75000   0.20929   0.42946   0.00000  Uiso   1.00
C365   C     0.78354   0.12497   0.58484   0.00000  Uiso   1.00
N366   N     0.79804   0.14119   0.62119   0.00000  Uiso   1.00
C367   C     0.69015   0.37089   0.43731   0.00000  Uiso   1.00
N368   N     0.66541   0.35138   0.41085   0.00000  Uiso   1.00
C369   C     0.71633   0.12503   0.41522   0.00000  Uiso   1.00
N370   N     0.70173   0.14128   0.37894   0.00000  Uiso   1.00
C371   C     0.80985   0.37088   0.56269   0.00000  Uiso   1.00
N372   N     0.83459   0.35137   0.58916   0.00000  Uiso   1.00
F373   F     0.52769   0.32790   0.54542   0.00000  Uiso   1.00
F374   F     0.97928   0.18244   0.54619   0.00000  Uiso   1.00
F375   F     0.97223   0.32762   0.45399   0.00000  Uiso   1.00
F376   F     0.52074   0.18217   0.45418   0.00000  Uiso   1.00
C377   C     0.61807   0.32712   0.55048   0.00000  Uiso   1.00
N378   N     0.63692   0.35700   0.57187   0.00000  Uiso   1.00
C379   C     0.89055   0.17186   0.54251   0.00000  Uiso   1.00
N380   N     0.87670   0.13730   0.55934   0.00000  Uiso   1.00
C381   C     0.88184   0.32681   0.44901   0.00000  Uiso   1.00
N382   N     0.86295   0.35655   0.42744   0.00000  Uiso   1.00
C383   C     0.60947   0.17158   0.45800   0.00000  Uiso   1.00
N384   N     0.62332   0.13691   0.44143   0.00000  Uiso   1.00
C385   C     0.16495   0.75008   0.50047   0.00000  Uiso   1.00
C386   C     0.33505   0.75008   0.49953   0.00000  Uiso   1.00
C387   C     0.26566   0.60327   0.54046   0.00000  Uiso   1.00
C388   C     0.22078   0.89554   0.47000   0.00000  Uiso   1.00
C389   C     0.23432   0.60329   0.45953   0.00000  Uiso   1.00
C390   C     0.27923   0.89554   0.52999   0.00000  Uiso   1.00
C391   C     0.26510   0.55283   0.54098   0.00000  Uiso   1.00
C392   C     0.21998   0.94591   0.47013   0.00000  Uiso   1.00
C393   C     0.23491   0.55285   0.45899   0.00000  Uiso   1.00
C394   C     0.28004   0.94590   0.52984   0.00000  Uiso   1.00
C395   C     0.24995   0.75002   0.40695   0.00000  Uiso   1.00
C396   C     0.25005   0.75002   0.59305   0.00000  Uiso   1.00
C397   C     0.25001   0.52650   0.49998   0.00000  Uiso   1.00
C398   C     0.25001   0.97225   0.49998   0.00000  Uiso   1.00
C399   C     0.24999   0.75006   0.35521   0.00000  Uiso   1.00
C400   C     0.25001   0.75006   0.64479   0.00000  Uiso   1.00
C401   C     0.04856   0.79157   0.52259   0.00000  Uiso   1.00
C402   C     0.45495   0.71715   0.52292   0.00000  Uiso   1.00
C403   C     0.45140   0.79143   0.47708   0.00000  Uiso   1.00
C404   C     0.04505   0.71702   0.47723   0.00000  Uiso   1.00
C405   C     0.09446   0.78978   0.52375   0.00000  Uiso   1.00
C406   C     0.40927   0.71408   0.52126   0.00000  Uiso   1.00
C407   C     0.40549   0.78963   0.47595   0.00000  Uiso   1.00
C408   C     0.09073   0.71396   0.47894   0.00000  Uiso   1.00
C409   C     0.11633   0.75095   0.50132   0.00000  Uiso   1.00
C410   C     0.38366   0.75095   0.49865   0.00000  Uiso   1.00
C411   C     0.02399   0.75533   0.49933   0.00000  Uiso   1.00
C412   C     0.47598   0.75533   0.50056   0.00000  Uiso   1.00
Cu413  Cu    0.25000   0.79821   0.50000   0.00000  Uiso   1.00
Cu414  Cu    0.25000   0.70178   0.50000   0.00000  Uiso   1.00
H415   H     0.27623   0.53433   0.57420   0.00000  Uiso   1.00
H416   H     0.19543   0.96412   0.44714   0.00000  Uiso   1.00
H417   H     0.22376   0.53436   0.42577   0.00000  Uiso   1.00
H418   H     0.30459   0.96411   0.55281   0.00000  Uiso   1.00
N419   N     0.25000   0.62934   0.50000   0.00000  Uiso   1.00
N420   N     0.25000   0.87065   0.50000   0.00000  Uiso   1.00
O421   O     0.18573   0.79071   0.50000   0.00000  Uiso   1.00
O422   O     0.31427   0.70928   0.50000   0.00000  Uiso   1.00
O423   O     0.31427   0.79071   0.50000   0.00000  Uiso   1.00
O424   O     0.18573   0.70928   0.50000   0.00000  Uiso   1.00
O425   O     0.25000   0.79071   0.42946   0.00000  Uiso   1.00
O426   O     0.25000   0.70929   0.57054   0.00000  Uiso   1.00
O427   O     0.25000   0.79071   0.57054   0.00000  Uiso   1.00
O428   O     0.25000   0.70929   0.42946   0.00000  Uiso   1.00
C429   C     0.28354   0.62497   0.58484   0.00000  Uiso   1.00
N430   N     0.29804   0.64119   0.62119   0.00000  Uiso   1.00
C431   C     0.19015   0.87089   0.43731   0.00000  Uiso   1.00
N432   N     0.16541   0.85138   0.41085   0.00000  Uiso   1.00
C433   C     0.21633   0.62503   0.41522   0.00000  Uiso   1.00
N434   N     0.20173   0.64128   0.37894   0.00000  Uiso   1.00
C435   C     0.30985   0.87088   0.56269   0.00000  Uiso   1.00
N436   N     0.33459   0.85137   0.58916   0.00000  Uiso   1.00
F437   F     0.02769   0.82790   0.54542   0.00000  Uiso   1.00
F438   F     0.47928   0.68244   0.54619   0.00000  Uiso   1.00
F439   F     0.47223   0.82762   0.45399   0.00000  Uiso   1.00
F440   F     0.02074   0.68217   0.45418   0.00000  Uiso   1.00
C441   C     0.11807   0.82712   0.55048   0.00000  Uiso   1.00
N442   N     0.13692   0.85700   0.57187   0.00000  Uiso   1.00
C443   C     0.39055   0.67186   0.54251   0.00000  Uiso   1.00
N444   N     0.37670   0.63730   0.55934   0.00000  Uiso   1.00
C445   C     0.38184   0.82681   0.44901   0.00000  Uiso   1.00
N446   N     0.36295   0.85655   0.42744   0.00000  Uiso   1.00
C447   C     0.10947   0.67158   0.45800   0.00000  Uiso   1.00
N448   N     0.12332   0.63691   0.44143   0.00000  Uiso   1.00
C449   C     0.66495   0.75008   0.50047   0.00000  Uiso   1.00
C450   C     0.83505   0.75008   0.49953   0.00000  Uiso   1.00
C451   C     0.76566   0.60327   0.54046   0.00000  Uiso   1.00
C452   C     0.72078   0.89554   0.47000   0.00000  Uiso   1.00
C453   C     0.73432   0.60329   0.45953   0.00000  Uiso   1.00
C454   C     0.77923   0.89554   0.52999   0.00000  Uiso   1.00
C455   C     0.76510   0.55283   0.54098   0.00000  Uiso   1.00
C456   C     0.71998   0.94591   0.47013   0.00000  Uiso   1.00
C457   C     0.73491   0.55285   0.45899   0.00000  Uiso   1.00
C458   C     0.78004   0.94590   0.52984   0.00000  Uiso   1.00
C459   C     0.74995   0.75002   0.40695   0.00000  Uiso   1.00
C460   C     0.75005   0.75002   0.59305   0.00000  Uiso   1.00
C461   C     0.75001   0.52650   0.49998   0.00000  Uiso   1.00
C462   C     0.75001   0.97225   0.49998   0.00000  Uiso   1.00
C463   C     0.74999   0.75006   0.35521   0.00000  Uiso   1.00
C464   C     0.75001   0.75006   0.64479   0.00000  Uiso   1.00
C465   C     0.54856   0.79157   0.52259   0.00000  Uiso   1.00
C466   C     0.95495   0.71715   0.52292   0.00000  Uiso   1.00
C467   C     0.95140   0.79143   0.47708   0.00000  Uiso   1.00
C468   C     0.54505   0.71702   0.47723   0.00000  Uiso   1.00
C469   C     0.59446   0.78978   0.52375   0.00000  Uiso   1.00
C470   C     0.90927   0.71408   0.52126   0.00000  Uiso   1.00
C471   C     0.90549   0.78963   0.47595   0.00000  Uiso   1.00
C472   C     0.59073   0.71396   0.47894   0.00000  Uiso   1.00
C473   C     0.61633   0.75095   0.50132   0.00000  Uiso   1.00
C474   C     0.88366   0.75095   0.49865   0.00000  Uiso   1.00
C475   C     0.52399   0.75533   0.49933   0.00000  Uiso   1.00
C476   C     0.97598   0.75533   0.50056   0.00000  Uiso   1.00
Cu477  Cu    0.75000   0.79821   0.50000   0.00000  Uiso   1.00
Cu478  Cu    0.75000   0.70178   0.50000   0.00000  Uiso   1.00
H479   H     0.77623   0.53433   0.57420   0.00000  Uiso   1.00
H480   H     0.69543   0.96412   0.44714   0.00000  Uiso   1.00
H481   H     0.72376   0.53436   0.42577   0.00000  Uiso   1.00
H482   H     0.80459   0.96411   0.55281   0.00000  Uiso   1.00
N483   N     0.75000   0.62934   0.50000   0.00000  Uiso   1.00
N484   N     0.75000   0.87065   0.50000   0.00000  Uiso   1.00
O485   O     0.68573   0.79071   0.50000   0.00000  Uiso   1.00
O486   O     0.81427   0.70928   0.50000   0.00000  Uiso   1.00
O487   O     0.81427   0.79071   0.50000   0.00000  Uiso   1.00
O488   O     0.68573   0.70928   0.50000   0.00000  Uiso   1.00
O489   O     0.75000   0.79071   0.42946   0.00000  Uiso   1.00
O490   O     0.75000   0.70929   0.57054   0.00000  Uiso   1.00
O491   O     0.75000   0.79071   0.57054   0.00000  Uiso   1.00
O492   O     0.75000   0.70929   0.42946   0.00000  Uiso   1.00
C493   C     0.78354   0.62497   0.58484   0.00000  Uiso   1.00
N494   N     0.79804   0.64119   0.62119   0.00000  Uiso   1.00
C495   C     0.69015   0.87089   0.43731   0.00000  Uiso   1.00
N496   N     0.66541   0.85138   0.41085   0.00000  Uiso   1.00
C497   C     0.71633   0.62503   0.41522   0.00000  Uiso   1.00
N498   N     0.70173   0.64128   0.37894   0.00000  Uiso   1.00
C499   C     0.80985   0.87088   0.56269   0.00000  Uiso   1.00
N500   N     0.83459   0.85137   0.58916   0.00000  Uiso   1.00
F501   F     0.52769   0.82790   0.54542   0.00000  Uiso   1.00
F502   F     0.97928   0.68244   0.54619   0.00000  Uiso   1.00
F503   F     0.97223   0.82762   0.45399   0.00000  Uiso   1.00
F504   F     0.52074   0.68217   0.45418   0.00000  Uiso   1.00
C505   C     0.61807   0.82712   0.55048   0.00000  Uiso   1.00
N506   N     0.63692   0.85700   0.57187   0.00000  Uiso   1.00
C507   C     0.89055   0.67186   0.54251   0.00000  Uiso   1.00
N508   N     0.87670   0.63730   0.55934   0.00000  Uiso   1.00
C509   C     0.88184   0.82681   0.44901   0.00000  Uiso   1.00
N510   N     0.86295   0.85655   0.42744   0.00000  Uiso   1.00
C511   C     0.60947   0.67158   0.45800   0.00000  Uiso   1.00
N512   N     0.62332   0.63691   0.44143   0.00000  Uiso   1.00
C513   C     0.16495   0.25008   0.83380   0.00000  Uiso   1.00
C514   C     0.33505   0.25008   0.83287   0.00000  Uiso   1.00
C515   C     0.26566   0.10327   0.87380   0.00000  Uiso   1.00
C516   C     0.22078   0.39554   0.80334   0.00000  Uiso   1.00
C517   C     0.23432   0.10329   0.79287   0.00000  Uiso   1.00
C518   C     0.27923   0.39554   0.86332   0.00000  Uiso   1.00
C519   C     0.26510   0.05283   0.87431   0.00000  Uiso   1.00
C520   C     0.21998   0.44591   0.80346   0.00000  Uiso   1.00
C521   C     0.23491   0.05285   0.79232   0.00000  Uiso   1.00
C522   C     0.28004   0.44590   0.86317   0.00000  Uiso   1.00
C523   C     0.24995   0.25002   0.74028   0.00000  Uiso   1.00
C524   C     0.25005   0.25002   0.92639   0.00000  Uiso   1.00
C525   C     0.25001   0.02650   0.83331   0.00000  Uiso   1.00
C526   C     0.25001   0.47225   0.83331   0.00000  Uiso   1.00
C527   C     0.24999   0.25006   0.68854   0.00000  Uiso   1.00
C528   C     0.25001   0.25006   0.97813   0.00000  Uiso   1.00
C529   C     0.04856   0.29157   0.85592   0.00000  Uiso   1.00
C530   C     0.45495   0.21715   0.85625   0.00000  Uiso   1.00
C531   C     0.45140   0.29143   0.81041   0.00000  Uiso   1.00
C532   C     0.04505   0.21702   0.81056   0.00000  Uiso   1.00
C533   C     0.09446   0.28978   0.85709   0.00000  Uiso   1.00
C534   C     0.40927   0.21408   0.85459   0.00000  Uiso   1.00
C535   C     0.40549   0.28963   0.80929   0.00000  Uiso   1.00
C536   C     0.09073   0.21396   0.81227   0.00000  Uiso   1.00
C537   C     0.11633   0.25095   0.83465   0.00000  Uiso   1.00
C538   C     0.38366   0.25095   0.83198   0.00000  Uiso   1.00
C539   C     0.02399   0.25533   0.83266   0.00000  Uiso   1.00
C540   C     0.47598   0.25533   0.83389   0.00000  Uiso   1.00
Cu541  Cu    0.25000   0.29821   0.83333   0.00000  Uiso   1.00
Cu542  Cu    0.25000   0.20178   0.83333   0.00000  Uiso   1.00
H543   H     0.27623   0.03433   0.90753   0.00000  Uiso   1.00
H544   H     0.19543   0.46412   0.78048   0.00000  Uiso   1.00
H545   H     0.22376   0.03436   0.75911   0.00000  Uiso   1.00
H546   H     0.30459   0.46411   0.88615   0.00000  Uiso   1.00
N547   N     0.25000   0.12934   0.83333   0.00000  Uiso   1.00
N548   N     0.25000   0.37065   0.83333   0.00000  Uiso   1.00
O549   O     0.18573   0.29071   0.83334   0.00000  Uiso   1.00
O550   O     0.31427   0.20928   0.83333   0.00000  Uiso   1.00
O551   O     0.31427   0.29071   0.83333   0.00000  Uiso   1.00
O552   O     0.18573   0.20928   0.83334   0.00000  Uiso   1.00
O553   O     0.25000   0.29071   0.76280   0.00000  Uiso   1.00
O554   O     0.25000   0.20929   0.90387   0.00000  Uiso   1.00
O555   O     0.25000   0.29071   0.90387   0.00000  Uiso   1.00
O556   O     0.25000   0.20929   0.76280   0.00000  Uiso   1.00
C557   C     0.28354   0.12497   0.91817   0.00000  Uiso   1.00
N558   N     0.29804   0.14119   0.95452   0.00000  Uiso   1.00
C559   C     0.19015   0.37089   0.77064   0.00000  Uiso   1.00
N560   N     0.16541   0.35138   0.74418   0.00000  Uiso   1.00
C561   C     0.21633   0.12503   0.74856   0.00000  Uiso   1.00
N562   N     0.20173   0.14128   0.71227   0.00000  Uiso   1.00
C563   C     0.30985   0.37088   0.89602   0.00000  Uiso   1.00
N564   N     0.33459   0.35137   0.92249   0.00000  Uiso   1.00
F565   F     0.02769   0.32790   0.87876   0.00000  Uiso   1.00
F566   F     0.47928   0.18244   0.87952   0.00000  Uiso   1.00
F567   F     0.47223   0.32762   0.78733   0.00000  Uiso   1.00
F568   F     0.02074   0.18217   0.78752   0.00000  Uiso   1.00
C569   C     0.11807   0.32712   0.88381   0.00000  Uiso   1.00
N570   N     0.13692   0.35700   0.90520   0.00000  Uiso   1.00
C571   C     0.39055   0.17186   0.87584   0.00000  Uiso   1.00
N572   N     0.37670   0.13730   0.89267   0.00000  Uiso   1.00
C573   C     0.38184   0.32681   0.78234   0.00000  Uiso   1.00
N574   N     0.36295   0.35655   0.76077   0.00000  Uiso   1.00
C575   C     0.10947   0.17158   0.79133   0.00000  Uiso   1.00
N576   N     0.12332   0.13691   0.77476   0.00000  Uiso   1.00
C577   C     0.66495   0.25008   0.83380   0.00000  Uiso   1.00
C578   C     0.83505   0.25008   0.83287   0.00000  Uiso   1.00
C579   C     0.76566   0.10327   0.87380   0.00000  Uiso   1.00
C580   C     0.72078   0.39554   0.80334   0.00000  Uiso   1.00
C581   C     0.73432   0.10329   0.79287   0.00000  Uiso   1.00
C582   C     0.77923   0.39554   0.86332   0.00000  Uiso   1.00
C583   C     0.76510   0.05283   0.87431   0.00000  Uiso   1.00
C584   C     0.71998   0.44591   0.80346   0.00000  Uiso   1.00
C585   C     0.73491   0.05285   0.79232   0.00000  Uiso   1.00
C586   C     0.78004   0.44590   0.86317   0.00000  Uiso   1.00
C587   C     0.74995   0.25002   0.74028   0.00000  Uiso   1.00
C588   C     0.75005   0.25002   0.92639   0.00000  Uiso   1.00
C589   C     0.75001   0.02650   0.83331   0.00000  Uiso   1.00
C590   C     0.75001   0.47225   0.83331   0.00000  Uiso   1.00
C591   C     0.74999   0.25006   0.68854   0.00000  Uiso   1.00
C592   C     0.75001   0.25006   0.97813   0.00000  Uiso   1.00
C593   C     0.54856   0.29157   0.85592   0.00000  Uiso   1.00
C594   C     0.95495   0.21715   0.85625   0.00000  Uiso   1.00
C595   C     0.95140   0.29143   0.81041   0.00000  Uiso   1.00
C596   C     0.54505   0.21702   0.81056   0.00000  Uiso   1.00
C597   C     0.59446   0.28978   0.85709   0.00000  Uiso   1.00
C598   C     0.90927   0.21408   0.85459   0.00000  Uiso   1.00
C599   C     0.90549   0.28963   0.80929   0.00000  Uiso   1.00
C600   C     0.59073   0.21396   0.81227   0.00000  Uiso   1.00
C601   C     0.61633   0.25095   0.83465   0.00000  Uiso   1.00
C602   C     0.88366   0.25095   0.83198   0.00000  Uiso   1.00
C603   C     0.52399   0.25533   0.83266   0.00000  Uiso   1.00
C604   C     0.97598   0.25533   0.83389   0.00000  Uiso   1.00
Cu605  Cu    0.75000   0.29821   0.83333   0.00000  Uiso   1.00
Cu606  Cu    0.75000   0.20178   0.83333   0.00000  Uiso   1.00
H607   H     0.77623   0.03433   0.90753   0.00000  Uiso   1.00
H608   H     0.69543   0.46412   0.78048   0.00000  Uiso   1.00
H609   H     0.72376   0.03436   0.75911   0.00000  Uiso   1.00
H610   H     0.80459   0.46411   0.88615   0.00000  Uiso   1.00
N611   N     0.75000   0.12934   0.83333   0.00000  Uiso   1.00
N612   N     0.75000   0.37065   0.83333   0.00000  Uiso   1.00
O613   O     0.68573   0.29071   0.83334   0.00000  Uiso   1.00
O614   O     0.81427   0.20928   0.83333   0.00000  Uiso   1.00
O615   O     0.81427   0.29071   0.83333   0.00000  Uiso   1.00
O616   O     0.68573   0.20928   0.83334   0.00000  Uiso   1.00
O617   O     0.75000   0.29071   0.76280   0.00000  Uiso   1.00
O618   O     0.75000   0.20929   0.90387   0.00000  Uiso   1.00
O619   O     0.75000   0.29071   0.90387   0.00000  Uiso   1.00
O620   O     0.75000   0.20929   0.76280   0.00000  Uiso   1.00
C621   C     0.78354   0.12497   0.91817   0.00000  Uiso   1.00
N622   N     0.79804   0.14119   0.95452   0.00000  Uiso   1.00
C623   C     0.69015   0.37089   0.77064   0.00000  Uiso   1.00
N624   N     0.66541   0.35138   0.74418   0.00000  Uiso   1.00
C625   C     0.71633   0.12503   0.74856   0.00000  Uiso   1.00
N626   N     0.70173   0.14128   0.71227   0.00000  Uiso   1.00
C627   C     0.80985   0.37088   0.89602   0.00000  Uiso   1.00
N628   N     0.83459   0.35137   0.92249   0.00000  Uiso   1.00
F629   F     0.52769   0.32790   0.87876   0.00000  Uiso   1.00
F630   F     0.97928   0.18244   0.87952   0.00000  Uiso   1.00
F631   F     0.97223   0.32762   0.78733   0.00000  Uiso   1.00
F632   F     0.52074   0.18217   0.78752   0.00000  Uiso   1.00
C633   C     0.61807   0.32712   0.88381   0.00000  Uiso   1.00
N634   N     0.63692   0.35700   0.90520   0.00000  Uiso   1.00
C635   C     0.89055   0.17186   0.87584   0.00000  Uiso   1.00
N636   N     0.87670   0.13730   0.89267   0.00000  Uiso   1.00
C637   C     0.88184   0.32681   0.78234   0.00000  Uiso   1.00
N638   N     0.86295   0.35655   0.76077   0.00000  Uiso   1.00
C639   C     0.60947   0.17158   0.79133   0.00000  Uiso   1.00
N640   N     0.62332   0.13691   0.77476   0.00000  Uiso   1.00
C641   C     0.16495   0.75008   0.83380   0.00000  Uiso   1.00
C642   C     0.33505   0.75008   0.83287   0.00000  Uiso   1.00
C643   C     0.26566   0.60327   0.87380   0.00000  Uiso   1.00
C644   C     0.22078   0.89554   0.80334   0.00000  Uiso   1.00
C645   C     0.23432   0.60329   0.79287   0.00000  Uiso   1.00
C646   C     0.27923   0.89554   0.86332   0.00000  Uiso   1.00
C647   C     0.26510   0.55283   0.87431   0.00000  Uiso   1.00
C648   C     0.21998   0.94591   0.80346   0.00000  Uiso   1.00
C649   C     0.23491   0.55285   0.79232   0.00000  Uiso   1.00
C650   C     0.28004   0.94590   0.86317   0.00000  Uiso   1.00
C651   C     0.24995   0.75002   0.74028   0.00000  Uiso   1.00
C652   C     0.25005   0.75002   0.92639   0.00000  Uiso   1.00
C653   C     0.25001   0.52650   0.83331   0.00000  Uiso   1.00
C654   C     0.25001   0.97225   0.83331   0.00000  Uiso   1.00
C655   C     0.24999   0.75006   0.68854   0.00000  Uiso   1.00
C656   C     0.25001   0.75006   0.97813   0.00000  Uiso   1.00
C657   C     0.04856   0.79157   0.85592   0.00000  Uiso   1.00
C658   C     0.45495   0.71715   0.85625   0.00000  Uiso   1.00
C659   C     0.45140   0.79143   0.81041   0.00000  Uiso   1.00
C660   C     0.04505   0.71702   0.81056   0.00000  Uiso   1.00
C661   C     0.09446   0.78978   0.85709   0.00000  Uiso   1.00
C662   C     0.40927   0.71408   0.85459   0.00000  Uiso   1.00
C663   C     0.40549   0.78963   0.80929   0.00000  Uiso   1.00
C664   C     0.09073   0.71396   0.81227   0.00000  Uiso   1.00
C665   C     0.11633   0.75095   0.83465   0.00000  Uiso   1.00
C666   C     0.38366   0.75095   0.83198   0.00000  Uiso   1.00
C667   C     0.02399   0.75533   0.83266   0.00000  Uiso   1.00
C668   C     0.47598   0.75533   0.83389   0.00000  Uiso   1.00
Cu669  Cu    0.25000   0.79821   0.83333   0.00000  Uiso   1.00
Cu670  Cu    0.25000   0.70178   0.83333   0.00000  Uiso   1.00
H671   H     0.27623   0.53433   0.90753   0.00000  Uiso   1.00
H672   H     0.19543   0.96412   0.78048   0.00000  Uiso   1.00
H673   H     0.22376   0.53436   0.75911   0.00000  Uiso   1.00
H674   H     0.30459   0.96411   0.88615   0.00000  Uiso   1.00
N675   N     0.25000   0.62934   0.83333   0.00000  Uiso   1.00
N676   N     0.25000   0.87065   0.83333   0.00000  Uiso   1.00
O677   O     0.18573   0.79071   0.83334   0.00000  Uiso   1.00
O678   O     0.31427   0.70928   0.83333   0.00000  Uiso   1.00
O679   O     0.31427   0.79071   0.83333   0.00000  Uiso   1.00
O680   O     0.18573   0.70928   0.83334   0.00000  Uiso   1.00
O681   O     0.25000   0.79071   0.76280   0.00000  Uiso   1.00
O682   O     0.25000   0.70929   0.90387   0.00000  Uiso   1.00
O683   O     0.25000   0.79071   0.90387   0.00000  Uiso   1.00
O684   O     0.25000   0.70929   0.76280   0.00000  Uiso   1.00
C685   C     0.28354   0.62497   0.91817   0.00000  Uiso   1.00
N686   N     0.29804   0.64119   0.95452   0.00000  Uiso   1.00
C687   C     0.19015   0.87089   0.77064   0.00000  Uiso   1.00
N688   N     0.16541   0.85138   0.74418   0.00000  Uiso   1.00
C689   C     0.21633   0.62503   0.74856   0.00000  Uiso   1.00
N690   N     0.20173   0.64128   0.71227   0.00000  Uiso   1.00
C691   C     0.30985   0.87088   0.89602   0.00000  Uiso   1.00
N692   N     0.33459   0.85137   0.92249   0.00000  Uiso   1.00
F693   F     0.02769   0.82790   0.87876   0.00000  Uiso   1.00
F694   F     0.47928   0.68244   0.87952   0.00000  Uiso   1.00
F695   F     0.47223   0.82762   0.78733   0.00000  Uiso   1.00
F696   F     0.02074   0.68217   0.78752   0.00000  Uiso   1.00
C697   C     0.11807   0.82712   0.88381   0.00000  Uiso   1.00
N698   N     0.13692   0.85700   0.90520   0.00000  Uiso   1.00
C699   C     0.39055   0.67186   0.87584   0.00000  Uiso   1.00
N700   N     0.37670   0.63730   0.89267   0.00000  Uiso   1.00
C701   C     0.38184   0.82681   0.78234   0.00000  Uiso   1.00
N702   N     0.36295   0.85655   0.76077   0.00000  Uiso   1.00
C703   C     0.10947   0.67158   0.79133   0.00000  Uiso   1.00
N704   N     0.12332   0.63691   0.77476   0.00000  Uiso   1.00
C705   C     0.66495   0.75008   0.83380   0.00000  Uiso   1.00
C706   C     0.83505   0.75008   0.83287   0.00000  Uiso   1.00
C707   C     0.76566   0.60327   0.87380   0.00000  Uiso   1.00
C708   C     0.72078   0.89554   0.80334   0.00000  Uiso   1.00
C709   C     0.73432   0.60329   0.79287   0.00000  Uiso   1.00
C710   C     0.77923   0.89554   0.86332   0.00000  Uiso   1.00
C711   C     0.76510   0.55283   0.87431   0.00000  Uiso   1.00
C712   C     0.71998   0.94591   0.80346   0.00000  Uiso   1.00
C713   C     0.73491   0.55285   0.79232   0.00000  Uiso   1.00
C714   C     0.78004   0.94590   0.86317   0.00000  Uiso   1.00
C715   C     0.74995   0.75002   0.74028   0.00000  Uiso   1.00
C716   C     0.75005   0.75002   0.92639   0.00000  Uiso   1.00
C717   C     0.75001   0.52650   0.83331   0.00000  Uiso   1.00
C718   C     0.75001   0.97225   0.83331   0.00000  Uiso   1.00
C719   C     0.74999   0.75006   0.68854   0.00000  Uiso   1.00
C720   C     0.75001   0.75006   0.97813   0.00000  Uiso   1.00
C721   C     0.54856   0.79157   0.85592   0.00000  Uiso   1.00
C722   C     0.95495   0.71715   0.85625   0.00000  Uiso   1.00
C723   C     0.95140   0.79143   0.81041   0.00000  Uiso   1.00
C724   C     0.54505   0.71702   0.81056   0.00000  Uiso   1.00
C725   C     0.59446   0.78978   0.85709   0.00000  Uiso   1.00
C726   C     0.90927   0.71408   0.85459   0.00000  Uiso   1.00
C727   C     0.90549   0.78963   0.80929   0.00000  Uiso   1.00
C728   C     0.59073   0.71396   0.81227   0.00000  Uiso   1.00
C729   C     0.61633   0.75095   0.83465   0.00000  Uiso   1.00
C730   C     0.88366   0.75095   0.83198   0.00000  Uiso   1.00
C731   C     0.52399   0.75533   0.83266   0.00000  Uiso   1.00
C732   C     0.97598   0.75533   0.83389   0.00000  Uiso   1.00
Cu733  Cu    0.75000   0.79821   0.83333   0.00000  Uiso   1.00
Cu734  Cu    0.75000   0.70178   0.83333   0.00000  Uiso   1.00
H735   H     0.77623   0.53433   0.90753   0.00000  Uiso   1.00
H736   H     0.69543   0.96412   0.78048   0.00000  Uiso   1.00
H737   H     0.72376   0.53436   0.75911   0.00000  Uiso   1.00
H738   H     0.80459   0.96411   0.88615   0.00000  Uiso   1.00
N739   N     0.75000   0.62934   0.83333   0.00000  Uiso   1.00
N740   N     0.75000   0.87065   0.83333   0.00000  Uiso   1.00
O741   O     0.68573   0.79071   0.83334   0.00000  Uiso   1.00
O742   O     0.81427   0.70928   0.83333   0.00000  Uiso   1.00
O743   O     0.81427   0.79071   0.83333   0.00000  Uiso   1.00
O744   O     0.68573   0.70928   0.83334   0.00000  Uiso   1.00
O745   O     0.75000   0.79071   0.76280   0.00000  Uiso   1.00
O746   O     0.75000   0.70929   0.90387   0.00000  Uiso   1.00
O747   O     0.75000   0.79071   0.90387   0.00000  Uiso   1.00
O748   O     0.75000   0.70929   0.76280   0.00000  Uiso   1.00
C749   C     0.78354   0.62497   0.91817   0.00000  Uiso   1.00
N750   N     0.79804   0.64119   0.95452   0.00000  Uiso   1.00
C751   C     0.69015   0.87089   0.77064   0.00000  Uiso   1.00
N752   N     0.66541   0.85138   0.74418   0.00000  Uiso   1.00
C753   C     0.71633   0.62503   0.74856   0.00000  Uiso   1.00
N754   N     0.70173   0.64128   0.71227   0.00000  Uiso   1.00
C755   C     0.80985   0.87088   0.89602   0.00000  Uiso   1.00
N756   N     0.83459   0.85137   0.92249   0.00000  Uiso   1.00
F757   F     0.52769   0.82790   0.87876   0.00000  Uiso   1.00
F758   F     0.97928   0.68244   0.87952   0.00000  Uiso   1.00
F759   F     0.97223   0.82762   0.78733   0.00000  Uiso   1.00
F760   F     0.52074   0.68217   0.78752   0.00000  Uiso   1.00
C761   C     0.61807   0.82712   0.88381   0.00000  Uiso   1.00
N762   N     0.63692   0.85700   0.90520   0.00000  Uiso   1.00
C763   C     0.89055   0.67186   0.87584   0.00000  Uiso   1.00
N764   N     0.87670   0.63730   0.89267   0.00000  Uiso   1.00
C765   C     0.88184   0.82681   0.78234   0.00000  Uiso   1.00
N766   N     0.86295   0.85655   0.76077   0.00000  Uiso   1.00
C767   C     0.60947   0.67158   0.79133   0.00000  Uiso   1.00
N768   N     0.62332   0.63691   0.77476   0.00000  Uiso   1.00
loop_
_geom_bond_atom_site_label_1
_geom_bond_atom_site_label_2
_geom_bond_distance
_geom_bond_site_symmetry_2
_ccdc_geom_bond_type
C1     O37     1.301   .     A
C1     O40     1.305   .     A
C1     C25     1.481   .     S
C2     O38     1.305   .     A
C2     C26     1.481   .     S
C2     O39     1.301   .     A
C3     N35     1.388   .     A
C3     C7      1.411   .     A
C3     C45     1.438   .     S
C4     N36     1.373   .     A
C4     C8      1.409   .     A
C4     C47     1.439   .     S
C5     C9      1.411   .     A
C5     C49     1.438   .     S
C5     N35     1.388   .     A
C6     C10     1.409   .     A
C6     C51     1.439   .     S
C6     N36     1.373   .     A
C7     H31     1.083   .     S
C7     C13     1.398   .     A
C8     C14     1.407   .     A
C8     H32     1.082   .     S
C9     H33     1.083   .     S
C9     C13     1.398   .     A
C10    H34     1.082   .     S
C10    C14     1.407   .     A
C11    O41     1.292   .     A
C11    O44     1.293   .     A
C11    C15     1.405   .     S
C12    C16     1.405   .     S
C12    O43     1.292   .     A
C12    O42     1.293   .     A
C13    C142    1.517   1_545 S
C14    C141    1.517   .     S
C15    C528    1.188   1_554 S
C16    C271    1.188   .     S
C17    F53     1.360   .     S
C17    C21     1.397   .     A
C17    C27     1.396   .     A
C18    F54     1.362   .     S
C18    C28     1.396   .     A
C18    C22     1.392   .     A
C19    C23     1.398   .     A
C19    C28     1.397   .     A
C19    F55     1.360   .     S
C20    C27     1.396   .     A
C20    F56     1.362   .     S
C20    C24     1.392   .     A
C21    C57     1.447   .     S
C21    C25     1.423   .     A
C22    C26     1.418   .     A
C22    C59     1.442   .     S
C23    C26     1.423   .     A
C23    C61     1.447   .     S
C24    C63     1.442   .     S
C24    C25     1.418   .     A
C27    C92     1.463   1_455 S
C28    C91     1.463   .     S
Cu29   Cu30    2.697   .     S
Cu29   O39     1.968   .     S
Cu29   O43     1.927   .     S
Cu29   N36     2.026   .     S
Cu29   O37     1.968   .     S
Cu29   O41     1.927   .     S
Cu30   O40     1.968   .     S
Cu30   O44     1.927   .     S
Cu30   N35     2.026   .     S
Cu30   O38     1.968   .     S
Cu30   O42     1.927   .     S
C45    N46     1.158   .     T
C47    N48     1.158   .     T
C49    N50     1.158   .     T
C51    N52     1.158   .     T
C57    N58     1.158   .     T
C59    N60     1.156   .     T
C61    N62     1.158   .     T
C63    N64     1.156   .     T
C65    O101    1.301   .     A
C65    O104    1.305   .     A
C65    C89     1.481   .     S
C66    O102    1.305   .     A
C66    C90     1.481   .     S
C66    O103    1.301   .     A
C67    N99     1.388   .     A
C67    C71     1.411   .     A
C67    C109    1.438   .     S
C68    N100    1.373   .     A
C68    C72     1.409   .     A
C68    C111    1.439   .     S
C69    C73     1.411   .     A
C69    C113    1.438   .     S
C69    N99     1.388   .     A
C70    C74     1.409   .     A
C70    C115    1.439   .     S
C70    N100    1.373   .     A
C71    H95     1.083   .     S
C71    C77     1.398   .     A
C72    C78     1.407   .     A
C72    H96     1.082   .     S
C73    H97     1.083   .     S
C73    C77     1.398   .     A
C74    H98     1.082   .     S
C74    C78     1.407   .     A
C75    O105    1.292   .     A
C75    O108    1.293   .     A
C75    C79     1.405   .     S
C76    C80     1.405   .     S
C76    O107    1.292   .     A
C76    O106    1.293   .     A
C77    C206    1.517   1_545 S
C78    C205    1.517   .     S
C79    C592    1.188   1_554 S
C80    C335    1.188   .     S
C81    F117    1.360   .     S
C81    C85     1.397   .     A
C81    C91     1.396   .     A
C82    F118    1.362   .     S
C82    C92     1.396   .     A
C82    C86     1.392   .     A
C83    C87     1.398   .     A
C83    C92     1.397   .     A
C83    F119    1.360   .     S
C84    C91     1.396   .     A
C84    F120    1.362   .     S
C84    C88     1.392   .     A
C85    C121    1.447   .     S
C85    C89     1.423   .     A
C86    C90     1.418   .     A
C86    C123    1.442   .     S
C87    C90     1.423   .     A
C87    C125    1.447   .     S
C88    C127    1.442   .     S
C88    C89     1.418   .     A
C92    C27     1.463   1_655 S
Cu93   Cu94    2.697   .     S
Cu93   O103    1.968   .     S
Cu93   O107    1.927   .     S
Cu93   N100    2.026   .     S
Cu93   O101    1.968   .     S
Cu93   O105    1.927   .     S
Cu94   O104    1.968   .     S
Cu94   O108    1.927   .     S
Cu94   N99     2.026   .     S
Cu94   O102    1.968   .     S
Cu94   O106    1.927   .     S
C109   N110    1.158   .     T
C111   N112    1.158   .     T
C113   N114    1.158   .     T
C115   N116    1.158   .     T
C121   N122    1.158   .     T
C123   N124    1.156   .     T
C125   N126    1.158   .     T
C127   N128    1.156   .     T
C129   O165    1.301   .     A
C129   O168    1.305   .     A
C129   C153    1.481   .     S
C130   O166    1.305   .     A
C130   C154    1.481   .     S
C130   O167    1.301   .     A
C131   N163    1.388   .     A
C131   C135    1.411   .     A
C131   C173    1.438   .     S
C132   N164    1.373   .     A
C132   C136    1.409   .     A
C132   C175    1.439   .     S
C133   C137    1.411   .     A
C133   C177    1.438   .     S
C133   N163    1.388   .     A
C134   C138    1.409   .     A
C134   C179    1.439   .     S
C134   N164    1.373   .     A
C135   H159    1.083   .     S
C135   C141    1.398   .     A
C136   C142    1.407   .     A
C136   H160    1.082   .     S
C137   H161    1.083   .     S
C137   C141    1.398   .     A
C138   H162    1.082   .     S
C138   C142    1.407   .     A
C139   O169    1.292   .     A
C139   O172    1.293   .     A
C139   C143    1.405   .     S
C140   C144    1.405   .     S
C140   O171    1.292   .     A
C140   O170    1.293   .     A
C142   C13     1.517   1_565 S
C143   C656    1.188   1_554 S
C144   C399    1.188   .     S
C145   F181    1.360   .     S
C145   C149    1.397   .     A
C145   C155    1.396   .     A
C146   F182    1.362   .     S
C146   C156    1.396   .     A
C146   C150    1.392   .     A
C147   C151    1.398   .     A
C147   C156    1.397   .     A
C147   F183    1.360   .     S
C148   C155    1.396   .     A
C148   F184    1.362   .     S
C148   C152    1.392   .     A
C149   C185    1.447   .     S
C149   C153    1.423   .     A
C150   C154    1.418   .     A
C150   C187    1.442   .     S
C151   C154    1.423   .     A
C151   C189    1.447   .     S
C152   C191    1.442   .     S
C152   C153    1.418   .     A
C155   C220    1.463   1_455 S
C156   C219    1.463   .     S
Cu157  Cu158   2.697   .     S
Cu157  O167    1.968   .     S
Cu157  O171    1.927   .     S
Cu157  N164    2.026   .     S
Cu157  O165    1.968   .     S
Cu157  O169    1.927   .     S
Cu158  O168    1.968   .     S
Cu158  O172    1.927   .     S
Cu158  N163    2.026   .     S
Cu158  O166    1.968   .     S
Cu158  O170    1.927   .     S
C173   N174    1.158   .     T
C175   N176    1.158   .     T
C177   N178    1.158   .     T
C179   N180    1.158   .     T
C185   N186    1.158   .     T
C187   N188    1.156   .     T
C189   N190    1.158   .     T
C191   N192    1.156   .     T
C193   O229    1.301   .     A
C193   O232    1.305   .     A
C193   C217    1.481   .     S
C194   O230    1.305   .     A
C194   C218    1.481   .     S
C194   O231    1.301   .     A
C195   N227    1.388   .     A
C195   C199    1.411   .     A
C195   C237    1.438   .     S
C196   N228    1.373   .     A
C196   C200    1.409   .     A
C196   C239    1.439   .     S
C197   C201    1.411   .     A
C197   C241    1.438   .     S
C197   N227    1.388   .     A
C198   C202    1.409   .     A
C198   C243    1.439   .     S
C198   N228    1.373   .     A
C199   H223    1.083   .     S
C199   C205    1.398   .     A
C200   C206    1.407   .     A
C200   H224    1.082   .     S
C201   H225    1.083   .     S
C201   C205    1.398   .     A
C202   H226    1.082   .     S
C202   C206    1.407   .     A
C203   O233    1.292   .     A
C203   O236    1.293   .     A
C203   C207    1.405   .     S
C204   C208    1.405   .     S
C204   O235    1.292   .     A
C204   O234    1.293   .     A
C206   C77     1.517   1_565 S
C207   C720    1.188   1_554 S
C208   C463    1.188   .     S
C209   F245    1.360   .     S
C209   C213    1.397   .     A
C209   C219    1.396   .     A
C210   F246    1.362   .     S
C210   C220    1.396   .     A
C210   C214    1.392   .     A
C211   C215    1.398   .     A
C211   C220    1.397   .     A
C211   F247    1.360   .     S
C212   C219    1.396   .     A
C212   F248    1.362   .     S
C212   C216    1.392   .     A
C213   C249    1.447   .     S
C213   C217    1.423   .     A
C214   C218    1.418   .     A
C214   C251    1.442   .     S
C215   C218    1.423   .     A
C215   C253    1.447   .     S
C216   C255    1.442   .     S
C216   C217    1.418   .     A
C220   C155    1.463   1_655 S
Cu221  Cu222   2.697   .     S
Cu221  O231    1.968   .     S
Cu221  O235    1.927   .     S
Cu221  N228    2.026   .     S
Cu221  O229    1.968   .     S
Cu221  O233    1.927   .     S
Cu222  O232    1.968   .     S
Cu222  O236    1.927   .     S
Cu222  N227    2.026   .     S
Cu222  O230    1.968   .     S
Cu222  O234    1.927   .     S
C237   N238    1.158   .     T
C239   N240    1.158   .     T
C241   N242    1.158   .     T
C243   N244    1.158   .     T
C249   N250    1.158   .     T
C251   N252    1.156   .     T
C253   N254    1.158   .     T
C255   N256    1.156   .     T
C257   O293    1.301   .     A
C257   O296    1.305   .     A
C257   C281    1.481   .     S
C258   O294    1.305   .     A
C258   C282    1.481   .     S
C258   O295    1.301   .     A
C259   N291    1.388   .     A
C259   C263    1.411   .     A
C259   C301    1.438   .     S
C260   N292    1.373   .     A
C260   C264    1.409   .     A
C260   C303    1.439   .     S
C261   C265    1.411   .     A
C261   C305    1.438   .     S
C261   N291    1.388   .     A
C262   C266    1.409   .     A
C262   C307    1.439   .     S
C262   N292    1.373   .     A
C263   H287    1.083   .     S
C263   C269    1.398   .     A
C264   C270    1.407   .     A
C264   H288    1.082   .     S
C265   H289    1.083   .     S
C265   C269    1.398   .     A
C266   H290    1.082   .     S
C266   C270    1.407   .     A
C267   O297    1.292   .     A
C267   O300    1.293   .     A
C267   C271    1.405   .     S
C268   C272    1.405   .     S
C268   O299    1.292   .     A
C268   O298    1.293   .     A
C269   C398    1.517   1_545 S
C270   C397    1.517   .     S
C272   C527    1.188   .     S
C273   F309    1.360   .     S
C273   C277    1.397   .     A
C273   C283    1.396   .     A
C274   F310    1.362   .     S
C274   C284    1.396   .     A
C274   C278    1.392   .     A
C275   C279    1.398   .     A
C275   C284    1.397   .     A
C275   F311    1.360   .     S
C276   C283    1.396   .     A
C276   F312    1.362   .     S
C276   C280    1.392   .     A
C277   C313    1.447   .     S
C277   C281    1.423   .     A
C278   C282    1.418   .     A
C278   C315    1.442   .     S
C279   C282    1.423   .     A
C279   C317    1.447   .     S
C280   C319    1.442   .     S
C280   C281    1.418   .     A
C283   C348    1.463   1_455 S
C284   C347    1.463   .     S
Cu285  Cu286   2.697   .     S
Cu285  O295    1.968   .     S
Cu285  O299    1.927   .     S
Cu285  N292    2.026   .     S
Cu285  O293    1.968   .     S
Cu285  O297    1.927   .     S
Cu286  O296    1.968   .     S
Cu286  O300    1.927   .     S
Cu286  N291    2.026   .     S
Cu286  O294    1.968   .     S
Cu286  O298    1.927   .     S
C301   N302    1.158   .     T
C303   N304    1.158   .     T
C305   N306    1.158   .     T
C307   N308    1.158   .     T
C313   N314    1.158   .     T
C315   N316    1.156   .     T
C317   N318    1.158   .     T
C319   N320    1.156   .     T
C321   O357    1.301   .     A
C321   O360    1.305   .     A
C321   C345    1.481   .     S
C322   O358    1.305   .     A
C322   C346    1.481   .     S
C322   O359    1.301   .     A
C323   N355    1.388   .     A
C323   C327    1.411   .     A
C323   C365    1.438   .     S
C324   N356    1.373   .     A
C324   C328    1.409   .     A
C324   C367    1.439   .     S
C325   C329    1.411   .     A
C325   C369    1.438   .     S
C325   N355    1.388   .     A
C326   C330    1.409   .     A
C326   C371    1.439   .     S
C326   N356    1.373   .     A
C327   H351    1.083   .     S
C327   C333    1.398   .     A
C328   C334    1.407   .     A
C328   H352    1.082   .     S
C329   H353    1.083   .     S
C329   C333    1.398   .     A
C330   H354    1.082   .     S
C330   C334    1.407   .     A
C331   O361    1.292   .     A
C331   O364    1.293   .     A
C331   C335    1.405   .     S
C332   C336    1.405   .     S
C332   O363    1.292   .     A
C332   O362    1.293   .     A
C333   C462    1.517   1_545 S
C334   C461    1.517   .     S
C336   C591    1.188   .     S
C337   F373    1.360   .     S
C337   C341    1.397   .     A
C337   C347    1.396   .     A
C338   F374    1.362   .     S
C338   C348    1.396   .     A
C338   C342    1.392   .     A
C339   C343    1.398   .     A
C339   C348    1.397   .     A
C339   F375    1.360   .     S
C340   C347    1.396   .     A
C340   F376    1.362   .     S
C340   C344    1.392   .     A
C341   C377    1.447   .     S
C341   C345    1.423   .     A
C342   C346    1.418   .     A
C342   C379    1.442   .     S
C343   C346    1.423   .     A
C343   C381    1.447   .     S
C344   C383    1.442   .     S
C344   C345    1.418   .     A
C348   C283    1.463   1_655 S
Cu349  Cu350   2.697   .     S
Cu349  O359    1.968   .     S
Cu349  O363    1.927   .     S
Cu349  N356    2.026   .     S
Cu349  O357    1.968   .     S
Cu349  O361    1.927   .     S
Cu350  O360    1.968   .     S
Cu350  O364    1.927   .     S
Cu350  N355    2.026   .     S
Cu350  O358    1.968   .     S
Cu350  O362    1.927   .     S
C365   N366    1.158   .     T
C367   N368    1.158   .     T
C369   N370    1.158   .     T
C371   N372    1.158   .     T
C377   N378    1.158   .     T
C379   N380    1.156   .     T
C381   N382    1.158   .     T
C383   N384    1.156   .     T
C385   O421    1.301   .     A
C385   O424    1.305   .     A
C385   C409    1.481   .     S
C386   O422    1.305   .     A
C386   C410    1.481   .     S
C386   O423    1.301   .     A
C387   N419    1.388   .     A
C387   C391    1.411   .     A
C387   C429    1.438   .     S
C388   N420    1.373   .     A
C388   C392    1.409   .     A
C388   C431    1.439   .     S
C389   C393    1.411   .     A
C389   C433    1.438   .     S
C389   N419    1.388   .     A
C390   C394    1.409   .     A
C390   C435    1.439   .     S
C390   N420    1.373   .     A
C391   H415    1.083   .     S
C391   C397    1.398   .     A
C392   C398    1.407   .     A
C392   H416    1.082   .     S
C393   H417    1.083   .     S
C393   C397    1.398   .     A
C394   H418    1.082   .     S
C394   C398    1.407   .     A
C395   O425    1.292   .     A
C395   O428    1.293   .     A
C395   C399    1.405   .     S
C396   C400    1.405   .     S
C396   O427    1.292   .     A
C396   O426    1.293   .     A
C398   C269    1.517   1_565 S
C400   C655    1.188   .     S
C401   F437    1.360   .     S
C401   C405    1.397   .     A
C401   C411    1.396   .     A
C402   F438    1.362   .     S
C402   C412    1.396   .     A
C402   C406    1.392   .     A
C403   C407    1.398   .     A
C403   C412    1.397   .     A
C403   F439    1.360   .     S
C404   C411    1.396   .     A
C404   F440    1.362   .     S
C404   C408    1.392   .     A
C405   C441    1.447   .     S
C405   C409    1.423   .     A
C406   C410    1.418   .     A
C406   C443    1.442   .     S
C407   C410    1.423   .     A
C407   C445    1.447   .     S
C408   C447    1.442   .     S
C408   C409    1.418   .     A
C411   C476    1.463   1_455 S
C412   C475    1.463   .     S
Cu413  Cu414   2.697   .     S
Cu413  O423    1.968   .     S
Cu413  O427    1.927   .     S
Cu413  N420    2.026   .     S
Cu413  O421    1.968   .     S
Cu413  O425    1.927   .     S
Cu414  O424    1.968   .     S
Cu414  O428    1.927   .     S
Cu414  N419    2.026   .     S
Cu414  O422    1.968   .     S
Cu414  O426    1.927   .     S
C429   N430    1.158   .     T
C431   N432    1.158   .     T
C433   N434    1.158   .     T
C435   N436    1.158   .     T
C441   N442    1.158   .     T
C443   N444    1.156   .     T
C445   N446    1.158   .     T
C447   N448    1.156   .     T
C449   O485    1.301   .     A
C449   O488    1.305   .     A
C449   C473    1.481   .     S
C450   O486    1.305   .     A
C450   C474    1.481   .     S
C450   O487    1.301   .     A
C451   N483    1.388   .     A
C451   C455    1.411   .     A
C451   C493    1.438   .     S
C452   N484    1.373   .     A
C452   C456    1.409   .     A
C452   C495    1.439   .     S
C453   C457    1.411   .     A
C453   C497    1.438   .     S
C453   N483    1.388   .     A
C454   C458    1.409   .     A
C454   C499    1.439   .     S
C454   N484    1.373   .     A
C455   H479    1.083   .     S
C455   C461    1.398   .     A
C456   C462    1.407   .     A
C456   H480    1.082   .     S
C457   H481    1.083   .     S
C457   C461    1.398   .     A
C458   H482    1.082   .     S
C458   C462    1.407   .     A
C459   O489    1.292   .     A
C459   O492    1.293   .     A
C459   C463    1.405   .     S
C460   C464    1.405   .     S
C460   O491    1.292   .     A
C460   O490    1.293   .     A
C462   C333    1.517   1_565 S
C464   C719    1.188   .     S
C465   F501    1.360   .     S
C465   C469    1.397   .     A
C465   C475    1.396   .     A
C466   F502    1.362   .     S
C466   C476    1.396   .     A
C466   C470    1.392   .     A
C467   C471    1.398   .     A
C467   C476    1.397   .     A
C467   F503    1.360   .     S
C468   C475    1.396   .     A
C468   F504    1.362   .     S
C468   C472    1.392   .     A
C469   C505    1.447   .     S
C469   C473    1.423   .     A
C470   C474    1.418   .     A
C470   C507    1.442   .     S
C471   C474    1.423   .     A
C471   C509    1.447   .     S
C472   C511    1.442   .     S
C472   C473    1.418   .     A
C476   C411    1.463   1_655 S
Cu477  Cu478   2.697   .     S
Cu477  O487    1.968   .     S
Cu477  O491    1.927   .     S
Cu477  N484    2.026   .     S
Cu477  O485    1.968   .     S
Cu477  O489    1.927   .     S
Cu478  O488    1.968   .     S
Cu478  O492    1.927   .     S
Cu478  N483    2.026   .     S
Cu478  O486    1.968   .     S
Cu478  O490    1.927   .     S
C493   N494    1.158   .     T
C495   N496    1.158   .     T
C497   N498    1.158   .     T
C499   N500    1.158   .     T
C505   N506    1.158   .     T
C507   N508    1.156   .     T
C509   N510    1.158   .     T
C511   N512    1.156   .     T
C513   O549    1.301   .     A
C513   O552    1.305   .     A
C513   C537    1.481   .     S
C514   O550    1.305   .     A
C514   C538    1.481   .     S
C514   O551    1.301   .     A
C515   N547    1.388   .     A
C515   C519    1.411   .     A
C515   C557    1.438   .     S
C516   N548    1.373   .     A
C516   C520    1.409   .     A
C516   C559    1.439   .     S
C517   C521    1.411   .     A
C517   C561    1.438   .     S
C517   N547    1.388   .     A
C518   C522    1.409   .     A
C518   C563    1.439   .     S
C518   N548    1.373   .     A
C519   H543    1.083   .     S
C519   C525    1.398   .     A
C520   C526    1.407   .     A
C520   H544    1.082   .     S
C521   H545    1.083   .     S
C521   C525    1.398   .     A
C522   H546    1.082   .     S
C522   C526    1.407   .     A
C523   O553    1.292   .     A
C523   O556    1.293   .     A
C523   C527    1.405   .     S
C524   C528    1.405   .     S
C524   O555    1.292   .     A
C524   O554    1.293   .     A
C525   C654    1.517   1_545 S
C526   C653    1.517   .     S
C528   C15     1.188   1_556 S
C529   F565    1.360   .     S
C529   C533    1.397   .     A
C529   C539    1.396   .     A
C530   F566    1.362   .     S
C530   C540    1.396   .     A
C530   C534    1.392   .     A
C531   C535    1.398   .     A
C531   C540    1.397   .     A
C531   F567    1.360   .     S
C532   C539    1.396   .     A
C532   F568    1.362   .     S
C532   C536    1.392   .     A
C533   C569    1.447   .     S
C533   C537    1.423   .     A
C534   C538    1.418   .     A
C534   C571    1.442   .     S
C535   C538    1.423   .     A
C535   C573    1.447   .     S
C536   C575    1.442   .     S
C536   C537    1.418   .     A
C539   C604    1.463   1_455 S
C540   C603    1.463   .     S
Cu541  Cu542   2.697   .     S
Cu541  O551    1.968   .     S
Cu541  O555    1.927   .     S
Cu541  N548    2.026   .     S
Cu541  O549    1.968   .     S
Cu541  O553    1.927   .     S
Cu542  O552    1.968   .     S
Cu542  O556    1.927   .     S
Cu542  N547    2.026   .     S
Cu542  O550    1.968   .     S
Cu542  O554    1.927   .     S
C557   N558    1.158   .     T
C559   N560    1.158   .     T
C561   N562    1.158   .     T
C563   N564    1.158   .     T
C569   N570    1.158   .     T
C571   N572    1.156   .     T
C573   N574    1.158   .     T
C575   N576    1.156   .     T
C577   O613    1.301   .     A
C577   O616    1.305   .     A
C577   C601    1.481   .     S
C578   O614    1.305   .     A
C578   C602    1.481   .     S
C578   O615    1.301   .     A
C579   N611    1.388   .     A
C579   C583    1.411   .     A
C579   C621    1.438   .     S
C580   N612    1.373   .     A
C580   C584    1.409   .     A
C580   C623    1.439   .     S
C581   C585    1.411   .     A
C581   C625    1.438   .     S
C581   N611    1.388   .     A
C582   C586    1.409   .     A
C582   C627    1.439   .     S
C582   N612    1.373   .     A
C583   H607    1.083   .     S
C583   C589    1.398   .     A
C584   C590    1.407   .     A
C584   H608    1.082   .     S
C585   H609    1.083   .     S
C585   C589    1.398   .     A
C586   H610    1.082   .     S
C586   C590    1.407   .     A
C587   O617    1.292   .     A
C587   O620    1.293   .     A
C587   C591    1.405   .     S
C588   C592    1.405   .     S
C588   O619    1.292   .     A
C588   O618    1.293   .     A
C589   C718    1.517   1_545 S
C590   C717    1.517   .     S
C592   C79     1.188   1_556 S
C593   F629    1.360   .     S
C593   C597    1.397   .     A
C593   C603    1.396   .     A
C594   F630    1.362   .     S
C594   C604    1.396   .     A
C594   C598    1.392   .     A
C595   C599    1.398   .     A
C595   C604    1.397   .     A
C595   F631    1.360   .     S
C596   C603    1.396   .     A
C596   F632    1.362   .     S
C596   C600    1.392   .     A
C597   C633    1.447   .     S
C597   C601    1.423   .     A
C598   C602    1.418   .     A
C598   C635    1.442   .     S
C599   C602    1.423   .     A
C599   C637    1.447   .     S
C600   C639    1.442   .     S
C600   C601    1.418   .     A
C604   C539    1.463   1_655 S
Cu605  Cu606   2.697   .     S
Cu605  O615    1.968   .     S
Cu605  O619    1.927   .     S
Cu605  N612    2.026   .     S
Cu605  O613    1.968   .     S
Cu605  O617    1.927   .     S
Cu606  O616    1.968   .     S
Cu606  O620    1.927   .     S
Cu606  N611    2.026   .     S
Cu606  O614    1.968   .     S
Cu606  O618    1.927   .     S
C621   N622    1.158   .     T
C623   N624    1.158   .     T
C625   N626    1.158   .     T
C627   N628    1.158   .     T
C633   N634    1.158   .     T
C635   N636    1.156   .     T
C637   N638    1.158   .     T
C639   N640    1.156   .     T
C641   O677    1.301   .     A
C641   O680    1.305   .     A
C641   C665    1.481   .     S
C642   O678    1.305   .     A
C642   C666    1.481   .     S
C642   O679    1.301   .     A
C643   N675    1.388   .     A
C643   C647    1.411   .     A
C643   C685    1.438   .     S
C644   N676    1.373   .     A
C644   C648    1.409   .     A
C644   C687    1.439   .     S
C645   C649    1.411   .     A
C645   C689    1.438   .     S
C645   N675    1.388   .     A
C646   C650    1.409   .     A
C646   C691    1.439   .     S
C646   N676    1.373   .     A
C647   H671    1.083   .     S
C647   C653    1.398   .     A
C648   C654    1.407   .     A
C648   H672    1.082   .     S
C649   H673    1.083   .     S
C649   C653    1.398   .     A
C650   H674    1.082   .     S
C650   C654    1.407   .     A
C651   O681    1.292   .     A
C651   O684    1.293   .     A
C651   C655    1.405   .     S
C652   C656    1.405   .     S
C652   O683    1.292   .     A
C652   O682    1.293   .     A
C654   C525    1.517   1_565 S
C656   C143    1.188   1_556 S
C657   F693    1.360   .     S
C657   C661    1.397   .     A
C657   C667    1.396   .     A
C658   F694    1.362   .     S
C658   C668    1.396   .     A
C658   C662    1.392   .     A
C659   C663    1.398   .     A
C659   C668    1.397   .     A
C659   F695    1.360   .     S
C660   C667    1.396   .     A
C660   F696    1.362   .     S
C660   C664    1.392   .     A
C661   C697    1.447   .     S
C661   C665    1.423   .     A
C662   C666    1.418   .     A
C662   C699    1.442   .     S
C663   C666    1.423   .     A
C663   C701    1.447   .     S
C664   C703    1.442   .     S
C664   C665    1.418   .     A
C667   C732    1.463   1_455 S
C668   C731    1.463   .     S
Cu669  Cu670   2.697   .     S
Cu669  O679    1.968   .     S
Cu669  O683    1.927   .     S
Cu669  N676    2.026   .     S
Cu669  O677    1.968   .     S
Cu669  O681    1.927   .     S
Cu670  O680    1.968   .     S
Cu670  O684    1.927   .     S
Cu670  N675    2.026   .     S
Cu670  O678    1.968   .     S
Cu670  O682    1.927   .     S
C685   N686    1.158   .     T
C687   N688    1.158   .     T
C689   N690    1.158   .     T
C691   N692    1.158   .     T
C697   N698    1.158   .     T
C699   N700    1.156   .     T
C701   N702    1.158   .     T
C703   N704    1.156   .     T
C705   O741    1.301   .     A
C705   O744    1.305   .     A
C705   C729    1.481   .     S
C706   O742    1.305   .     A
C706   C730    1.481   .     S
C706   O743    1.301   .     A
C707   N739    1.388   .     A
C707   C711    1.411   .     A
C707   C749    1.438   .     S
C708   N740    1.373   .     A
C708   C712    1.409   .     A
C708   C751    1.439   .     S
C709   C713    1.411   .     A
C709   C753    1.438   .     S
C709   N739    1.388   .     A
C710   C714    1.409   .     A
C710   C755    1.439   .     S
C710   N740    1.373   .     A
C711   H735    1.083   .     S
C711   C717    1.398   .     A
C712   C718    1.407   .     A
C712   H736    1.082   .     S
C713   H737    1.083   .     S
C713   C717    1.398   .     A
C714   H738    1.082   .     S
C714   C718    1.407   .     A
C715   O745    1.292   .     A
C715   O748    1.293   .     A
C715   C719    1.405   .     S
C716   C720    1.405   .     S
C716   O747    1.292   .     A
C716   O746    1.293   .     A
C718   C589    1.517   1_565 S
C720   C207    1.188   1_556 S
C721   F757    1.360   .     S
C721   C725    1.397   .     A
C721   C731    1.396   .     A
C722   F758    1.362   .     S
C722   C732    1.396   .     A
C722   C726    1.392   .     A
C723   C727    1.398   .     A
C723   C732    1.397   .     A
C723   F759    1.360   .     S
C724   C731    1.396   .     A
C724   F760    1.362   .     S
C724   C728    1.392   .     A
C725   C761    1.447   .     S
C725   C729    1.423   .     A
C726   C730    1.418   .     A
C726   C763    1.442   .     S
C727   C730    1.423   .     A
C727   C765    1.447   .     S
C728   C767    1.442   .     S
C728   C729    1.418   .     A
C732   C667    1.463   1_655 S
Cu733  Cu734   2.697   .     S
Cu733  O743    1.968   .     S
Cu733  O747    1.927   .     S
Cu733  N740    2.026   .     S
Cu733  O741    1.968   .     S
Cu733  O745    1.927   .     S
Cu734  O744    1.968   .     S
Cu734  O748    1.927   .     S
Cu734  N739    2.026   .     S
Cu734  O742    1.968   .     S
Cu734  O746    1.927   .     S
C749   N750    1.158   .     T
C751   N752    1.158   .     T
C753   N754    1.158   .     T
C755   N756    1.158   .     T
C761   N762    1.158   .     T
C763   N764    1.156   .     T
C765   N766    1.158   .     T
C767   N768    1.156   .     T
