data_str_m2_o10_o17_pcu_sym.116
_audit_creation_date              2020-01-03
_audit_creation_method            'Materials Studio'
_symmetry_space_group_name_H-M    'P1'
_symmetry_Int_Tables_number       1
_symmetry_cell_setting            triclinic
loop_
_symmetry_equiv_pos_as_xyz
  x,y,z
_cell_length_a                    29.9589
_cell_length_b                    26.4020
_cell_length_c                    22.3029
_cell_angle_alpha                 102.8313
_cell_angle_beta                  94.2179
_cell_angle_gamma                 94.0254
loop_
_atom_site_label
_atom_site_type_symbol
_atom_site_fract_x
_atom_site_fract_y
_atom_site_fract_z
_atom_site_U_iso_or_equiv
_atom_site_adp_type
_atom_site_occupancy
C1     C     0.24832   0.06668   0.15116   0.00000  Uiso   1.00
C2     C     0.25259   0.26665   0.18204   0.00000  Uiso   1.00
C3     C     0.01540   0.07328   0.15557   0.00000  Uiso   1.00
C4     C     0.48476   0.26311   0.18674   0.00000  Uiso   1.00
C5     C     0.24642   0.01073   0.14215   0.00000  Uiso   1.00
C6     C     0.25671   0.32252   0.19044   0.00000  Uiso   1.00
C7     C     0.16446   0.16652   0.16740   0.00000  Uiso   1.00
C8     C     0.33553   0.16797   0.16617   0.00000  Uiso   1.00
C9     C     0.41001   0.21532   0.16823   0.00000  Uiso   1.00
C10    C     0.08897   0.11932   0.15541   0.00000  Uiso   1.00
C11    C     0.38369   0.16855   0.16539   0.00000  Uiso   1.00
C12    C     0.11630   0.16663   0.16936   0.00000  Uiso   1.00
C13    C     0.40331   0.12223   0.16450   0.00000  Uiso   1.00
C14    C     0.09757   0.21437   0.18373   0.00000  Uiso   1.00
C15    C     0.44964   0.12142   0.16479   0.00000  Uiso   1.00
C16    C     0.05105   0.21538   0.18308   0.00000  Uiso   1.00
C17    C     0.47680   0.16864   0.17194   0.00000  Uiso   1.00
C18    C     0.02364   0.16803   0.17312   0.00000  Uiso   1.00
C19    C     0.45708   0.21620   0.17603   0.00000  Uiso   1.00
C20    C     0.04285   0.11988   0.16202   0.00000  Uiso   1.00
C21    C     0.46917   0.07417   0.15779   0.00000  Uiso   1.00
C22    C     0.03143   0.26275   0.19127   0.00000  Uiso   1.00
Cu23   Cu    0.25500   0.17246   0.22813   0.00000  Uiso   1.00
Cu24   Cu    0.24499   0.16087   0.10521   0.00000  Uiso   1.00
H25    H     0.38221   0.08686   0.16254   0.00000  Uiso   1.00
H26    H     0.11915   0.25052   0.19282   0.00000  Uiso   1.00
H27    H     0.44848   0.03786   0.15222   0.00000  Uiso   1.00
H28    H     0.05217   0.29936   0.19963   0.00000  Uiso   1.00
H29    H     0.02958   0.03610   0.14906   0.00000  Uiso   1.00
H30    H     0.47039   0.30012   0.19225   0.00000  Uiso   1.00
H31    H     0.21470   0.12570   0.31612   0.00000  Uiso   1.00
H32    H     0.28536   0.20750   0.01718   0.00000  Uiso   1.00
N33    N     0.23744   0.15214   0.01284   0.00000  Uiso   1.00
N34    N     0.26255   0.18119   0.32049   0.00000  Uiso   1.00
O35    O     0.25325   0.09538   0.20659   0.00000  Uiso   1.00
O36    O     0.24674   0.23796   0.12674   0.00000  Uiso   1.00
O37    O     0.24480   0.08559   0.10279   0.00000  Uiso   1.00
O38    O     0.25520   0.24774   0.23055   0.00000  Uiso   1.00
O39    O     0.18935   0.17155   0.21857   0.00000  Uiso   1.00
O40    O     0.31064   0.16179   0.11476   0.00000  Uiso   1.00
O41    O     0.18090   0.16176   0.11477   0.00000  Uiso   1.00
O42    O     0.31910   0.17157   0.21857   0.00000  Uiso   1.00
O43    O     0.38943   0.25913   0.16099   0.00000  Uiso   1.00
C44    C     0.38812   0.26045   0.09777   0.00000  Uiso   1.00
H45    H     0.37740   0.22149   0.06655   0.00000  Uiso   1.00
H46    H     0.42175   0.27440   0.08662   0.00000  Uiso   1.00
C47    C     0.35449   0.29755   0.08392   0.00000  Uiso   1.00
H48    H     0.36428   0.00391   0.11232   0.00000  Uiso   1.00
H49    H     0.35326   0.29846   0.03433   0.00000  Uiso   1.00
H50    H     0.32076   0.28417   0.09446   0.00000  Uiso   1.00
O51    O     0.10672   0.07301   0.13098   0.00000  Uiso   1.00
C52    C     0.10246   0.06418   0.06550   0.00000  Uiso   1.00
H53    H     0.13660   0.06523   0.04966   0.00000  Uiso   1.00
H54    H     0.08483   0.09390   0.04628   0.00000  Uiso   1.00
C55    C     0.07761   0.01086   0.03715   0.00000  Uiso   1.00
H56    H     0.04101   0.01241   0.04113   0.00000  Uiso   1.00
H57    H     0.08294   0.33255   0.32072   0.00000  Uiso   1.00
H58    H     0.08981   0.31438   0.06092   0.00000  Uiso   1.00
O59    O     0.23810   0.31348   0.08229   0.00000  Uiso   1.00
C60    C     0.19360   0.31648   0.05837   0.00000  Uiso   1.00
H61    H     0.19380   0.01289   0.03019   0.00000  Uiso   1.00
H62    H     0.17004   0.32601   0.09496   0.00000  Uiso   1.00
C63    C     0.17600   0.26434   0.01609   0.00000  Uiso   1.00
H64    H     0.17292   0.23389   0.04307   0.00000  Uiso   1.00
H65    H     0.14253   0.26724   0.32628   0.00000  Uiso   1.00
H66    H     0.19929   0.25300   0.31351   0.00000  Uiso   1.00
O67    O     0.26850   0.01920   0.24975   0.00000  Uiso   1.00
C68    C     0.31573   0.02257   0.26177   0.00000  Uiso   1.00
H69    H     0.33293   0.03729   0.22551   0.00000  Uiso   1.00
H70    H     0.32720   0.31716   0.26420   0.00000  Uiso   1.00
C71    C     0.32965   0.06046   0.32349   0.00000  Uiso   1.00
H72    H     0.36650   0.06167   0.00141   0.00000  Uiso   1.00
H73    H     0.32096   0.10020   0.32119   0.00000  Uiso   1.00
H74    H     0.31214   0.04789   0.02730   0.00000  Uiso   1.00
C75    C     0.74832   0.06668   0.15116   0.00000  Uiso   1.00
C76    C     0.75259   0.26665   0.18204   0.00000  Uiso   1.00
C77    C     0.51540   0.07328   0.15557   0.00000  Uiso   1.00
C78    C     0.98476   0.26311   0.18674   0.00000  Uiso   1.00
C79    C     0.74642   0.01073   0.14215   0.00000  Uiso   1.00
C80    C     0.75671   0.32252   0.19044   0.00000  Uiso   1.00
C81    C     0.66446   0.16652   0.16740   0.00000  Uiso   1.00
C82    C     0.83553   0.16797   0.16617   0.00000  Uiso   1.00
C83    C     0.91001   0.21532   0.16823   0.00000  Uiso   1.00
C84    C     0.58897   0.11932   0.15541   0.00000  Uiso   1.00
C85    C     0.88369   0.16855   0.16539   0.00000  Uiso   1.00
C86    C     0.61630   0.16663   0.16936   0.00000  Uiso   1.00
C87    C     0.90331   0.12223   0.16450   0.00000  Uiso   1.00
C88    C     0.59757   0.21437   0.18373   0.00000  Uiso   1.00
C89    C     0.94964   0.12142   0.16479   0.00000  Uiso   1.00
C90    C     0.55105   0.21538   0.18308   0.00000  Uiso   1.00
C91    C     0.97680   0.16864   0.17194   0.00000  Uiso   1.00
C92    C     0.52364   0.16803   0.17312   0.00000  Uiso   1.00
C93    C     0.95708   0.21620   0.17603   0.00000  Uiso   1.00
C94    C     0.54285   0.11988   0.16202   0.00000  Uiso   1.00
C95    C     0.96917   0.07417   0.15779   0.00000  Uiso   1.00
C96    C     0.53143   0.26275   0.19127   0.00000  Uiso   1.00
Cu97   Cu    0.75500   0.17246   0.22813   0.00000  Uiso   1.00
Cu98   Cu    0.74499   0.16087   0.10521   0.00000  Uiso   1.00
H99    H     0.88221   0.08686   0.16254   0.00000  Uiso   1.00
H100   H     0.61915   0.25052   0.19282   0.00000  Uiso   1.00
H101   H     0.94848   0.03786   0.15222   0.00000  Uiso   1.00
H102   H     0.55217   0.29936   0.19963   0.00000  Uiso   1.00
H103   H     0.52958   0.03610   0.14906   0.00000  Uiso   1.00
H104   H     0.97039   0.30012   0.19225   0.00000  Uiso   1.00
H105   H     0.71470   0.12570   0.31612   0.00000  Uiso   1.00
H106   H     0.78536   0.20750   0.01718   0.00000  Uiso   1.00
N107   N     0.73744   0.15214   0.01284   0.00000  Uiso   1.00
N108   N     0.76255   0.18119   0.32049   0.00000  Uiso   1.00
O109   O     0.75325   0.09538   0.20659   0.00000  Uiso   1.00
O110   O     0.74674   0.23796   0.12674   0.00000  Uiso   1.00
O111   O     0.74480   0.08559   0.10279   0.00000  Uiso   1.00
O112   O     0.75520   0.24774   0.23055   0.00000  Uiso   1.00
O113   O     0.68935   0.17155   0.21857   0.00000  Uiso   1.00
O114   O     0.81064   0.16179   0.11476   0.00000  Uiso   1.00
O115   O     0.68090   0.16176   0.11477   0.00000  Uiso   1.00
O116   O     0.81910   0.17157   0.21857   0.00000  Uiso   1.00
O117   O     0.88943   0.25913   0.16099   0.00000  Uiso   1.00
C118   C     0.88812   0.26045   0.09777   0.00000  Uiso   1.00
H119   H     0.87740   0.22149   0.06655   0.00000  Uiso   1.00
H120   H     0.92175   0.27440   0.08662   0.00000  Uiso   1.00
C121   C     0.85449   0.29755   0.08392   0.00000  Uiso   1.00
H122   H     0.86428   0.00391   0.11232   0.00000  Uiso   1.00
H123   H     0.85326   0.29846   0.03433   0.00000  Uiso   1.00
H124   H     0.82076   0.28417   0.09446   0.00000  Uiso   1.00
O125   O     0.60672   0.07301   0.13098   0.00000  Uiso   1.00
C126   C     0.60246   0.06418   0.06550   0.00000  Uiso   1.00
H127   H     0.63660   0.06523   0.04966   0.00000  Uiso   1.00
H128   H     0.58483   0.09390   0.04628   0.00000  Uiso   1.00
C129   C     0.57761   0.01086   0.03715   0.00000  Uiso   1.00
H130   H     0.54101   0.01241   0.04113   0.00000  Uiso   1.00
H131   H     0.58294   0.33255   0.32072   0.00000  Uiso   1.00
H132   H     0.58981   0.31438   0.06092   0.00000  Uiso   1.00
O133   O     0.73810   0.31348   0.08229   0.00000  Uiso   1.00
C134   C     0.69360   0.31648   0.05837   0.00000  Uiso   1.00
H135   H     0.69380   0.01289   0.03019   0.00000  Uiso   1.00
H136   H     0.67004   0.32601   0.09496   0.00000  Uiso   1.00
C137   C     0.67600   0.26434   0.01609   0.00000  Uiso   1.00
H138   H     0.67292   0.23389   0.04307   0.00000  Uiso   1.00
H139   H     0.64253   0.26724   0.32628   0.00000  Uiso   1.00
H140   H     0.69929   0.25300   0.31351   0.00000  Uiso   1.00
O141   O     0.76850   0.01920   0.24975   0.00000  Uiso   1.00
C142   C     0.81573   0.02257   0.26177   0.00000  Uiso   1.00
H143   H     0.83293   0.03729   0.22551   0.00000  Uiso   1.00
H144   H     0.82720   0.31716   0.26420   0.00000  Uiso   1.00
C145   C     0.82965   0.06046   0.32349   0.00000  Uiso   1.00
H146   H     0.86650   0.06167   0.00141   0.00000  Uiso   1.00
H147   H     0.82096   0.10020   0.32119   0.00000  Uiso   1.00
H148   H     0.81214   0.04789   0.02730   0.00000  Uiso   1.00
C149   C     0.24832   0.40001   0.15116   0.00000  Uiso   1.00
C150   C     0.25259   0.59998   0.18204   0.00000  Uiso   1.00
C151   C     0.01540   0.40661   0.15557   0.00000  Uiso   1.00
C152   C     0.48476   0.59645   0.18674   0.00000  Uiso   1.00
C153   C     0.24642   0.34406   0.14215   0.00000  Uiso   1.00
C154   C     0.25671   0.65585   0.19044   0.00000  Uiso   1.00
C155   C     0.16446   0.49986   0.16740   0.00000  Uiso   1.00
C156   C     0.33553   0.50130   0.16617   0.00000  Uiso   1.00
C157   C     0.41001   0.54865   0.16823   0.00000  Uiso   1.00
C158   C     0.08897   0.45266   0.15541   0.00000  Uiso   1.00
C159   C     0.38369   0.50188   0.16539   0.00000  Uiso   1.00
C160   C     0.11630   0.49997   0.16936   0.00000  Uiso   1.00
C161   C     0.40331   0.45556   0.16450   0.00000  Uiso   1.00
C162   C     0.09757   0.54770   0.18373   0.00000  Uiso   1.00
C163   C     0.44964   0.45475   0.16479   0.00000  Uiso   1.00
C164   C     0.05105   0.54872   0.18308   0.00000  Uiso   1.00
C165   C     0.47680   0.50198   0.17194   0.00000  Uiso   1.00
C166   C     0.02364   0.50136   0.17312   0.00000  Uiso   1.00
C167   C     0.45708   0.54953   0.17603   0.00000  Uiso   1.00
C168   C     0.04285   0.45321   0.16202   0.00000  Uiso   1.00
C169   C     0.46917   0.40750   0.15779   0.00000  Uiso   1.00
C170   C     0.03143   0.59609   0.19127   0.00000  Uiso   1.00
Cu171  Cu    0.25500   0.50579   0.22813   0.00000  Uiso   1.00
Cu172  Cu    0.24499   0.49421   0.10521   0.00000  Uiso   1.00
H173   H     0.38221   0.42020   0.16254   0.00000  Uiso   1.00
H174   H     0.11915   0.58385   0.19282   0.00000  Uiso   1.00
H175   H     0.44848   0.37119   0.15222   0.00000  Uiso   1.00
H176   H     0.05217   0.63270   0.19963   0.00000  Uiso   1.00
H177   H     0.02958   0.36943   0.14906   0.00000  Uiso   1.00
H178   H     0.47039   0.63345   0.19225   0.00000  Uiso   1.00
H179   H     0.21470   0.45904   0.31612   0.00000  Uiso   1.00
H180   H     0.28536   0.54084   0.01718   0.00000  Uiso   1.00
N181   N     0.23744   0.48547   0.01284   0.00000  Uiso   1.00
N182   N     0.26255   0.51453   0.32049   0.00000  Uiso   1.00
O183   O     0.25325   0.42871   0.20659   0.00000  Uiso   1.00
O184   O     0.24674   0.57129   0.12674   0.00000  Uiso   1.00
O185   O     0.24480   0.41892   0.10279   0.00000  Uiso   1.00
O186   O     0.25520   0.58108   0.23055   0.00000  Uiso   1.00
O187   O     0.18935   0.50488   0.21857   0.00000  Uiso   1.00
O188   O     0.31064   0.49512   0.11476   0.00000  Uiso   1.00
O189   O     0.18090   0.49510   0.11477   0.00000  Uiso   1.00
O190   O     0.31910   0.50490   0.21857   0.00000  Uiso   1.00
O191   O     0.38943   0.59246   0.16099   0.00000  Uiso   1.00
C192   C     0.38812   0.59379   0.09777   0.00000  Uiso   1.00
H193   H     0.37740   0.55483   0.06655   0.00000  Uiso   1.00
H194   H     0.42175   0.60773   0.08662   0.00000  Uiso   1.00
C195   C     0.35449   0.63088   0.08392   0.00000  Uiso   1.00
H196   H     0.36428   0.33724   0.11232   0.00000  Uiso   1.00
H197   H     0.35326   0.63179   0.03433   0.00000  Uiso   1.00
H198   H     0.32076   0.61750   0.09446   0.00000  Uiso   1.00
O199   O     0.10672   0.40634   0.13098   0.00000  Uiso   1.00
C200   C     0.10246   0.39752   0.06550   0.00000  Uiso   1.00
H201   H     0.13660   0.39856   0.04966   0.00000  Uiso   1.00
H202   H     0.08483   0.42723   0.04628   0.00000  Uiso   1.00
C203   C     0.07761   0.34419   0.03715   0.00000  Uiso   1.00
H204   H     0.04101   0.34575   0.04113   0.00000  Uiso   1.00
H205   H     0.08294   0.66589   0.32072   0.00000  Uiso   1.00
H206   H     0.08981   0.64771   0.06092   0.00000  Uiso   1.00
O207   O     0.23810   0.64681   0.08229   0.00000  Uiso   1.00
C208   C     0.19360   0.64981   0.05837   0.00000  Uiso   1.00
H209   H     0.19380   0.34623   0.03019   0.00000  Uiso   1.00
H210   H     0.17004   0.65935   0.09496   0.00000  Uiso   1.00
C211   C     0.17600   0.59767   0.01609   0.00000  Uiso   1.00
H212   H     0.17292   0.56722   0.04307   0.00000  Uiso   1.00
H213   H     0.14253   0.60057   0.32628   0.00000  Uiso   1.00
H214   H     0.19929   0.58633   0.31351   0.00000  Uiso   1.00
O215   O     0.26850   0.35254   0.24975   0.00000  Uiso   1.00
C216   C     0.31573   0.35591   0.26177   0.00000  Uiso   1.00
H217   H     0.33293   0.37063   0.22551   0.00000  Uiso   1.00
H218   H     0.32720   0.65049   0.26420   0.00000  Uiso   1.00
C219   C     0.32965   0.39380   0.32349   0.00000  Uiso   1.00
H220   H     0.36650   0.39501   0.00141   0.00000  Uiso   1.00
H221   H     0.32096   0.43354   0.32119   0.00000  Uiso   1.00
H222   H     0.31214   0.38123   0.02730   0.00000  Uiso   1.00
C223   C     0.74832   0.40001   0.15116   0.00000  Uiso   1.00
C224   C     0.75259   0.59998   0.18204   0.00000  Uiso   1.00
C225   C     0.51540   0.40661   0.15557   0.00000  Uiso   1.00
C226   C     0.98476   0.59645   0.18674   0.00000  Uiso   1.00
C227   C     0.74642   0.34406   0.14215   0.00000  Uiso   1.00
C228   C     0.75671   0.65585   0.19044   0.00000  Uiso   1.00
C229   C     0.66446   0.49986   0.16740   0.00000  Uiso   1.00
C230   C     0.83553   0.50130   0.16617   0.00000  Uiso   1.00
C231   C     0.91001   0.54865   0.16823   0.00000  Uiso   1.00
C232   C     0.58897   0.45266   0.15541   0.00000  Uiso   1.00
C233   C     0.88369   0.50188   0.16539   0.00000  Uiso   1.00
C234   C     0.61630   0.49997   0.16936   0.00000  Uiso   1.00
C235   C     0.90331   0.45556   0.16450   0.00000  Uiso   1.00
C236   C     0.59757   0.54770   0.18373   0.00000  Uiso   1.00
C237   C     0.94964   0.45475   0.16479   0.00000  Uiso   1.00
C238   C     0.55105   0.54872   0.18308   0.00000  Uiso   1.00
C239   C     0.97680   0.50198   0.17194   0.00000  Uiso   1.00
C240   C     0.52364   0.50136   0.17312   0.00000  Uiso   1.00
C241   C     0.95708   0.54953   0.17603   0.00000  Uiso   1.00
C242   C     0.54285   0.45321   0.16202   0.00000  Uiso   1.00
C243   C     0.96917   0.40750   0.15779   0.00000  Uiso   1.00
C244   C     0.53143   0.59609   0.19127   0.00000  Uiso   1.00
Cu245  Cu    0.75500   0.50579   0.22813   0.00000  Uiso   1.00
Cu246  Cu    0.74499   0.49421   0.10521   0.00000  Uiso   1.00
H247   H     0.88221   0.42020   0.16254   0.00000  Uiso   1.00
H248   H     0.61915   0.58385   0.19282   0.00000  Uiso   1.00
H249   H     0.94848   0.37119   0.15222   0.00000  Uiso   1.00
H250   H     0.55217   0.63270   0.19963   0.00000  Uiso   1.00
H251   H     0.52958   0.36943   0.14906   0.00000  Uiso   1.00
H252   H     0.97039   0.63345   0.19225   0.00000  Uiso   1.00
H253   H     0.71470   0.45904   0.31612   0.00000  Uiso   1.00
H254   H     0.78536   0.54084   0.01718   0.00000  Uiso   1.00
N255   N     0.73744   0.48547   0.01284   0.00000  Uiso   1.00
N256   N     0.76255   0.51453   0.32049   0.00000  Uiso   1.00
O257   O     0.75325   0.42871   0.20659   0.00000  Uiso   1.00
O258   O     0.74674   0.57129   0.12674   0.00000  Uiso   1.00
O259   O     0.74480   0.41892   0.10279   0.00000  Uiso   1.00
O260   O     0.75520   0.58108   0.23055   0.00000  Uiso   1.00
O261   O     0.68935   0.50488   0.21857   0.00000  Uiso   1.00
O262   O     0.81064   0.49512   0.11476   0.00000  Uiso   1.00
O263   O     0.68090   0.49510   0.11477   0.00000  Uiso   1.00
O264   O     0.81910   0.50490   0.21857   0.00000  Uiso   1.00
O265   O     0.88943   0.59246   0.16099   0.00000  Uiso   1.00
C266   C     0.88812   0.59379   0.09777   0.00000  Uiso   1.00
H267   H     0.87740   0.55483   0.06655   0.00000  Uiso   1.00
H268   H     0.92175   0.60773   0.08662   0.00000  Uiso   1.00
C269   C     0.85449   0.63088   0.08392   0.00000  Uiso   1.00
H270   H     0.86428   0.33724   0.11232   0.00000  Uiso   1.00
H271   H     0.85326   0.63179   0.03433   0.00000  Uiso   1.00
H272   H     0.82076   0.61750   0.09446   0.00000  Uiso   1.00
O273   O     0.60672   0.40634   0.13098   0.00000  Uiso   1.00
C274   C     0.60246   0.39752   0.06550   0.00000  Uiso   1.00
H275   H     0.63660   0.39856   0.04966   0.00000  Uiso   1.00
H276   H     0.58483   0.42723   0.04628   0.00000  Uiso   1.00
C277   C     0.57761   0.34419   0.03715   0.00000  Uiso   1.00
H278   H     0.54101   0.34575   0.04113   0.00000  Uiso   1.00
H279   H     0.58294   0.66589   0.32072   0.00000  Uiso   1.00
H280   H     0.58981   0.64771   0.06092   0.00000  Uiso   1.00
O281   O     0.73810   0.64681   0.08229   0.00000  Uiso   1.00
C282   C     0.69360   0.64981   0.05837   0.00000  Uiso   1.00
H283   H     0.69380   0.34623   0.03019   0.00000  Uiso   1.00
H284   H     0.67004   0.65935   0.09496   0.00000  Uiso   1.00
C285   C     0.67600   0.59767   0.01609   0.00000  Uiso   1.00
H286   H     0.67292   0.56722   0.04307   0.00000  Uiso   1.00
H287   H     0.64253   0.60057   0.32628   0.00000  Uiso   1.00
H288   H     0.69929   0.58633   0.31351   0.00000  Uiso   1.00
O289   O     0.76850   0.35254   0.24975   0.00000  Uiso   1.00
C290   C     0.81573   0.35591   0.26177   0.00000  Uiso   1.00
H291   H     0.83293   0.37063   0.22551   0.00000  Uiso   1.00
H292   H     0.82720   0.65049   0.26420   0.00000  Uiso   1.00
C293   C     0.82965   0.39380   0.32349   0.00000  Uiso   1.00
H294   H     0.86650   0.39501   0.00141   0.00000  Uiso   1.00
H295   H     0.82096   0.43354   0.32119   0.00000  Uiso   1.00
H296   H     0.81214   0.38123   0.02730   0.00000  Uiso   1.00
C297   C     0.24832   0.73335   0.15116   0.00000  Uiso   1.00
C298   C     0.25259   0.93332   0.18204   0.00000  Uiso   1.00
C299   C     0.01540   0.73995   0.15557   0.00000  Uiso   1.00
C300   C     0.48476   0.92978   0.18674   0.00000  Uiso   1.00
C301   C     0.24642   0.67739   0.14215   0.00000  Uiso   1.00
C302   C     0.25671   0.98919   0.19044   0.00000  Uiso   1.00
C303   C     0.16446   0.83319   0.16740   0.00000  Uiso   1.00
C304   C     0.33553   0.83464   0.16617   0.00000  Uiso   1.00
C305   C     0.41001   0.88198   0.16823   0.00000  Uiso   1.00
C306   C     0.08897   0.78599   0.15541   0.00000  Uiso   1.00
C307   C     0.38369   0.83522   0.16539   0.00000  Uiso   1.00
C308   C     0.11630   0.83330   0.16936   0.00000  Uiso   1.00
C309   C     0.40331   0.78890   0.16450   0.00000  Uiso   1.00
C310   C     0.09757   0.88104   0.18373   0.00000  Uiso   1.00
C311   C     0.44964   0.78809   0.16479   0.00000  Uiso   1.00
C312   C     0.05105   0.88205   0.18308   0.00000  Uiso   1.00
C313   C     0.47680   0.83531   0.17194   0.00000  Uiso   1.00
C314   C     0.02364   0.83469   0.17312   0.00000  Uiso   1.00
C315   C     0.45708   0.88287   0.17603   0.00000  Uiso   1.00
C316   C     0.04285   0.78654   0.16202   0.00000  Uiso   1.00
C317   C     0.46917   0.74084   0.15779   0.00000  Uiso   1.00
C318   C     0.03143   0.92942   0.19127   0.00000  Uiso   1.00
Cu319  Cu    0.25500   0.83913   0.22813   0.00000  Uiso   1.00
Cu320  Cu    0.24499   0.82754   0.10521   0.00000  Uiso   1.00
H321   H     0.38221   0.75353   0.16254   0.00000  Uiso   1.00
H322   H     0.11915   0.91718   0.19282   0.00000  Uiso   1.00
H323   H     0.44848   0.70452   0.15222   0.00000  Uiso   1.00
H324   H     0.05217   0.96603   0.19963   0.00000  Uiso   1.00
H325   H     0.02958   0.70277   0.14906   0.00000  Uiso   1.00
H326   H     0.47039   0.96678   0.19225   0.00000  Uiso   1.00
H327   H     0.21470   0.79237   0.31612   0.00000  Uiso   1.00
H328   H     0.28536   0.87417   0.01718   0.00000  Uiso   1.00
N329   N     0.23744   0.81881   0.01284   0.00000  Uiso   1.00
N330   N     0.26255   0.84786   0.32049   0.00000  Uiso   1.00
O331   O     0.25325   0.76204   0.20659   0.00000  Uiso   1.00
O332   O     0.24674   0.90462   0.12674   0.00000  Uiso   1.00
O333   O     0.24480   0.75226   0.10279   0.00000  Uiso   1.00
O334   O     0.25520   0.91441   0.23055   0.00000  Uiso   1.00
O335   O     0.18935   0.83821   0.21857   0.00000  Uiso   1.00
O336   O     0.31064   0.82845   0.11476   0.00000  Uiso   1.00
O337   O     0.18090   0.82843   0.11477   0.00000  Uiso   1.00
O338   O     0.31910   0.83824   0.21857   0.00000  Uiso   1.00
O339   O     0.38943   0.92579   0.16099   0.00000  Uiso   1.00
C340   C     0.38812   0.92712   0.09777   0.00000  Uiso   1.00
H341   H     0.37740   0.88816   0.06655   0.00000  Uiso   1.00
H342   H     0.42175   0.94107   0.08662   0.00000  Uiso   1.00
C343   C     0.35449   0.96421   0.08392   0.00000  Uiso   1.00
H344   H     0.36428   0.67057   0.11232   0.00000  Uiso   1.00
H345   H     0.35326   0.96512   0.03433   0.00000  Uiso   1.00
H346   H     0.32076   0.95084   0.09446   0.00000  Uiso   1.00
O347   O     0.10672   0.73968   0.13098   0.00000  Uiso   1.00
C348   C     0.10246   0.73085   0.06550   0.00000  Uiso   1.00
H349   H     0.13660   0.73189   0.04966   0.00000  Uiso   1.00
H350   H     0.08483   0.76056   0.04628   0.00000  Uiso   1.00
C351   C     0.07761   0.67753   0.03715   0.00000  Uiso   1.00
H352   H     0.04101   0.67908   0.04113   0.00000  Uiso   1.00
H353   H     0.08294   0.99922   0.32072   0.00000  Uiso   1.00
H354   H     0.08981   0.98105   0.06092   0.00000  Uiso   1.00
O355   O     0.23810   0.98014   0.08229   0.00000  Uiso   1.00
C356   C     0.19360   0.98315   0.05837   0.00000  Uiso   1.00
H357   H     0.19380   0.67956   0.03019   0.00000  Uiso   1.00
H358   H     0.17004   0.99268   0.09496   0.00000  Uiso   1.00
C359   C     0.17600   0.93101   0.01609   0.00000  Uiso   1.00
H360   H     0.17292   0.90055   0.04307   0.00000  Uiso   1.00
H361   H     0.14253   0.93391   0.32628   0.00000  Uiso   1.00
H362   H     0.19929   0.91967   0.31351   0.00000  Uiso   1.00
O363   O     0.26850   0.68587   0.24975   0.00000  Uiso   1.00
C364   C     0.31573   0.68924   0.26177   0.00000  Uiso   1.00
H365   H     0.33293   0.70396   0.22551   0.00000  Uiso   1.00
H366   H     0.32720   0.98383   0.26420   0.00000  Uiso   1.00
C367   C     0.32965   0.72713   0.32349   0.00000  Uiso   1.00
H368   H     0.36650   0.72834   0.00141   0.00000  Uiso   1.00
H369   H     0.32096   0.76687   0.32119   0.00000  Uiso   1.00
H370   H     0.31214   0.71456   0.02730   0.00000  Uiso   1.00
C371   C     0.74832   0.73335   0.15116   0.00000  Uiso   1.00
C372   C     0.75259   0.93332   0.18204   0.00000  Uiso   1.00
C373   C     0.51540   0.73995   0.15557   0.00000  Uiso   1.00
C374   C     0.98476   0.92978   0.18674   0.00000  Uiso   1.00
C375   C     0.74642   0.67739   0.14215   0.00000  Uiso   1.00
C376   C     0.75671   0.98919   0.19044   0.00000  Uiso   1.00
C377   C     0.66446   0.83319   0.16740   0.00000  Uiso   1.00
C378   C     0.83553   0.83464   0.16617   0.00000  Uiso   1.00
C379   C     0.91001   0.88198   0.16823   0.00000  Uiso   1.00
C380   C     0.58897   0.78599   0.15541   0.00000  Uiso   1.00
C381   C     0.88369   0.83522   0.16539   0.00000  Uiso   1.00
C382   C     0.61630   0.83330   0.16936   0.00000  Uiso   1.00
C383   C     0.90331   0.78890   0.16450   0.00000  Uiso   1.00
C384   C     0.59757   0.88104   0.18373   0.00000  Uiso   1.00
C385   C     0.94964   0.78809   0.16479   0.00000  Uiso   1.00
C386   C     0.55105   0.88205   0.18308   0.00000  Uiso   1.00
C387   C     0.97680   0.83531   0.17194   0.00000  Uiso   1.00
C388   C     0.52364   0.83469   0.17312   0.00000  Uiso   1.00
C389   C     0.95708   0.88287   0.17603   0.00000  Uiso   1.00
C390   C     0.54285   0.78654   0.16202   0.00000  Uiso   1.00
C391   C     0.96917   0.74084   0.15779   0.00000  Uiso   1.00
C392   C     0.53143   0.92942   0.19127   0.00000  Uiso   1.00
Cu393  Cu    0.75500   0.83913   0.22813   0.00000  Uiso   1.00
Cu394  Cu    0.74499   0.82754   0.10521   0.00000  Uiso   1.00
H395   H     0.88221   0.75353   0.16254   0.00000  Uiso   1.00
H396   H     0.61915   0.91718   0.19282   0.00000  Uiso   1.00
H397   H     0.94848   0.70452   0.15222   0.00000  Uiso   1.00
H398   H     0.55217   0.96603   0.19963   0.00000  Uiso   1.00
H399   H     0.52958   0.70277   0.14906   0.00000  Uiso   1.00
H400   H     0.97039   0.96678   0.19225   0.00000  Uiso   1.00
H401   H     0.71470   0.79237   0.31612   0.00000  Uiso   1.00
H402   H     0.78536   0.87417   0.01718   0.00000  Uiso   1.00
N403   N     0.73744   0.81881   0.01284   0.00000  Uiso   1.00
N404   N     0.76255   0.84786   0.32049   0.00000  Uiso   1.00
O405   O     0.75325   0.76204   0.20659   0.00000  Uiso   1.00
O406   O     0.74674   0.90462   0.12674   0.00000  Uiso   1.00
O407   O     0.74480   0.75226   0.10279   0.00000  Uiso   1.00
O408   O     0.75520   0.91441   0.23055   0.00000  Uiso   1.00
O409   O     0.68935   0.83821   0.21857   0.00000  Uiso   1.00
O410   O     0.81064   0.82845   0.11476   0.00000  Uiso   1.00
O411   O     0.68090   0.82843   0.11477   0.00000  Uiso   1.00
O412   O     0.81910   0.83824   0.21857   0.00000  Uiso   1.00
O413   O     0.88943   0.92579   0.16099   0.00000  Uiso   1.00
C414   C     0.88812   0.92712   0.09777   0.00000  Uiso   1.00
H415   H     0.87740   0.88816   0.06655   0.00000  Uiso   1.00
H416   H     0.92175   0.94107   0.08662   0.00000  Uiso   1.00
C417   C     0.85449   0.96421   0.08392   0.00000  Uiso   1.00
H418   H     0.86428   0.67057   0.11232   0.00000  Uiso   1.00
H419   H     0.85326   0.96512   0.03433   0.00000  Uiso   1.00
H420   H     0.82076   0.95084   0.09446   0.00000  Uiso   1.00
O421   O     0.60672   0.73968   0.13098   0.00000  Uiso   1.00
C422   C     0.60246   0.73085   0.06550   0.00000  Uiso   1.00
H423   H     0.63660   0.73189   0.04966   0.00000  Uiso   1.00
H424   H     0.58483   0.76056   0.04628   0.00000  Uiso   1.00
C425   C     0.57761   0.67753   0.03715   0.00000  Uiso   1.00
H426   H     0.54101   0.67908   0.04113   0.00000  Uiso   1.00
H427   H     0.58294   0.99922   0.32072   0.00000  Uiso   1.00
H428   H     0.58981   0.98105   0.06092   0.00000  Uiso   1.00
O429   O     0.73810   0.98014   0.08229   0.00000  Uiso   1.00
C430   C     0.69360   0.98315   0.05837   0.00000  Uiso   1.00
H431   H     0.69380   0.67956   0.03019   0.00000  Uiso   1.00
H432   H     0.67004   0.99268   0.09496   0.00000  Uiso   1.00
C433   C     0.67600   0.93101   0.01609   0.00000  Uiso   1.00
H434   H     0.67292   0.90055   0.04307   0.00000  Uiso   1.00
H435   H     0.64253   0.93391   0.32628   0.00000  Uiso   1.00
H436   H     0.69929   0.91967   0.31351   0.00000  Uiso   1.00
O437   O     0.76850   0.68587   0.24975   0.00000  Uiso   1.00
C438   C     0.81573   0.68924   0.26177   0.00000  Uiso   1.00
H439   H     0.83293   0.70396   0.22551   0.00000  Uiso   1.00
H440   H     0.82720   0.98383   0.26420   0.00000  Uiso   1.00
C441   C     0.82965   0.72713   0.32349   0.00000  Uiso   1.00
H442   H     0.86650   0.72834   0.00141   0.00000  Uiso   1.00
H443   H     0.82096   0.76687   0.32119   0.00000  Uiso   1.00
H444   H     0.81214   0.71456   0.02730   0.00000  Uiso   1.00
C445   C     0.24832   0.06668   0.48449   0.00000  Uiso   1.00
C446   C     0.25259   0.26665   0.51537   0.00000  Uiso   1.00
C447   C     0.01540   0.07328   0.48890   0.00000  Uiso   1.00
C448   C     0.48476   0.26311   0.52008   0.00000  Uiso   1.00
C449   C     0.24642   0.01073   0.47548   0.00000  Uiso   1.00
C450   C     0.25671   0.32252   0.52377   0.00000  Uiso   1.00
C451   C     0.16446   0.16652   0.50073   0.00000  Uiso   1.00
C452   C     0.33553   0.16797   0.49951   0.00000  Uiso   1.00
C453   C     0.41001   0.21532   0.50156   0.00000  Uiso   1.00
C454   C     0.08897   0.11932   0.48874   0.00000  Uiso   1.00
C455   C     0.38369   0.16855   0.49873   0.00000  Uiso   1.00
C456   C     0.11630   0.16663   0.50269   0.00000  Uiso   1.00
C457   C     0.40331   0.12223   0.49783   0.00000  Uiso   1.00
C458   C     0.09757   0.21437   0.51707   0.00000  Uiso   1.00
C459   C     0.44964   0.12142   0.49812   0.00000  Uiso   1.00
C460   C     0.05105   0.21538   0.51641   0.00000  Uiso   1.00
C461   C     0.47680   0.16864   0.50528   0.00000  Uiso   1.00
C462   C     0.02364   0.16803   0.50646   0.00000  Uiso   1.00
C463   C     0.45708   0.21620   0.50936   0.00000  Uiso   1.00
C464   C     0.04285   0.11988   0.49535   0.00000  Uiso   1.00
C465   C     0.46917   0.07417   0.49112   0.00000  Uiso   1.00
C466   C     0.03143   0.26275   0.52460   0.00000  Uiso   1.00
Cu467  Cu    0.25500   0.17246   0.56146   0.00000  Uiso   1.00
Cu468  Cu    0.24499   0.16087   0.43854   0.00000  Uiso   1.00
H469   H     0.38221   0.08686   0.49587   0.00000  Uiso   1.00
H470   H     0.11915   0.25052   0.52615   0.00000  Uiso   1.00
H471   H     0.44848   0.03786   0.48555   0.00000  Uiso   1.00
H472   H     0.05217   0.29936   0.53296   0.00000  Uiso   1.00
H473   H     0.02958   0.03610   0.48239   0.00000  Uiso   1.00
H474   H     0.47039   0.30012   0.52558   0.00000  Uiso   1.00
H475   H     0.21470   0.12570   0.64945   0.00000  Uiso   1.00
H476   H     0.28536   0.20750   0.35052   0.00000  Uiso   1.00
N477   N     0.23744   0.15214   0.34617   0.00000  Uiso   1.00
N478   N     0.26255   0.18119   0.65383   0.00000  Uiso   1.00
O479   O     0.25325   0.09538   0.53992   0.00000  Uiso   1.00
O480   O     0.24674   0.23796   0.46008   0.00000  Uiso   1.00
O481   O     0.24480   0.08559   0.43612   0.00000  Uiso   1.00
O482   O     0.25520   0.24774   0.56388   0.00000  Uiso   1.00
O483   O     0.18935   0.17155   0.55191   0.00000  Uiso   1.00
O484   O     0.31064   0.16179   0.44809   0.00000  Uiso   1.00
O485   O     0.18090   0.16176   0.44810   0.00000  Uiso   1.00
O486   O     0.31910   0.17157   0.55190   0.00000  Uiso   1.00
O487   O     0.38943   0.25913   0.49432   0.00000  Uiso   1.00
C488   C     0.38812   0.26045   0.43110   0.00000  Uiso   1.00
H489   H     0.37740   0.22149   0.39989   0.00000  Uiso   1.00
H490   H     0.42175   0.27440   0.41995   0.00000  Uiso   1.00
C491   C     0.35449   0.29755   0.41725   0.00000  Uiso   1.00
H492   H     0.36428   0.00391   0.44565   0.00000  Uiso   1.00
H493   H     0.35326   0.29846   0.36767   0.00000  Uiso   1.00
H494   H     0.32076   0.28417   0.42779   0.00000  Uiso   1.00
O495   O     0.10672   0.07301   0.46431   0.00000  Uiso   1.00
C496   C     0.10246   0.06418   0.39883   0.00000  Uiso   1.00
H497   H     0.13660   0.06523   0.38299   0.00000  Uiso   1.00
H498   H     0.08483   0.09390   0.37962   0.00000  Uiso   1.00
C499   C     0.07761   0.01086   0.37048   0.00000  Uiso   1.00
H500   H     0.04101   0.01241   0.37446   0.00000  Uiso   1.00
H501   H     0.08294   0.33255   0.65406   0.00000  Uiso   1.00
H502   H     0.08981   0.31438   0.39425   0.00000  Uiso   1.00
O503   O     0.23810   0.31348   0.41563   0.00000  Uiso   1.00
C504   C     0.19360   0.31648   0.39171   0.00000  Uiso   1.00
H505   H     0.19380   0.01289   0.36352   0.00000  Uiso   1.00
H506   H     0.17004   0.32601   0.42829   0.00000  Uiso   1.00
C507   C     0.17600   0.26434   0.34942   0.00000  Uiso   1.00
H508   H     0.17292   0.23389   0.37641   0.00000  Uiso   1.00
H509   H     0.14253   0.26724   0.65961   0.00000  Uiso   1.00
H510   H     0.19929   0.25300   0.64685   0.00000  Uiso   1.00
O511   O     0.26850   0.01920   0.58308   0.00000  Uiso   1.00
C512   C     0.31573   0.02257   0.59510   0.00000  Uiso   1.00
H513   H     0.33293   0.03729   0.55884   0.00000  Uiso   1.00
H514   H     0.32720   0.31716   0.59754   0.00000  Uiso   1.00
C515   C     0.32965   0.06046   0.65683   0.00000  Uiso   1.00
H516   H     0.36650   0.06167   0.33475   0.00000  Uiso   1.00
H517   H     0.32096   0.10020   0.65453   0.00000  Uiso   1.00
H518   H     0.31214   0.04789   0.36063   0.00000  Uiso   1.00
C519   C     0.74832   0.06668   0.48449   0.00000  Uiso   1.00
C520   C     0.75259   0.26665   0.51537   0.00000  Uiso   1.00
C521   C     0.51540   0.07328   0.48890   0.00000  Uiso   1.00
C522   C     0.98476   0.26311   0.52008   0.00000  Uiso   1.00
C523   C     0.74642   0.01073   0.47548   0.00000  Uiso   1.00
C524   C     0.75671   0.32252   0.52377   0.00000  Uiso   1.00
C525   C     0.66446   0.16652   0.50073   0.00000  Uiso   1.00
C526   C     0.83553   0.16797   0.49951   0.00000  Uiso   1.00
C527   C     0.91001   0.21532   0.50156   0.00000  Uiso   1.00
C528   C     0.58897   0.11932   0.48874   0.00000  Uiso   1.00
C529   C     0.88369   0.16855   0.49873   0.00000  Uiso   1.00
C530   C     0.61630   0.16663   0.50269   0.00000  Uiso   1.00
C531   C     0.90331   0.12223   0.49783   0.00000  Uiso   1.00
C532   C     0.59757   0.21437   0.51707   0.00000  Uiso   1.00
C533   C     0.94964   0.12142   0.49812   0.00000  Uiso   1.00
C534   C     0.55105   0.21538   0.51641   0.00000  Uiso   1.00
C535   C     0.97680   0.16864   0.50528   0.00000  Uiso   1.00
C536   C     0.52364   0.16803   0.50646   0.00000  Uiso   1.00
C537   C     0.95708   0.21620   0.50936   0.00000  Uiso   1.00
C538   C     0.54285   0.11988   0.49535   0.00000  Uiso   1.00
C539   C     0.96917   0.07417   0.49112   0.00000  Uiso   1.00
C540   C     0.53143   0.26275   0.52460   0.00000  Uiso   1.00
Cu541  Cu    0.75500   0.17246   0.56146   0.00000  Uiso   1.00
Cu542  Cu    0.74499   0.16087   0.43854   0.00000  Uiso   1.00
H543   H     0.88221   0.08686   0.49587   0.00000  Uiso   1.00
H544   H     0.61915   0.25052   0.52615   0.00000  Uiso   1.00
H545   H     0.94848   0.03786   0.48555   0.00000  Uiso   1.00
H546   H     0.55217   0.29936   0.53296   0.00000  Uiso   1.00
H547   H     0.52958   0.03610   0.48239   0.00000  Uiso   1.00
H548   H     0.97039   0.30012   0.52558   0.00000  Uiso   1.00
H549   H     0.71470   0.12570   0.64945   0.00000  Uiso   1.00
H550   H     0.78536   0.20750   0.35052   0.00000  Uiso   1.00
N551   N     0.73744   0.15214   0.34617   0.00000  Uiso   1.00
N552   N     0.76255   0.18119   0.65383   0.00000  Uiso   1.00
O553   O     0.75325   0.09538   0.53992   0.00000  Uiso   1.00
O554   O     0.74674   0.23796   0.46008   0.00000  Uiso   1.00
O555   O     0.74480   0.08559   0.43612   0.00000  Uiso   1.00
O556   O     0.75520   0.24774   0.56388   0.00000  Uiso   1.00
O557   O     0.68935   0.17155   0.55191   0.00000  Uiso   1.00
O558   O     0.81064   0.16179   0.44809   0.00000  Uiso   1.00
O559   O     0.68090   0.16176   0.44810   0.00000  Uiso   1.00
O560   O     0.81910   0.17157   0.55190   0.00000  Uiso   1.00
O561   O     0.88943   0.25913   0.49432   0.00000  Uiso   1.00
C562   C     0.88812   0.26045   0.43110   0.00000  Uiso   1.00
H563   H     0.87740   0.22149   0.39989   0.00000  Uiso   1.00
H564   H     0.92175   0.27440   0.41995   0.00000  Uiso   1.00
C565   C     0.85449   0.29755   0.41725   0.00000  Uiso   1.00
H566   H     0.86428   0.00391   0.44565   0.00000  Uiso   1.00
H567   H     0.85326   0.29846   0.36767   0.00000  Uiso   1.00
H568   H     0.82076   0.28417   0.42779   0.00000  Uiso   1.00
O569   O     0.60672   0.07301   0.46431   0.00000  Uiso   1.00
C570   C     0.60246   0.06418   0.39883   0.00000  Uiso   1.00
H571   H     0.63660   0.06523   0.38299   0.00000  Uiso   1.00
H572   H     0.58483   0.09390   0.37962   0.00000  Uiso   1.00
C573   C     0.57761   0.01086   0.37048   0.00000  Uiso   1.00
H574   H     0.54101   0.01241   0.37446   0.00000  Uiso   1.00
H575   H     0.58294   0.33255   0.65406   0.00000  Uiso   1.00
H576   H     0.58981   0.31438   0.39425   0.00000  Uiso   1.00
O577   O     0.73810   0.31348   0.41563   0.00000  Uiso   1.00
C578   C     0.69360   0.31648   0.39171   0.00000  Uiso   1.00
H579   H     0.69380   0.01289   0.36352   0.00000  Uiso   1.00
H580   H     0.67004   0.32601   0.42829   0.00000  Uiso   1.00
C581   C     0.67600   0.26434   0.34942   0.00000  Uiso   1.00
H582   H     0.67292   0.23389   0.37641   0.00000  Uiso   1.00
H583   H     0.64253   0.26724   0.65961   0.00000  Uiso   1.00
H584   H     0.69929   0.25300   0.64685   0.00000  Uiso   1.00
O585   O     0.76850   0.01920   0.58308   0.00000  Uiso   1.00
C586   C     0.81573   0.02257   0.59510   0.00000  Uiso   1.00
H587   H     0.83293   0.03729   0.55884   0.00000  Uiso   1.00
H588   H     0.82720   0.31716   0.59754   0.00000  Uiso   1.00
C589   C     0.82965   0.06046   0.65683   0.00000  Uiso   1.00
H590   H     0.86650   0.06167   0.33475   0.00000  Uiso   1.00
H591   H     0.82096   0.10020   0.65453   0.00000  Uiso   1.00
H592   H     0.81214   0.04789   0.36063   0.00000  Uiso   1.00
C593   C     0.24832   0.40001   0.48449   0.00000  Uiso   1.00
C594   C     0.25259   0.59998   0.51537   0.00000  Uiso   1.00
C595   C     0.01540   0.40661   0.48890   0.00000  Uiso   1.00
C596   C     0.48476   0.59645   0.52008   0.00000  Uiso   1.00
C597   C     0.24642   0.34406   0.47548   0.00000  Uiso   1.00
C598   C     0.25671   0.65585   0.52377   0.00000  Uiso   1.00
C599   C     0.16446   0.49986   0.50073   0.00000  Uiso   1.00
C600   C     0.33553   0.50130   0.49951   0.00000  Uiso   1.00
C601   C     0.41001   0.54865   0.50156   0.00000  Uiso   1.00
C602   C     0.08897   0.45266   0.48874   0.00000  Uiso   1.00
C603   C     0.38369   0.50188   0.49873   0.00000  Uiso   1.00
C604   C     0.11630   0.49997   0.50269   0.00000  Uiso   1.00
C605   C     0.40331   0.45556   0.49783   0.00000  Uiso   1.00
C606   C     0.09757   0.54770   0.51707   0.00000  Uiso   1.00
C607   C     0.44964   0.45475   0.49812   0.00000  Uiso   1.00
C608   C     0.05105   0.54872   0.51641   0.00000  Uiso   1.00
C609   C     0.47680   0.50198   0.50528   0.00000  Uiso   1.00
C610   C     0.02364   0.50136   0.50646   0.00000  Uiso   1.00
C611   C     0.45708   0.54953   0.50936   0.00000  Uiso   1.00
C612   C     0.04285   0.45321   0.49535   0.00000  Uiso   1.00
C613   C     0.46917   0.40750   0.49112   0.00000  Uiso   1.00
C614   C     0.03143   0.59609   0.52460   0.00000  Uiso   1.00
Cu615  Cu    0.25500   0.50579   0.56146   0.00000  Uiso   1.00
Cu616  Cu    0.24499   0.49421   0.43854   0.00000  Uiso   1.00
H617   H     0.38221   0.42020   0.49587   0.00000  Uiso   1.00
H618   H     0.11915   0.58385   0.52615   0.00000  Uiso   1.00
H619   H     0.44848   0.37119   0.48555   0.00000  Uiso   1.00
H620   H     0.05217   0.63270   0.53296   0.00000  Uiso   1.00
H621   H     0.02958   0.36943   0.48239   0.00000  Uiso   1.00
H622   H     0.47039   0.63345   0.52558   0.00000  Uiso   1.00
H623   H     0.21470   0.45904   0.64945   0.00000  Uiso   1.00
H624   H     0.28536   0.54084   0.35052   0.00000  Uiso   1.00
N625   N     0.23744   0.48547   0.34617   0.00000  Uiso   1.00
N626   N     0.26255   0.51453   0.65383   0.00000  Uiso   1.00
O627   O     0.25325   0.42871   0.53992   0.00000  Uiso   1.00
O628   O     0.24674   0.57129   0.46008   0.00000  Uiso   1.00
O629   O     0.24480   0.41892   0.43612   0.00000  Uiso   1.00
O630   O     0.25520   0.58108   0.56388   0.00000  Uiso   1.00
O631   O     0.18935   0.50488   0.55191   0.00000  Uiso   1.00
O632   O     0.31064   0.49512   0.44809   0.00000  Uiso   1.00
O633   O     0.18090   0.49510   0.44810   0.00000  Uiso   1.00
O634   O     0.31910   0.50490   0.55190   0.00000  Uiso   1.00
O635   O     0.38943   0.59246   0.49432   0.00000  Uiso   1.00
C636   C     0.38812   0.59379   0.43110   0.00000  Uiso   1.00
H637   H     0.37740   0.55483   0.39989   0.00000  Uiso   1.00
H638   H     0.42175   0.60773   0.41995   0.00000  Uiso   1.00
C639   C     0.35449   0.63088   0.41725   0.00000  Uiso   1.00
H640   H     0.36428   0.33724   0.44565   0.00000  Uiso   1.00
H641   H     0.35326   0.63179   0.36767   0.00000  Uiso   1.00
H642   H     0.32076   0.61750   0.42779   0.00000  Uiso   1.00
O643   O     0.10672   0.40634   0.46431   0.00000  Uiso   1.00
C644   C     0.10246   0.39752   0.39883   0.00000  Uiso   1.00
H645   H     0.13660   0.39856   0.38299   0.00000  Uiso   1.00
H646   H     0.08483   0.42723   0.37962   0.00000  Uiso   1.00
C647   C     0.07761   0.34419   0.37048   0.00000  Uiso   1.00
H648   H     0.04101   0.34575   0.37446   0.00000  Uiso   1.00
H649   H     0.08294   0.66589   0.65406   0.00000  Uiso   1.00
H650   H     0.08981   0.64771   0.39425   0.00000  Uiso   1.00
O651   O     0.23810   0.64681   0.41563   0.00000  Uiso   1.00
C652   C     0.19360   0.64981   0.39171   0.00000  Uiso   1.00
H653   H     0.19380   0.34623   0.36352   0.00000  Uiso   1.00
H654   H     0.17004   0.65935   0.42829   0.00000  Uiso   1.00
C655   C     0.17600   0.59767   0.34942   0.00000  Uiso   1.00
H656   H     0.17292   0.56722   0.37641   0.00000  Uiso   1.00
H657   H     0.14253   0.60057   0.65961   0.00000  Uiso   1.00
H658   H     0.19929   0.58633   0.64685   0.00000  Uiso   1.00
O659   O     0.26850   0.35254   0.58308   0.00000  Uiso   1.00
C660   C     0.31573   0.35591   0.59510   0.00000  Uiso   1.00
H661   H     0.33293   0.37063   0.55884   0.00000  Uiso   1.00
H662   H     0.32720   0.65049   0.59754   0.00000  Uiso   1.00
C663   C     0.32965   0.39380   0.65683   0.00000  Uiso   1.00
H664   H     0.36650   0.39501   0.33475   0.00000  Uiso   1.00
H665   H     0.32096   0.43354   0.65453   0.00000  Uiso   1.00
H666   H     0.31214   0.38123   0.36063   0.00000  Uiso   1.00
C667   C     0.74832   0.40001   0.48449   0.00000  Uiso   1.00
C668   C     0.75259   0.59998   0.51537   0.00000  Uiso   1.00
C669   C     0.51540   0.40661   0.48890   0.00000  Uiso   1.00
C670   C     0.98476   0.59645   0.52008   0.00000  Uiso   1.00
C671   C     0.74642   0.34406   0.47548   0.00000  Uiso   1.00
C672   C     0.75671   0.65585   0.52377   0.00000  Uiso   1.00
C673   C     0.66446   0.49986   0.50073   0.00000  Uiso   1.00
C674   C     0.83553   0.50130   0.49951   0.00000  Uiso   1.00
C675   C     0.91001   0.54865   0.50156   0.00000  Uiso   1.00
C676   C     0.58897   0.45266   0.48874   0.00000  Uiso   1.00
C677   C     0.88369   0.50188   0.49873   0.00000  Uiso   1.00
C678   C     0.61630   0.49997   0.50269   0.00000  Uiso   1.00
C679   C     0.90331   0.45556   0.49783   0.00000  Uiso   1.00
C680   C     0.59757   0.54770   0.51707   0.00000  Uiso   1.00
C681   C     0.94964   0.45475   0.49812   0.00000  Uiso   1.00
C682   C     0.55105   0.54872   0.51641   0.00000  Uiso   1.00
C683   C     0.97680   0.50198   0.50528   0.00000  Uiso   1.00
C684   C     0.52364   0.50136   0.50646   0.00000  Uiso   1.00
C685   C     0.95708   0.54953   0.50936   0.00000  Uiso   1.00
C686   C     0.54285   0.45321   0.49535   0.00000  Uiso   1.00
C687   C     0.96917   0.40750   0.49112   0.00000  Uiso   1.00
C688   C     0.53143   0.59609   0.52460   0.00000  Uiso   1.00
Cu689  Cu    0.75500   0.50579   0.56146   0.00000  Uiso   1.00
Cu690  Cu    0.74499   0.49421   0.43854   0.00000  Uiso   1.00
H691   H     0.88221   0.42020   0.49587   0.00000  Uiso   1.00
H692   H     0.61915   0.58385   0.52615   0.00000  Uiso   1.00
H693   H     0.94848   0.37119   0.48555   0.00000  Uiso   1.00
H694   H     0.55217   0.63270   0.53296   0.00000  Uiso   1.00
H695   H     0.52958   0.36943   0.48239   0.00000  Uiso   1.00
H696   H     0.97039   0.63345   0.52558   0.00000  Uiso   1.00
H697   H     0.71470   0.45904   0.64945   0.00000  Uiso   1.00
H698   H     0.78536   0.54084   0.35052   0.00000  Uiso   1.00
N699   N     0.73744   0.48547   0.34617   0.00000  Uiso   1.00
N700   N     0.76255   0.51453   0.65383   0.00000  Uiso   1.00
O701   O     0.75325   0.42871   0.53992   0.00000  Uiso   1.00
O702   O     0.74674   0.57129   0.46008   0.00000  Uiso   1.00
O703   O     0.74480   0.41892   0.43612   0.00000  Uiso   1.00
O704   O     0.75520   0.58108   0.56388   0.00000  Uiso   1.00
O705   O     0.68935   0.50488   0.55191   0.00000  Uiso   1.00
O706   O     0.81064   0.49512   0.44809   0.00000  Uiso   1.00
O707   O     0.68090   0.49510   0.44810   0.00000  Uiso   1.00
O708   O     0.81910   0.50490   0.55190   0.00000  Uiso   1.00
O709   O     0.88943   0.59246   0.49432   0.00000  Uiso   1.00
C710   C     0.88812   0.59379   0.43110   0.00000  Uiso   1.00
H711   H     0.87740   0.55483   0.39989   0.00000  Uiso   1.00
H712   H     0.92175   0.60773   0.41995   0.00000  Uiso   1.00
C713   C     0.85449   0.63088   0.41725   0.00000  Uiso   1.00
H714   H     0.86428   0.33724   0.44565   0.00000  Uiso   1.00
H715   H     0.85326   0.63179   0.36767   0.00000  Uiso   1.00
H716   H     0.82076   0.61750   0.42779   0.00000  Uiso   1.00
O717   O     0.60672   0.40634   0.46431   0.00000  Uiso   1.00
C718   C     0.60246   0.39752   0.39883   0.00000  Uiso   1.00
H719   H     0.63660   0.39856   0.38299   0.00000  Uiso   1.00
H720   H     0.58483   0.42723   0.37962   0.00000  Uiso   1.00
C721   C     0.57761   0.34419   0.37048   0.00000  Uiso   1.00
H722   H     0.54101   0.34575   0.37446   0.00000  Uiso   1.00
H723   H     0.58294   0.66589   0.65406   0.00000  Uiso   1.00
H724   H     0.58981   0.64771   0.39425   0.00000  Uiso   1.00
O725   O     0.73810   0.64681   0.41563   0.00000  Uiso   1.00
C726   C     0.69360   0.64981   0.39171   0.00000  Uiso   1.00
H727   H     0.69380   0.34623   0.36352   0.00000  Uiso   1.00
H728   H     0.67004   0.65935   0.42829   0.00000  Uiso   1.00
C729   C     0.67600   0.59767   0.34942   0.00000  Uiso   1.00
H730   H     0.67292   0.56722   0.37641   0.00000  Uiso   1.00
H731   H     0.64253   0.60057   0.65961   0.00000  Uiso   1.00
H732   H     0.69929   0.58633   0.64685   0.00000  Uiso   1.00
O733   O     0.76850   0.35254   0.58308   0.00000  Uiso   1.00
C734   C     0.81573   0.35591   0.59510   0.00000  Uiso   1.00
H735   H     0.83293   0.37063   0.55884   0.00000  Uiso   1.00
H736   H     0.82720   0.65049   0.59754   0.00000  Uiso   1.00
C737   C     0.82965   0.39380   0.65683   0.00000  Uiso   1.00
H738   H     0.86650   0.39501   0.33475   0.00000  Uiso   1.00
H739   H     0.82096   0.43354   0.65453   0.00000  Uiso   1.00
H740   H     0.81214   0.38123   0.36063   0.00000  Uiso   1.00
C741   C     0.24832   0.73335   0.48449   0.00000  Uiso   1.00
C742   C     0.25259   0.93332   0.51537   0.00000  Uiso   1.00
C743   C     0.01540   0.73995   0.48890   0.00000  Uiso   1.00
C744   C     0.48476   0.92978   0.52008   0.00000  Uiso   1.00
C745   C     0.24642   0.67739   0.47548   0.00000  Uiso   1.00
C746   C     0.25671   0.98919   0.52377   0.00000  Uiso   1.00
C747   C     0.16446   0.83319   0.50073   0.00000  Uiso   1.00
C748   C     0.33553   0.83464   0.49951   0.00000  Uiso   1.00
C749   C     0.41001   0.88198   0.50156   0.00000  Uiso   1.00
C750   C     0.08897   0.78599   0.48874   0.00000  Uiso   1.00
C751   C     0.38369   0.83522   0.49873   0.00000  Uiso   1.00
C752   C     0.11630   0.83330   0.50269   0.00000  Uiso   1.00
C753   C     0.40331   0.78890   0.49783   0.00000  Uiso   1.00
C754   C     0.09757   0.88104   0.51707   0.00000  Uiso   1.00
C755   C     0.44964   0.78809   0.49812   0.00000  Uiso   1.00
C756   C     0.05105   0.88205   0.51641   0.00000  Uiso   1.00
C757   C     0.47680   0.83531   0.50528   0.00000  Uiso   1.00
C758   C     0.02364   0.83469   0.50646   0.00000  Uiso   1.00
C759   C     0.45708   0.88287   0.50936   0.00000  Uiso   1.00
C760   C     0.04285   0.78654   0.49535   0.00000  Uiso   1.00
C761   C     0.46917   0.74084   0.49112   0.00000  Uiso   1.00
C762   C     0.03143   0.92942   0.52460   0.00000  Uiso   1.00
Cu763  Cu    0.25500   0.83913   0.56146   0.00000  Uiso   1.00
Cu764  Cu    0.24499   0.82754   0.43854   0.00000  Uiso   1.00
H765   H     0.38221   0.75353   0.49587   0.00000  Uiso   1.00
H766   H     0.11915   0.91718   0.52615   0.00000  Uiso   1.00
H767   H     0.44848   0.70452   0.48555   0.00000  Uiso   1.00
H768   H     0.05217   0.96603   0.53296   0.00000  Uiso   1.00
H769   H     0.02958   0.70277   0.48239   0.00000  Uiso   1.00
H770   H     0.47039   0.96678   0.52558   0.00000  Uiso   1.00
H771   H     0.21470   0.79237   0.64945   0.00000  Uiso   1.00
H772   H     0.28536   0.87417   0.35052   0.00000  Uiso   1.00
N773   N     0.23744   0.81881   0.34617   0.00000  Uiso   1.00
N774   N     0.26255   0.84786   0.65383   0.00000  Uiso   1.00
O775   O     0.25325   0.76204   0.53992   0.00000  Uiso   1.00
O776   O     0.24674   0.90462   0.46008   0.00000  Uiso   1.00
O777   O     0.24480   0.75226   0.43612   0.00000  Uiso   1.00
O778   O     0.25520   0.91441   0.56388   0.00000  Uiso   1.00
O779   O     0.18935   0.83821   0.55191   0.00000  Uiso   1.00
O780   O     0.31064   0.82845   0.44809   0.00000  Uiso   1.00
O781   O     0.18090   0.82843   0.44810   0.00000  Uiso   1.00
O782   O     0.31910   0.83824   0.55190   0.00000  Uiso   1.00
O783   O     0.38943   0.92579   0.49432   0.00000  Uiso   1.00
C784   C     0.38812   0.92712   0.43110   0.00000  Uiso   1.00
H785   H     0.37740   0.88816   0.39989   0.00000  Uiso   1.00
H786   H     0.42175   0.94107   0.41995   0.00000  Uiso   1.00
C787   C     0.35449   0.96421   0.41725   0.00000  Uiso   1.00
H788   H     0.36428   0.67057   0.44565   0.00000  Uiso   1.00
H789   H     0.35326   0.96512   0.36767   0.00000  Uiso   1.00
H790   H     0.32076   0.95084   0.42779   0.00000  Uiso   1.00
O791   O     0.10672   0.73968   0.46431   0.00000  Uiso   1.00
C792   C     0.10246   0.73085   0.39883   0.00000  Uiso   1.00
H793   H     0.13660   0.73189   0.38299   0.00000  Uiso   1.00
H794   H     0.08483   0.76056   0.37962   0.00000  Uiso   1.00
C795   C     0.07761   0.67753   0.37048   0.00000  Uiso   1.00
H796   H     0.04101   0.67908   0.37446   0.00000  Uiso   1.00
H797   H     0.08294   0.99922   0.65406   0.00000  Uiso   1.00
H798   H     0.08981   0.98105   0.39425   0.00000  Uiso   1.00
O799   O     0.23810   0.98014   0.41563   0.00000  Uiso   1.00
C800   C     0.19360   0.98315   0.39171   0.00000  Uiso   1.00
H801   H     0.19380   0.67956   0.36352   0.00000  Uiso   1.00
H802   H     0.17004   0.99268   0.42829   0.00000  Uiso   1.00
C803   C     0.17600   0.93101   0.34942   0.00000  Uiso   1.00
H804   H     0.17292   0.90055   0.37641   0.00000  Uiso   1.00
H805   H     0.14253   0.93391   0.65961   0.00000  Uiso   1.00
H806   H     0.19929   0.91967   0.64685   0.00000  Uiso   1.00
O807   O     0.26850   0.68587   0.58308   0.00000  Uiso   1.00
C808   C     0.31573   0.68924   0.59510   0.00000  Uiso   1.00
H809   H     0.33293   0.70396   0.55884   0.00000  Uiso   1.00
H810   H     0.32720   0.98383   0.59754   0.00000  Uiso   1.00
C811   C     0.32965   0.72713   0.65683   0.00000  Uiso   1.00
H812   H     0.36650   0.72834   0.33475   0.00000  Uiso   1.00
H813   H     0.32096   0.76687   0.65453   0.00000  Uiso   1.00
H814   H     0.31214   0.71456   0.36063   0.00000  Uiso   1.00
C815   C     0.74832   0.73335   0.48449   0.00000  Uiso   1.00
C816   C     0.75259   0.93332   0.51537   0.00000  Uiso   1.00
C817   C     0.51540   0.73995   0.48890   0.00000  Uiso   1.00
C818   C     0.98476   0.92978   0.52008   0.00000  Uiso   1.00
C819   C     0.74642   0.67739   0.47548   0.00000  Uiso   1.00
C820   C     0.75671   0.98919   0.52377   0.00000  Uiso   1.00
C821   C     0.66446   0.83319   0.50073   0.00000  Uiso   1.00
C822   C     0.83553   0.83464   0.49951   0.00000  Uiso   1.00
C823   C     0.91001   0.88198   0.50156   0.00000  Uiso   1.00
C824   C     0.58897   0.78599   0.48874   0.00000  Uiso   1.00
C825   C     0.88369   0.83522   0.49873   0.00000  Uiso   1.00
C826   C     0.61630   0.83330   0.50269   0.00000  Uiso   1.00
C827   C     0.90331   0.78890   0.49783   0.00000  Uiso   1.00
C828   C     0.59757   0.88104   0.51707   0.00000  Uiso   1.00
C829   C     0.94964   0.78809   0.49812   0.00000  Uiso   1.00
C830   C     0.55105   0.88205   0.51641   0.00000  Uiso   1.00
C831   C     0.97680   0.83531   0.50528   0.00000  Uiso   1.00
C832   C     0.52364   0.83469   0.50646   0.00000  Uiso   1.00
C833   C     0.95708   0.88287   0.50936   0.00000  Uiso   1.00
C834   C     0.54285   0.78654   0.49535   0.00000  Uiso   1.00
C835   C     0.96917   0.74084   0.49112   0.00000  Uiso   1.00
C836   C     0.53143   0.92942   0.52460   0.00000  Uiso   1.00
Cu837  Cu    0.75500   0.83913   0.56146   0.00000  Uiso   1.00
Cu838  Cu    0.74499   0.82754   0.43854   0.00000  Uiso   1.00
H839   H     0.88221   0.75353   0.49587   0.00000  Uiso   1.00
H840   H     0.61915   0.91718   0.52615   0.00000  Uiso   1.00
H841   H     0.94848   0.70452   0.48555   0.00000  Uiso   1.00
H842   H     0.55217   0.96603   0.53296   0.00000  Uiso   1.00
H843   H     0.52958   0.70277   0.48239   0.00000  Uiso   1.00
H844   H     0.97039   0.96678   0.52558   0.00000  Uiso   1.00
H845   H     0.71470   0.79237   0.64945   0.00000  Uiso   1.00
H846   H     0.78536   0.87417   0.35052   0.00000  Uiso   1.00
N847   N     0.73744   0.81881   0.34617   0.00000  Uiso   1.00
N848   N     0.76255   0.84786   0.65383   0.00000  Uiso   1.00
O849   O     0.75325   0.76204   0.53992   0.00000  Uiso   1.00
O850   O     0.74674   0.90462   0.46008   0.00000  Uiso   1.00
O851   O     0.74480   0.75226   0.43612   0.00000  Uiso   1.00
O852   O     0.75520   0.91441   0.56388   0.00000  Uiso   1.00
O853   O     0.68935   0.83821   0.55191   0.00000  Uiso   1.00
O854   O     0.81064   0.82845   0.44809   0.00000  Uiso   1.00
O855   O     0.68090   0.82843   0.44810   0.00000  Uiso   1.00
O856   O     0.81910   0.83824   0.55190   0.00000  Uiso   1.00
O857   O     0.88943   0.92579   0.49432   0.00000  Uiso   1.00
C858   C     0.88812   0.92712   0.43110   0.00000  Uiso   1.00
H859   H     0.87740   0.88816   0.39989   0.00000  Uiso   1.00
H860   H     0.92175   0.94107   0.41995   0.00000  Uiso   1.00
C861   C     0.85449   0.96421   0.41725   0.00000  Uiso   1.00
H862   H     0.86428   0.67057   0.44565   0.00000  Uiso   1.00
H863   H     0.85326   0.96512   0.36767   0.00000  Uiso   1.00
H864   H     0.82076   0.95084   0.42779   0.00000  Uiso   1.00
O865   O     0.60672   0.73968   0.46431   0.00000  Uiso   1.00
C866   C     0.60246   0.73085   0.39883   0.00000  Uiso   1.00
H867   H     0.63660   0.73189   0.38299   0.00000  Uiso   1.00
H868   H     0.58483   0.76056   0.37962   0.00000  Uiso   1.00
C869   C     0.57761   0.67753   0.37048   0.00000  Uiso   1.00
H870   H     0.54101   0.67908   0.37446   0.00000  Uiso   1.00
H871   H     0.58294   0.99922   0.65406   0.00000  Uiso   1.00
H872   H     0.58981   0.98105   0.39425   0.00000  Uiso   1.00
O873   O     0.73810   0.98014   0.41563   0.00000  Uiso   1.00
C874   C     0.69360   0.98315   0.39171   0.00000  Uiso   1.00
H875   H     0.69380   0.67956   0.36352   0.00000  Uiso   1.00
H876   H     0.67004   0.99268   0.42829   0.00000  Uiso   1.00
C877   C     0.67600   0.93101   0.34942   0.00000  Uiso   1.00
H878   H     0.67292   0.90055   0.37641   0.00000  Uiso   1.00
H879   H     0.64253   0.93391   0.65961   0.00000  Uiso   1.00
H880   H     0.69929   0.91967   0.64685   0.00000  Uiso   1.00
O881   O     0.76850   0.68587   0.58308   0.00000  Uiso   1.00
C882   C     0.81573   0.68924   0.59510   0.00000  Uiso   1.00
H883   H     0.83293   0.70396   0.55884   0.00000  Uiso   1.00
H884   H     0.82720   0.98383   0.59754   0.00000  Uiso   1.00
C885   C     0.82965   0.72713   0.65683   0.00000  Uiso   1.00
H886   H     0.86650   0.72834   0.33475   0.00000  Uiso   1.00
H887   H     0.82096   0.76687   0.65453   0.00000  Uiso   1.00
H888   H     0.81214   0.71456   0.36063   0.00000  Uiso   1.00
C889   C     0.24832   0.06668   0.81782   0.00000  Uiso   1.00
C890   C     0.25259   0.26665   0.84871   0.00000  Uiso   1.00
C891   C     0.01540   0.07328   0.82223   0.00000  Uiso   1.00
C892   C     0.48476   0.26311   0.85341   0.00000  Uiso   1.00
C893   C     0.24642   0.01073   0.80882   0.00000  Uiso   1.00
C894   C     0.25671   0.32252   0.85710   0.00000  Uiso   1.00
C895   C     0.16446   0.16652   0.83407   0.00000  Uiso   1.00
C896   C     0.33553   0.16797   0.83284   0.00000  Uiso   1.00
C897   C     0.41001   0.21532   0.83490   0.00000  Uiso   1.00
C898   C     0.08897   0.11932   0.82207   0.00000  Uiso   1.00
C899   C     0.38369   0.16855   0.83206   0.00000  Uiso   1.00
C900   C     0.11630   0.16663   0.83603   0.00000  Uiso   1.00
C901   C     0.40331   0.12223   0.83116   0.00000  Uiso   1.00
C902   C     0.09757   0.21437   0.85040   0.00000  Uiso   1.00
C903   C     0.44964   0.12142   0.83146   0.00000  Uiso   1.00
C904   C     0.05105   0.21538   0.84975   0.00000  Uiso   1.00
C905   C     0.47680   0.16864   0.83861   0.00000  Uiso   1.00
C906   C     0.02364   0.16803   0.83979   0.00000  Uiso   1.00
C907   C     0.45708   0.21620   0.84269   0.00000  Uiso   1.00
C908   C     0.04285   0.11988   0.82868   0.00000  Uiso   1.00
C909   C     0.46917   0.07417   0.82446   0.00000  Uiso   1.00
C910   C     0.03143   0.26275   0.85793   0.00000  Uiso   1.00
Cu911  Cu    0.25500   0.17246   0.89479   0.00000  Uiso   1.00
Cu912  Cu    0.24499   0.16087   0.77187   0.00000  Uiso   1.00
H913   H     0.38221   0.08686   0.82920   0.00000  Uiso   1.00
H914   H     0.11915   0.25052   0.85948   0.00000  Uiso   1.00
H915   H     0.44848   0.03786   0.81888   0.00000  Uiso   1.00
H916   H     0.05217   0.29936   0.86630   0.00000  Uiso   1.00
H917   H     0.02958   0.03610   0.81573   0.00000  Uiso   1.00
H918   H     0.47039   0.30012   0.85891   0.00000  Uiso   1.00
H919   H     0.21470   0.12570   0.98278   0.00000  Uiso   1.00
H920   H     0.28536   0.20750   0.68385   0.00000  Uiso   1.00
N921   N     0.23744   0.15214   0.67951   0.00000  Uiso   1.00
N922   N     0.26255   0.18119   0.98716   0.00000  Uiso   1.00
O923   O     0.25325   0.09538   0.87326   0.00000  Uiso   1.00
O924   O     0.24674   0.23796   0.79341   0.00000  Uiso   1.00
O925   O     0.24480   0.08559   0.76945   0.00000  Uiso   1.00
O926   O     0.25520   0.24774   0.89721   0.00000  Uiso   1.00
O927   O     0.18935   0.17155   0.88524   0.00000  Uiso   1.00
O928   O     0.31064   0.16179   0.78143   0.00000  Uiso   1.00
O929   O     0.18090   0.16176   0.78143   0.00000  Uiso   1.00
O930   O     0.31910   0.17157   0.88523   0.00000  Uiso   1.00
O931   O     0.38943   0.25913   0.82766   0.00000  Uiso   1.00
C932   C     0.38812   0.26045   0.76443   0.00000  Uiso   1.00
H933   H     0.37740   0.22149   0.73322   0.00000  Uiso   1.00
H934   H     0.42175   0.27440   0.75328   0.00000  Uiso   1.00
C935   C     0.35449   0.29755   0.75058   0.00000  Uiso   1.00
H936   H     0.36428   0.00391   0.77898   0.00000  Uiso   1.00
H937   H     0.35326   0.29846   0.70100   0.00000  Uiso   1.00
H938   H     0.32076   0.28417   0.76112   0.00000  Uiso   1.00
O939   O     0.10672   0.07301   0.79764   0.00000  Uiso   1.00
C940   C     0.10246   0.06418   0.73216   0.00000  Uiso   1.00
H941   H     0.13660   0.06523   0.71632   0.00000  Uiso   1.00
H942   H     0.08483   0.09390   0.71295   0.00000  Uiso   1.00
C943   C     0.07761   0.01086   0.70382   0.00000  Uiso   1.00
H944   H     0.04101   0.01241   0.70779   0.00000  Uiso   1.00
H945   H     0.08294   0.33255   0.98739   0.00000  Uiso   1.00
H946   H     0.08981   0.31438   0.72759   0.00000  Uiso   1.00
O947   O     0.23810   0.31348   0.74896   0.00000  Uiso   1.00
C948   C     0.19360   0.31648   0.72504   0.00000  Uiso   1.00
H949   H     0.19380   0.01289   0.69686   0.00000  Uiso   1.00
H950   H     0.17004   0.32601   0.76162   0.00000  Uiso   1.00
C951   C     0.17600   0.26434   0.68275   0.00000  Uiso   1.00
H952   H     0.17292   0.23389   0.70974   0.00000  Uiso   1.00
H953   H     0.14253   0.26724   0.99294   0.00000  Uiso   1.00
H954   H     0.19929   0.25300   0.98018   0.00000  Uiso   1.00
O955   O     0.26850   0.01920   0.91642   0.00000  Uiso   1.00
C956   C     0.31573   0.02257   0.92844   0.00000  Uiso   1.00
H957   H     0.33293   0.03729   0.89218   0.00000  Uiso   1.00
H958   H     0.32720   0.31716   0.93087   0.00000  Uiso   1.00
C959   C     0.32965   0.06046   0.99016   0.00000  Uiso   1.00
H960   H     0.36650   0.06167   0.66808   0.00000  Uiso   1.00
H961   H     0.32096   0.10020   0.98786   0.00000  Uiso   1.00
H962   H     0.31214   0.04789   0.69396   0.00000  Uiso   1.00
C963   C     0.74832   0.06668   0.81782   0.00000  Uiso   1.00
C964   C     0.75259   0.26665   0.84871   0.00000  Uiso   1.00
C965   C     0.51540   0.07328   0.82223   0.00000  Uiso   1.00
C966   C     0.98476   0.26311   0.85341   0.00000  Uiso   1.00
C967   C     0.74642   0.01073   0.80882   0.00000  Uiso   1.00
C968   C     0.75671   0.32252   0.85710   0.00000  Uiso   1.00
C969   C     0.66446   0.16652   0.83407   0.00000  Uiso   1.00
C970   C     0.83553   0.16797   0.83284   0.00000  Uiso   1.00
C971   C     0.91001   0.21532   0.83490   0.00000  Uiso   1.00
C972   C     0.58897   0.11932   0.82207   0.00000  Uiso   1.00
C973   C     0.88369   0.16855   0.83206   0.00000  Uiso   1.00
C974   C     0.61630   0.16663   0.83603   0.00000  Uiso   1.00
C975   C     0.90331   0.12223   0.83116   0.00000  Uiso   1.00
C976   C     0.59757   0.21437   0.85040   0.00000  Uiso   1.00
C977   C     0.94964   0.12142   0.83146   0.00000  Uiso   1.00
C978   C     0.55105   0.21538   0.84975   0.00000  Uiso   1.00
C979   C     0.97680   0.16864   0.83861   0.00000  Uiso   1.00
C980   C     0.52364   0.16803   0.83979   0.00000  Uiso   1.00
C981   C     0.95708   0.21620   0.84269   0.00000  Uiso   1.00
C982   C     0.54285   0.11988   0.82868   0.00000  Uiso   1.00
C983   C     0.96917   0.07417   0.82446   0.00000  Uiso   1.00
C984   C     0.53143   0.26275   0.85793   0.00000  Uiso   1.00
Cu985  Cu    0.75500   0.17246   0.89479   0.00000  Uiso   1.00
Cu986  Cu    0.74499   0.16087   0.77187   0.00000  Uiso   1.00
H987   H     0.88221   0.08686   0.82920   0.00000  Uiso   1.00
H988   H     0.61915   0.25052   0.85948   0.00000  Uiso   1.00
H989   H     0.94848   0.03786   0.81888   0.00000  Uiso   1.00
H990   H     0.55217   0.29936   0.86630   0.00000  Uiso   1.00
H991   H     0.52958   0.03610   0.81573   0.00000  Uiso   1.00
H992   H     0.97039   0.30012   0.85891   0.00000  Uiso   1.00
H993   H     0.71470   0.12570   0.98278   0.00000  Uiso   1.00
H994   H     0.78536   0.20750   0.68385   0.00000  Uiso   1.00
N995   N     0.73744   0.15214   0.67951   0.00000  Uiso   1.00
N996   N     0.76255   0.18119   0.98716   0.00000  Uiso   1.00
O997   O     0.75325   0.09538   0.87326   0.00000  Uiso   1.00
O998   O     0.74674   0.23796   0.79341   0.00000  Uiso   1.00
O999   O     0.74480   0.08559   0.76945   0.00000  Uiso   1.00
O1000  O     0.75520   0.24774   0.89721   0.00000  Uiso   1.00
O1001  O     0.68935   0.17155   0.88524   0.00000  Uiso   1.00
O1002  O     0.81064   0.16179   0.78143   0.00000  Uiso   1.00
O1003  O     0.68090   0.16176   0.78143   0.00000  Uiso   1.00
O1004  O     0.81910   0.17157   0.88523   0.00000  Uiso   1.00
O1005  O     0.88943   0.25913   0.82766   0.00000  Uiso   1.00
C1006  C     0.88812   0.26045   0.76443   0.00000  Uiso   1.00
H1007  H     0.87740   0.22149   0.73322   0.00000  Uiso   1.00
H1008  H     0.92175   0.27440   0.75328   0.00000  Uiso   1.00
C1009  C     0.85449   0.29755   0.75058   0.00000  Uiso   1.00
H1010  H     0.86428   0.00391   0.77898   0.00000  Uiso   1.00
H1011  H     0.85326   0.29846   0.70100   0.00000  Uiso   1.00
H1012  H     0.82076   0.28417   0.76112   0.00000  Uiso   1.00
O1013  O     0.60672   0.07301   0.79764   0.00000  Uiso   1.00
C1014  C     0.60246   0.06418   0.73216   0.00000  Uiso   1.00
H1015  H     0.63660   0.06523   0.71632   0.00000  Uiso   1.00
H1016  H     0.58483   0.09390   0.71295   0.00000  Uiso   1.00
C1017  C     0.57761   0.01086   0.70382   0.00000  Uiso   1.00
H1018  H     0.54101   0.01241   0.70779   0.00000  Uiso   1.00
H1019  H     0.58294   0.33255   0.98739   0.00000  Uiso   1.00
H1020  H     0.58981   0.31438   0.72759   0.00000  Uiso   1.00
O1021  O     0.73810   0.31348   0.74896   0.00000  Uiso   1.00
C1022  C     0.69360   0.31648   0.72504   0.00000  Uiso   1.00
H1023  H     0.69380   0.01289   0.69686   0.00000  Uiso   1.00
H1024  H     0.67004   0.32601   0.76162   0.00000  Uiso   1.00
C1025  C     0.67600   0.26434   0.68275   0.00000  Uiso   1.00
H1026  H     0.67292   0.23389   0.70974   0.00000  Uiso   1.00
H1027  H     0.64253   0.26724   0.99294   0.00000  Uiso   1.00
H1028  H     0.69929   0.25300   0.98018   0.00000  Uiso   1.00
O1029  O     0.76850   0.01920   0.91642   0.00000  Uiso   1.00
C1030  C     0.81573   0.02257   0.92844   0.00000  Uiso   1.00
H1031  H     0.83293   0.03729   0.89218   0.00000  Uiso   1.00
H1032  H     0.82720   0.31716   0.93087   0.00000  Uiso   1.00
C1033  C     0.82965   0.06046   0.99016   0.00000  Uiso   1.00
H1034  H     0.86650   0.06167   0.66808   0.00000  Uiso   1.00
H1035  H     0.82096   0.10020   0.98786   0.00000  Uiso   1.00
H1036  H     0.81214   0.04789   0.69396   0.00000  Uiso   1.00
C1037  C     0.24832   0.40001   0.81782   0.00000  Uiso   1.00
C1038  C     0.25259   0.59998   0.84871   0.00000  Uiso   1.00
C1039  C     0.01540   0.40661   0.82223   0.00000  Uiso   1.00
C1040  C     0.48476   0.59645   0.85341   0.00000  Uiso   1.00
C1041  C     0.24642   0.34406   0.80882   0.00000  Uiso   1.00
C1042  C     0.25671   0.65585   0.85710   0.00000  Uiso   1.00
C1043  C     0.16446   0.49986   0.83407   0.00000  Uiso   1.00
C1044  C     0.33553   0.50130   0.83284   0.00000  Uiso   1.00
C1045  C     0.41001   0.54865   0.83490   0.00000  Uiso   1.00
C1046  C     0.08897   0.45266   0.82207   0.00000  Uiso   1.00
C1047  C     0.38369   0.50188   0.83206   0.00000  Uiso   1.00
C1048  C     0.11630   0.49997   0.83603   0.00000  Uiso   1.00
C1049  C     0.40331   0.45556   0.83116   0.00000  Uiso   1.00
C1050  C     0.09757   0.54770   0.85040   0.00000  Uiso   1.00
C1051  C     0.44964   0.45475   0.83146   0.00000  Uiso   1.00
C1052  C     0.05105   0.54872   0.84975   0.00000  Uiso   1.00
C1053  C     0.47680   0.50198   0.83861   0.00000  Uiso   1.00
C1054  C     0.02364   0.50136   0.83979   0.00000  Uiso   1.00
C1055  C     0.45708   0.54953   0.84269   0.00000  Uiso   1.00
C1056  C     0.04285   0.45321   0.82868   0.00000  Uiso   1.00
C1057  C     0.46917   0.40750   0.82446   0.00000  Uiso   1.00
C1058  C     0.03143   0.59609   0.85793   0.00000  Uiso   1.00
Cu1059 Cu    0.25500   0.50579   0.89479   0.00000  Uiso   1.00
Cu1060 Cu    0.24499   0.49421   0.77187   0.00000  Uiso   1.00
H1061  H     0.38221   0.42020   0.82920   0.00000  Uiso   1.00
H1062  H     0.11915   0.58385   0.85948   0.00000  Uiso   1.00
H1063  H     0.44848   0.37119   0.81888   0.00000  Uiso   1.00
H1064  H     0.05217   0.63270   0.86630   0.00000  Uiso   1.00
H1065  H     0.02958   0.36943   0.81573   0.00000  Uiso   1.00
H1066  H     0.47039   0.63345   0.85891   0.00000  Uiso   1.00
H1067  H     0.21470   0.45904   0.98278   0.00000  Uiso   1.00
H1068  H     0.28536   0.54084   0.68385   0.00000  Uiso   1.00
N1069  N     0.23744   0.48547   0.67951   0.00000  Uiso   1.00
N1070  N     0.26255   0.51453   0.98716   0.00000  Uiso   1.00
O1071  O     0.25325   0.42871   0.87326   0.00000  Uiso   1.00
O1072  O     0.24674   0.57129   0.79341   0.00000  Uiso   1.00
O1073  O     0.24480   0.41892   0.76945   0.00000  Uiso   1.00
O1074  O     0.25520   0.58108   0.89721   0.00000  Uiso   1.00
O1075  O     0.18935   0.50488   0.88524   0.00000  Uiso   1.00
O1076  O     0.31064   0.49512   0.78143   0.00000  Uiso   1.00
O1077  O     0.18090   0.49510   0.78143   0.00000  Uiso   1.00
O1078  O     0.31910   0.50490   0.88523   0.00000  Uiso   1.00
O1079  O     0.38943   0.59246   0.82766   0.00000  Uiso   1.00
C1080  C     0.38812   0.59379   0.76443   0.00000  Uiso   1.00
H1081  H     0.37740   0.55483   0.73322   0.00000  Uiso   1.00
H1082  H     0.42175   0.60773   0.75328   0.00000  Uiso   1.00
C1083  C     0.35449   0.63088   0.75058   0.00000  Uiso   1.00
H1084  H     0.36428   0.33724   0.77898   0.00000  Uiso   1.00
H1085  H     0.35326   0.63179   0.70100   0.00000  Uiso   1.00
H1086  H     0.32076   0.61750   0.76112   0.00000  Uiso   1.00
O1087  O     0.10672   0.40634   0.79764   0.00000  Uiso   1.00
C1088  C     0.10246   0.39752   0.73216   0.00000  Uiso   1.00
H1089  H     0.13660   0.39856   0.71632   0.00000  Uiso   1.00
H1090  H     0.08483   0.42723   0.71295   0.00000  Uiso   1.00
C1091  C     0.07761   0.34419   0.70382   0.00000  Uiso   1.00
H1092  H     0.04101   0.34575   0.70779   0.00000  Uiso   1.00
H1093  H     0.08294   0.66589   0.98739   0.00000  Uiso   1.00
H1094  H     0.08981   0.64771   0.72759   0.00000  Uiso   1.00
O1095  O     0.23810   0.64681   0.74896   0.00000  Uiso   1.00
C1096  C     0.19360   0.64981   0.72504   0.00000  Uiso   1.00
H1097  H     0.19380   0.34623   0.69686   0.00000  Uiso   1.00
H1098  H     0.17004   0.65935   0.76162   0.00000  Uiso   1.00
C1099  C     0.17600   0.59767   0.68275   0.00000  Uiso   1.00
H1100  H     0.17292   0.56722   0.70974   0.00000  Uiso   1.00
H1101  H     0.14253   0.60057   0.99294   0.00000  Uiso   1.00
H1102  H     0.19929   0.58633   0.98018   0.00000  Uiso   1.00
O1103  O     0.26850   0.35254   0.91642   0.00000  Uiso   1.00
C1104  C     0.31573   0.35591   0.92844   0.00000  Uiso   1.00
H1105  H     0.33293   0.37063   0.89218   0.00000  Uiso   1.00
H1106  H     0.32720   0.65049   0.93087   0.00000  Uiso   1.00
C1107  C     0.32965   0.39380   0.99016   0.00000  Uiso   1.00
H1108  H     0.36650   0.39501   0.66808   0.00000  Uiso   1.00
H1109  H     0.32096   0.43354   0.98786   0.00000  Uiso   1.00
H1110  H     0.31214   0.38123   0.69396   0.00000  Uiso   1.00
C1111  C     0.74832   0.40001   0.81782   0.00000  Uiso   1.00
C1112  C     0.75259   0.59998   0.84871   0.00000  Uiso   1.00
C1113  C     0.51540   0.40661   0.82223   0.00000  Uiso   1.00
C1114  C     0.98476   0.59645   0.85341   0.00000  Uiso   1.00
C1115  C     0.74642   0.34406   0.80882   0.00000  Uiso   1.00
C1116  C     0.75671   0.65585   0.85710   0.00000  Uiso   1.00
C1117  C     0.66446   0.49986   0.83407   0.00000  Uiso   1.00
C1118  C     0.83553   0.50130   0.83284   0.00000  Uiso   1.00
C1119  C     0.91001   0.54865   0.83490   0.00000  Uiso   1.00
C1120  C     0.58897   0.45266   0.82207   0.00000  Uiso   1.00
C1121  C     0.88369   0.50188   0.83206   0.00000  Uiso   1.00
C1122  C     0.61630   0.49997   0.83603   0.00000  Uiso   1.00
C1123  C     0.90331   0.45556   0.83116   0.00000  Uiso   1.00
C1124  C     0.59757   0.54770   0.85040   0.00000  Uiso   1.00
C1125  C     0.94964   0.45475   0.83146   0.00000  Uiso   1.00
C1126  C     0.55105   0.54872   0.84975   0.00000  Uiso   1.00
C1127  C     0.97680   0.50198   0.83861   0.00000  Uiso   1.00
C1128  C     0.52364   0.50136   0.83979   0.00000  Uiso   1.00
C1129  C     0.95708   0.54953   0.84269   0.00000  Uiso   1.00
C1130  C     0.54285   0.45321   0.82868   0.00000  Uiso   1.00
C1131  C     0.96917   0.40750   0.82446   0.00000  Uiso   1.00
C1132  C     0.53143   0.59609   0.85793   0.00000  Uiso   1.00
Cu1133 Cu    0.75500   0.50579   0.89479   0.00000  Uiso   1.00
Cu1134 Cu    0.74499   0.49421   0.77187   0.00000  Uiso   1.00
H1135  H     0.88221   0.42020   0.82920   0.00000  Uiso   1.00
H1136  H     0.61915   0.58385   0.85948   0.00000  Uiso   1.00
H1137  H     0.94848   0.37119   0.81888   0.00000  Uiso   1.00
H1138  H     0.55217   0.63270   0.86630   0.00000  Uiso   1.00
H1139  H     0.52958   0.36943   0.81573   0.00000  Uiso   1.00
H1140  H     0.97039   0.63345   0.85891   0.00000  Uiso   1.00
H1141  H     0.71470   0.45904   0.98278   0.00000  Uiso   1.00
H1142  H     0.78536   0.54084   0.68385   0.00000  Uiso   1.00
N1143  N     0.73744   0.48547   0.67951   0.00000  Uiso   1.00
N1144  N     0.76255   0.51453   0.98716   0.00000  Uiso   1.00
O1145  O     0.75325   0.42871   0.87326   0.00000  Uiso   1.00
O1146  O     0.74674   0.57129   0.79341   0.00000  Uiso   1.00
O1147  O     0.74480   0.41892   0.76945   0.00000  Uiso   1.00
O1148  O     0.75520   0.58108   0.89721   0.00000  Uiso   1.00
O1149  O     0.68935   0.50488   0.88524   0.00000  Uiso   1.00
O1150  O     0.81064   0.49512   0.78143   0.00000  Uiso   1.00
O1151  O     0.68090   0.49510   0.78143   0.00000  Uiso   1.00
O1152  O     0.81910   0.50490   0.88523   0.00000  Uiso   1.00
O1153  O     0.88943   0.59246   0.82766   0.00000  Uiso   1.00
C1154  C     0.88812   0.59379   0.76443   0.00000  Uiso   1.00
H1155  H     0.87740   0.55483   0.73322   0.00000  Uiso   1.00
H1156  H     0.92175   0.60773   0.75328   0.00000  Uiso   1.00
C1157  C     0.85449   0.63088   0.75058   0.00000  Uiso   1.00
H1158  H     0.86428   0.33724   0.77898   0.00000  Uiso   1.00
H1159  H     0.85326   0.63179   0.70100   0.00000  Uiso   1.00
H1160  H     0.82076   0.61750   0.76112   0.00000  Uiso   1.00
O1161  O     0.60672   0.40634   0.79764   0.00000  Uiso   1.00
C1162  C     0.60246   0.39752   0.73216   0.00000  Uiso   1.00
H1163  H     0.63660   0.39856   0.71632   0.00000  Uiso   1.00
H1164  H     0.58483   0.42723   0.71295   0.00000  Uiso   1.00
C1165  C     0.57761   0.34419   0.70382   0.00000  Uiso   1.00
H1166  H     0.54101   0.34575   0.70779   0.00000  Uiso   1.00
H1167  H     0.58294   0.66589   0.98739   0.00000  Uiso   1.00
H1168  H     0.58981   0.64771   0.72759   0.00000  Uiso   1.00
O1169  O     0.73810   0.64681   0.74896   0.00000  Uiso   1.00
C1170  C     0.69360   0.64981   0.72504   0.00000  Uiso   1.00
H1171  H     0.69380   0.34623   0.69686   0.00000  Uiso   1.00
H1172  H     0.67004   0.65935   0.76162   0.00000  Uiso   1.00
C1173  C     0.67600   0.59767   0.68275   0.00000  Uiso   1.00
H1174  H     0.67292   0.56722   0.70974   0.00000  Uiso   1.00
H1175  H     0.64253   0.60057   0.99294   0.00000  Uiso   1.00
H1176  H     0.69929   0.58633   0.98018   0.00000  Uiso   1.00
O1177  O     0.76850   0.35254   0.91642   0.00000  Uiso   1.00
C1178  C     0.81573   0.35591   0.92844   0.00000  Uiso   1.00
H1179  H     0.83293   0.37063   0.89218   0.00000  Uiso   1.00
H1180  H     0.82720   0.65049   0.93087   0.00000  Uiso   1.00
C1181  C     0.82965   0.39380   0.99016   0.00000  Uiso   1.00
H1182  H     0.86650   0.39501   0.66808   0.00000  Uiso   1.00
H1183  H     0.82096   0.43354   0.98786   0.00000  Uiso   1.00
H1184  H     0.81214   0.38123   0.69396   0.00000  Uiso   1.00
C1185  C     0.24832   0.73335   0.81782   0.00000  Uiso   1.00
C1186  C     0.25259   0.93332   0.84871   0.00000  Uiso   1.00
C1187  C     0.01540   0.73995   0.82223   0.00000  Uiso   1.00
C1188  C     0.48476   0.92978   0.85341   0.00000  Uiso   1.00
C1189  C     0.24642   0.67739   0.80882   0.00000  Uiso   1.00
C1190  C     0.25671   0.98919   0.85710   0.00000  Uiso   1.00
C1191  C     0.16446   0.83319   0.83407   0.00000  Uiso   1.00
C1192  C     0.33553   0.83464   0.83284   0.00000  Uiso   1.00
C1193  C     0.41001   0.88198   0.83490   0.00000  Uiso   1.00
C1194  C     0.08897   0.78599   0.82207   0.00000  Uiso   1.00
C1195  C     0.38369   0.83522   0.83206   0.00000  Uiso   1.00
C1196  C     0.11630   0.83330   0.83603   0.00000  Uiso   1.00
C1197  C     0.40331   0.78890   0.83116   0.00000  Uiso   1.00
C1198  C     0.09757   0.88104   0.85040   0.00000  Uiso   1.00
C1199  C     0.44964   0.78809   0.83146   0.00000  Uiso   1.00
C1200  C     0.05105   0.88205   0.84975   0.00000  Uiso   1.00
C1201  C     0.47680   0.83531   0.83861   0.00000  Uiso   1.00
C1202  C     0.02364   0.83469   0.83979   0.00000  Uiso   1.00
C1203  C     0.45708   0.88287   0.84269   0.00000  Uiso   1.00
C1204  C     0.04285   0.78654   0.82868   0.00000  Uiso   1.00
C1205  C     0.46917   0.74084   0.82446   0.00000  Uiso   1.00
C1206  C     0.03143   0.92942   0.85793   0.00000  Uiso   1.00
Cu1207 Cu    0.25500   0.83913   0.89479   0.00000  Uiso   1.00
Cu1208 Cu    0.24499   0.82754   0.77187   0.00000  Uiso   1.00
H1209  H     0.38221   0.75353   0.82920   0.00000  Uiso   1.00
H1210  H     0.11915   0.91718   0.85948   0.00000  Uiso   1.00
H1211  H     0.44848   0.70452   0.81888   0.00000  Uiso   1.00
H1212  H     0.05217   0.96603   0.86630   0.00000  Uiso   1.00
H1213  H     0.02958   0.70277   0.81573   0.00000  Uiso   1.00
H1214  H     0.47039   0.96678   0.85891   0.00000  Uiso   1.00
H1215  H     0.21470   0.79237   0.98278   0.00000  Uiso   1.00
H1216  H     0.28536   0.87417   0.68385   0.00000  Uiso   1.00
N1217  N     0.23744   0.81881   0.67951   0.00000  Uiso   1.00
N1218  N     0.26255   0.84786   0.98716   0.00000  Uiso   1.00
O1219  O     0.25325   0.76204   0.87326   0.00000  Uiso   1.00
O1220  O     0.24674   0.90462   0.79341   0.00000  Uiso   1.00
O1221  O     0.24480   0.75226   0.76945   0.00000  Uiso   1.00
O1222  O     0.25520   0.91441   0.89721   0.00000  Uiso   1.00
O1223  O     0.18935   0.83821   0.88524   0.00000  Uiso   1.00
O1224  O     0.31064   0.82845   0.78143   0.00000  Uiso   1.00
O1225  O     0.18090   0.82843   0.78143   0.00000  Uiso   1.00
O1226  O     0.31910   0.83824   0.88523   0.00000  Uiso   1.00
O1227  O     0.38943   0.92579   0.82766   0.00000  Uiso   1.00
C1228  C     0.38812   0.92712   0.76443   0.00000  Uiso   1.00
H1229  H     0.37740   0.88816   0.73322   0.00000  Uiso   1.00
H1230  H     0.42175   0.94107   0.75328   0.00000  Uiso   1.00
C1231  C     0.35449   0.96421   0.75058   0.00000  Uiso   1.00
H1232  H     0.36428   0.67057   0.77898   0.00000  Uiso   1.00
H1233  H     0.35326   0.96512   0.70100   0.00000  Uiso   1.00
H1234  H     0.32076   0.95084   0.76112   0.00000  Uiso   1.00
O1235  O     0.10672   0.73968   0.79764   0.00000  Uiso   1.00
C1236  C     0.10246   0.73085   0.73216   0.00000  Uiso   1.00
H1237  H     0.13660   0.73189   0.71632   0.00000  Uiso   1.00
H1238  H     0.08483   0.76056   0.71295   0.00000  Uiso   1.00
C1239  C     0.07761   0.67753   0.70382   0.00000  Uiso   1.00
H1240  H     0.04101   0.67908   0.70779   0.00000  Uiso   1.00
H1241  H     0.08294   0.99922   0.98739   0.00000  Uiso   1.00
H1242  H     0.08981   0.98105   0.72759   0.00000  Uiso   1.00
O1243  O     0.23810   0.98014   0.74896   0.00000  Uiso   1.00
C1244  C     0.19360   0.98315   0.72504   0.00000  Uiso   1.00
H1245  H     0.19380   0.67956   0.69686   0.00000  Uiso   1.00
H1246  H     0.17004   0.99268   0.76162   0.00000  Uiso   1.00
C1247  C     0.17600   0.93101   0.68275   0.00000  Uiso   1.00
H1248  H     0.17292   0.90055   0.70974   0.00000  Uiso   1.00
H1249  H     0.14253   0.93391   0.99294   0.00000  Uiso   1.00
H1250  H     0.19929   0.91967   0.98018   0.00000  Uiso   1.00
O1251  O     0.26850   0.68587   0.91642   0.00000  Uiso   1.00
C1252  C     0.31573   0.68924   0.92844   0.00000  Uiso   1.00
H1253  H     0.33293   0.70396   0.89218   0.00000  Uiso   1.00
H1254  H     0.32720   0.98383   0.93087   0.00000  Uiso   1.00
C1255  C     0.32965   0.72713   0.99016   0.00000  Uiso   1.00
H1256  H     0.36650   0.72834   0.66808   0.00000  Uiso   1.00
H1257  H     0.32096   0.76687   0.98786   0.00000  Uiso   1.00
H1258  H     0.31214   0.71456   0.69396   0.00000  Uiso   1.00
C1259  C     0.74832   0.73335   0.81782   0.00000  Uiso   1.00
C1260  C     0.75259   0.93332   0.84871   0.00000  Uiso   1.00
C1261  C     0.51540   0.73995   0.82223   0.00000  Uiso   1.00
C1262  C     0.98476   0.92978   0.85341   0.00000  Uiso   1.00
C1263  C     0.74642   0.67739   0.80882   0.00000  Uiso   1.00
C1264  C     0.75671   0.98919   0.85710   0.00000  Uiso   1.00
C1265  C     0.66446   0.83319   0.83407   0.00000  Uiso   1.00
C1266  C     0.83553   0.83464   0.83284   0.00000  Uiso   1.00
C1267  C     0.91001   0.88198   0.83490   0.00000  Uiso   1.00
C1268  C     0.58897   0.78599   0.82207   0.00000  Uiso   1.00
C1269  C     0.88369   0.83522   0.83206   0.00000  Uiso   1.00
C1270  C     0.61630   0.83330   0.83603   0.00000  Uiso   1.00
C1271  C     0.90331   0.78890   0.83116   0.00000  Uiso   1.00
C1272  C     0.59757   0.88104   0.85040   0.00000  Uiso   1.00
C1273  C     0.94964   0.78809   0.83146   0.00000  Uiso   1.00
C1274  C     0.55105   0.88205   0.84975   0.00000  Uiso   1.00
C1275  C     0.97680   0.83531   0.83861   0.00000  Uiso   1.00
C1276  C     0.52364   0.83469   0.83979   0.00000  Uiso   1.00
C1277  C     0.95708   0.88287   0.84269   0.00000  Uiso   1.00
C1278  C     0.54285   0.78654   0.82868   0.00000  Uiso   1.00
C1279  C     0.96917   0.74084   0.82446   0.00000  Uiso   1.00
C1280  C     0.53143   0.92942   0.85793   0.00000  Uiso   1.00
Cu1281 Cu    0.75500   0.83913   0.89479   0.00000  Uiso   1.00
Cu1282 Cu    0.74499   0.82754   0.77187   0.00000  Uiso   1.00
H1283  H     0.88221   0.75353   0.82920   0.00000  Uiso   1.00
H1284  H     0.61915   0.91718   0.85948   0.00000  Uiso   1.00
H1285  H     0.94848   0.70452   0.81888   0.00000  Uiso   1.00
H1286  H     0.55217   0.96603   0.86630   0.00000  Uiso   1.00
H1287  H     0.52958   0.70277   0.81573   0.00000  Uiso   1.00
H1288  H     0.97039   0.96678   0.85891   0.00000  Uiso   1.00
H1289  H     0.71470   0.79237   0.98278   0.00000  Uiso   1.00
H1290  H     0.78536   0.87417   0.68385   0.00000  Uiso   1.00
N1291  N     0.73744   0.81881   0.67951   0.00000  Uiso   1.00
N1292  N     0.76255   0.84786   0.98716   0.00000  Uiso   1.00
O1293  O     0.75325   0.76204   0.87326   0.00000  Uiso   1.00
O1294  O     0.74674   0.90462   0.79341   0.00000  Uiso   1.00
O1295  O     0.74480   0.75226   0.76945   0.00000  Uiso   1.00
O1296  O     0.75520   0.91441   0.89721   0.00000  Uiso   1.00
O1297  O     0.68935   0.83821   0.88524   0.00000  Uiso   1.00
O1298  O     0.81064   0.82845   0.78143   0.00000  Uiso   1.00
O1299  O     0.68090   0.82843   0.78143   0.00000  Uiso   1.00
O1300  O     0.81910   0.83824   0.88523   0.00000  Uiso   1.00
O1301  O     0.88943   0.92579   0.82766   0.00000  Uiso   1.00
C1302  C     0.88812   0.92712   0.76443   0.00000  Uiso   1.00
H1303  H     0.87740   0.88816   0.73322   0.00000  Uiso   1.00
H1304  H     0.92175   0.94107   0.75328   0.00000  Uiso   1.00
C1305  C     0.85449   0.96421   0.75058   0.00000  Uiso   1.00
H1306  H     0.86428   0.67057   0.77898   0.00000  Uiso   1.00
H1307  H     0.85326   0.96512   0.70100   0.00000  Uiso   1.00
H1308  H     0.82076   0.95084   0.76112   0.00000  Uiso   1.00
O1309  O     0.60672   0.73968   0.79764   0.00000  Uiso   1.00
C1310  C     0.60246   0.73085   0.73216   0.00000  Uiso   1.00
H1311  H     0.63660   0.73189   0.71632   0.00000  Uiso   1.00
H1312  H     0.58483   0.76056   0.71295   0.00000  Uiso   1.00
C1313  C     0.57761   0.67753   0.70382   0.00000  Uiso   1.00
H1314  H     0.54101   0.67908   0.70779   0.00000  Uiso   1.00
H1315  H     0.58294   0.99922   0.98739   0.00000  Uiso   1.00
H1316  H     0.58981   0.98105   0.72759   0.00000  Uiso   1.00
O1317  O     0.73810   0.98014   0.74896   0.00000  Uiso   1.00
C1318  C     0.69360   0.98315   0.72504   0.00000  Uiso   1.00
H1319  H     0.69380   0.67956   0.69686   0.00000  Uiso   1.00
H1320  H     0.67004   0.99268   0.76162   0.00000  Uiso   1.00
C1321  C     0.67600   0.93101   0.68275   0.00000  Uiso   1.00
H1322  H     0.67292   0.90055   0.70974   0.00000  Uiso   1.00
H1323  H     0.64253   0.93391   0.99294   0.00000  Uiso   1.00
H1324  H     0.69929   0.91967   0.98018   0.00000  Uiso   1.00
O1325  O     0.76850   0.68587   0.91642   0.00000  Uiso   1.00
C1326  C     0.81573   0.68924   0.92844   0.00000  Uiso   1.00
H1327  H     0.83293   0.70396   0.89218   0.00000  Uiso   1.00
H1328  H     0.82720   0.98383   0.93087   0.00000  Uiso   1.00
C1329  C     0.82965   0.72713   0.99016   0.00000  Uiso   1.00
H1330  H     0.86650   0.72834   0.66808   0.00000  Uiso   1.00
H1331  H     0.82096   0.76687   0.98786   0.00000  Uiso   1.00
H1332  H     0.81214   0.71456   0.69396   0.00000  Uiso   1.00
loop_
_geom_bond_atom_site_label_1
_geom_bond_atom_site_label_2
_geom_bond_distance
_geom_bond_site_symmetry_2
_ccdc_geom_bond_type
C1     C5      1.442   .     S
C1     O37     1.286   .     A
C1     O35     1.291   .     A
C2     O38     1.288   .     A
C2     O36     1.288   .     A
C2     C6      1.440   .     S
C3     C20     1.404   .     A
C3     H29     1.081   .     S
C3     C95     1.391   1_455 S
C4     C19     1.405   .     A
C4     H30     1.081   .     S
C4     C96     1.395   .     S
C5     C302    1.351   1_545 S
C5     O355    1.393   1_545 S
C6     C153    1.351   .     S
C6     O215    1.389   .     S
C7     C12     1.447   .     S
C7     O39     1.292   .     A
C7     O41     1.290   .     A
C8     C11     1.443   .     S
C8     O40     1.293   .     A
C8     O42     1.288   .     A
C9     C11     1.404   .     A
C9     O43     1.383   .     S
C9     C19     1.406   .     A
C10    C20     1.401   .     A
C10    C12     1.405   .     A
C10    O51     1.383   .     S
C11    C13     1.390   .     A
C12    C14     1.397   .     A
C13    H25     1.081   .     S
C13    C15     1.389   .     A
C14    H26     1.085   .     S
C14    C16     1.395   .     A
C15    C21     1.397   .     A
C15    C17     1.411   .     A
C16    C18     1.412   .     A
C16    C22     1.400   .     A
C17    C19     1.413   .     A
C17    C92     1.403   .     S
C18    C20     1.412   .     A
C18    C91     1.403   1_455 S
C21    H27     1.082   .     S
C21    C77     1.391   .     S
C22    H28     1.083   .     S
C22    C78     1.395   1_455 S
Cu23   O38     1.976   .     S
Cu23   O35     1.981   .     S
Cu23   N34     2.015   .     S
Cu23   O42     1.949   .     S
Cu23   O39     1.961   .     S
Cu23   Cu24    2.682   .     S
Cu24   O37     1.976   .     S
Cu24   O41     1.949   .     S
Cu24   O36     1.981   .     S
Cu24   N33     2.015   .     S
Cu24   O40     1.961   .     S
H31    N477    1.029   .     S
H32    N922    1.028   1_554 S
N33    H919    1.029   1_554 S
N33    N922    1.288   1_554 S
N34    N477    1.288   .     S
N34    H476    1.028   .     S
O43    C44     1.416   .     S
C44    C47     1.515   .     S
C44    H46     1.113   .     S
C44    H45     1.117   .     S
C47    H49     1.109   .     S
C47    H50     1.106   .     S
C47    H196    1.105   .     S
H48    C343    1.105   1_545 S
O51    C52     1.421   .     S
C52    C55     1.525   .     S
C52    H54     1.119   .     S
C52    H53     1.107   .     S
C55    H56     1.109   .     S
C55    H1241   1.110   1_544 S
C55    H354    1.110   1_545 S
H57    C647    1.110   .     S
H58    C203    1.110   .     S
O59    C60     1.413   .     S
O59    C153    1.393   .     S
C60    H62     1.116   .     S
C60    C63     1.520   .     S
C60    H209    1.110   .     S
H61    C356    1.110   1_545 S
C63    H64     1.109   .     S
C63    H953    1.109   1_554 S
C63    H954    1.106   1_554 S
H65    C507    1.109   .     S
H66    C507    1.106   .     S
O67    C68     1.413   .     S
O67    C302    1.389   1_545 S
C68    C71     1.522   .     S
C68    H69     1.115   .     S
C68    H366    1.113   1_545 S
H70    C216    1.113   .     S
C71    H73     1.110   .     S
C71    H516    1.111   .     S
C71    H518    1.110   .     S
H72    C959    1.111   1_554 S
H74    C959    1.110   1_554 S
C75    C79     1.442   .     S
C75    O111    1.286   .     A
C75    O109    1.291   .     A
C76    O112    1.288   .     A
C76    O110    1.288   .     A
C76    C80     1.440   .     S
C77    C94     1.404   .     A
C77    H103    1.081   .     S
C78    C93     1.405   .     A
C78    H104    1.081   .     S
C78    C22     1.395   1_655 S
C79    C376    1.351   1_545 S
C79    O429    1.393   1_545 S
C80    C227    1.351   .     S
C80    O289    1.389   .     S
C81    C86     1.447   .     S
C81    O113    1.292   .     A
C81    O115    1.290   .     A
C82    C85     1.443   .     S
C82    O114    1.293   .     A
C82    O116    1.288   .     A
C83    C85     1.404   .     A
C83    O117    1.383   .     S
C83    C93     1.406   .     A
C84    C94     1.401   .     A
C84    C86     1.405   .     A
C84    O125    1.383   .     S
C85    C87     1.390   .     A
C86    C88     1.397   .     A
C87    H99     1.081   .     S
C87    C89     1.389   .     A
C88    H100    1.085   .     S
C88    C90     1.395   .     A
C89    C95     1.397   .     A
C89    C91     1.411   .     A
C90    C92     1.412   .     A
C90    C96     1.400   .     A
C91    C93     1.413   .     A
C91    C18     1.403   1_655 S
C92    C94     1.412   .     A
C95    H101    1.082   .     S
C95    C3      1.391   1_655 S
C96    H102    1.083   .     S
Cu97   O112    1.976   .     S
Cu97   O109    1.981   .     S
Cu97   N108    2.015   .     S
Cu97   O116    1.949   .     S
Cu97   O113    1.961   .     S
Cu97   Cu98    2.682   .     S
Cu98   O111    1.976   .     S
Cu98   O115    1.949   .     S
Cu98   O110    1.981   .     S
Cu98   N107    2.015   .     S
Cu98   O114    1.961   .     S
H105   N551    1.029   .     S
H106   N996    1.028   1_554 S
N107   H993    1.029   1_554 S
N107   N996    1.288   1_554 S
N108   N551    1.288   .     S
N108   H550    1.028   .     S
O117   C118    1.416   .     S
C118   C121    1.515   .     S
C118   H120    1.113   .     S
C118   H119    1.117   .     S
C121   H123    1.109   .     S
C121   H124    1.106   .     S
C121   H270    1.105   .     S
H122   C417    1.105   1_545 S
O125   C126    1.421   .     S
C126   C129    1.525   .     S
C126   H128    1.119   .     S
C126   H127    1.107   .     S
C129   H130    1.109   .     S
C129   H1315   1.110   1_544 S
C129   H428    1.110   1_545 S
H131   C721    1.110   .     S
H132   C277    1.110   .     S
O133   C134    1.413   .     S
O133   C227    1.393   .     S
C134   H136    1.116   .     S
C134   C137    1.520   .     S
C134   H283    1.110   .     S
H135   C430    1.110   1_545 S
C137   H138    1.109   .     S
C137   H1027   1.109   1_554 S
C137   H1028   1.106   1_554 S
H139   C581    1.109   .     S
H140   C581    1.106   .     S
O141   C142    1.413   .     S
O141   C376    1.389   1_545 S
C142   C145    1.522   .     S
C142   H143    1.115   .     S
C142   H440    1.113   1_545 S
H144   C290    1.113   .     S
C145   H147    1.110   .     S
C145   H590    1.111   .     S
C145   H592    1.110   .     S
H146   C1033   1.111   1_554 S
H148   C1033   1.110   1_554 S
C149   C153    1.442   .     S
C149   O185    1.286   .     A
C149   O183    1.291   .     A
C150   O186    1.288   .     A
C150   O184    1.288   .     A
C150   C154    1.440   .     S
C151   C168    1.404   .     A
C151   H177    1.081   .     S
C151   C243    1.391   1_455 S
C152   C167    1.405   .     A
C152   H178    1.081   .     S
C152   C244    1.395   .     S
C154   C301    1.351   .     S
C154   O363    1.389   .     S
C155   C160    1.447   .     S
C155   O187    1.292   .     A
C155   O189    1.290   .     A
C156   C159    1.443   .     S
C156   O188    1.293   .     A
C156   O190    1.288   .     A
C157   C159    1.404   .     A
C157   O191    1.383   .     S
C157   C167    1.406   .     A
C158   C168    1.401   .     A
C158   C160    1.405   .     A
C158   O199    1.383   .     S
C159   C161    1.390   .     A
C160   C162    1.397   .     A
C161   H173    1.081   .     S
C161   C163    1.389   .     A
C162   H174    1.085   .     S
C162   C164    1.395   .     A
C163   C169    1.397   .     A
C163   C165    1.411   .     A
C164   C166    1.412   .     A
C164   C170    1.400   .     A
C165   C167    1.413   .     A
C165   C240    1.403   .     S
C166   C168    1.412   .     A
C166   C239    1.403   1_455 S
C169   H175    1.082   .     S
C169   C225    1.391   .     S
C170   H176    1.083   .     S
C170   C226    1.395   1_455 S
Cu171  O186    1.976   .     S
Cu171  O183    1.981   .     S
Cu171  N182    2.015   .     S
Cu171  O190    1.949   .     S
Cu171  O187    1.961   .     S
Cu171  Cu172   2.682   .     S
Cu172  O185    1.976   .     S
Cu172  O189    1.949   .     S
Cu172  O184    1.981   .     S
Cu172  N181    2.015   .     S
Cu172  O188    1.961   .     S
H179   N625    1.029   .     S
H180   N1070   1.028   1_554 S
N181   H1067   1.029   1_554 S
N181   N1070   1.288   1_554 S
N182   N625    1.288   .     S
N182   H624    1.028   .     S
O191   C192    1.416   .     S
C192   C195    1.515   .     S
C192   H194    1.113   .     S
C192   H193    1.117   .     S
C195   H197    1.109   .     S
C195   H198    1.106   .     S
C195   H344    1.105   .     S
O199   C200    1.421   .     S
C200   C203    1.525   .     S
C200   H202    1.119   .     S
C200   H201    1.107   .     S
C203   H204    1.109   .     S
C203   H945    1.110   1_554 S
H205   C795    1.110   .     S
H206   C351    1.110   .     S
O207   C208    1.413   .     S
O207   C301    1.393   .     S
C208   H210    1.116   .     S
C208   C211    1.520   .     S
C208   H357    1.110   .     S
C211   H212    1.109   .     S
C211   H1101   1.109   1_554 S
C211   H1102   1.106   1_554 S
H213   C655    1.109   .     S
H214   C655    1.106   .     S
O215   C216    1.413   .     S
C216   C219    1.522   .     S
C216   H217    1.115   .     S
H218   C364    1.113   .     S
C219   H221    1.110   .     S
C219   H664    1.111   .     S
C219   H666    1.110   .     S
H220   C1107   1.111   1_554 S
H222   C1107   1.110   1_554 S
C223   C227    1.442   .     S
C223   O259    1.286   .     A
C223   O257    1.291   .     A
C224   O260    1.288   .     A
C224   O258    1.288   .     A
C224   C228    1.440   .     S
C225   C242    1.404   .     A
C225   H251    1.081   .     S
C226   C241    1.405   .     A
C226   H252    1.081   .     S
C226   C170    1.395   1_655 S
C228   C375    1.351   .     S
C228   O437    1.389   .     S
C229   C234    1.447   .     S
C229   O261    1.292   .     A
C229   O263    1.290   .     A
C230   C233    1.443   .     S
C230   O262    1.293   .     A
C230   O264    1.288   .     A
C231   C233    1.404   .     A
C231   O265    1.383   .     S
C231   C241    1.406   .     A
C232   C242    1.401   .     A
C232   C234    1.405   .     A
C232   O273    1.383   .     S
C233   C235    1.390   .     A
C234   C236    1.397   .     A
C235   H247    1.081   .     S
C235   C237    1.389   .     A
C236   H248    1.085   .     S
C236   C238    1.395   .     A
C237   C243    1.397   .     A
C237   C239    1.411   .     A
C238   C240    1.412   .     A
C238   C244    1.400   .     A
C239   C241    1.413   .     A
C239   C166    1.403   1_655 S
C240   C242    1.412   .     A
C243   H249    1.082   .     S
C243   C151    1.391   1_655 S
C244   H250    1.083   .     S
Cu245  O260    1.976   .     S
Cu245  O257    1.981   .     S
Cu245  N256    2.015   .     S
Cu245  O264    1.949   .     S
Cu245  O261    1.961   .     S
Cu245  Cu246   2.682   .     S
Cu246  O259    1.976   .     S
Cu246  O263    1.949   .     S
Cu246  O258    1.981   .     S
Cu246  N255    2.015   .     S
Cu246  O262    1.961   .     S
H253   N699    1.029   .     S
H254   N1144   1.028   1_554 S
N255   H1141   1.029   1_554 S
N255   N1144   1.288   1_554 S
N256   N699    1.288   .     S
N256   H698    1.028   .     S
O265   C266    1.416   .     S
C266   C269    1.515   .     S
C266   H268    1.113   .     S
C266   H267    1.117   .     S
C269   H271    1.109   .     S
C269   H272    1.106   .     S
C269   H418    1.105   .     S
O273   C274    1.421   .     S
C274   C277    1.525   .     S
C274   H276    1.119   .     S
C274   H275    1.107   .     S
C277   H278    1.109   .     S
C277   H1019   1.110   1_554 S
H279   C869    1.110   .     S
H280   C425    1.110   .     S
O281   C282    1.413   .     S
O281   C375    1.393   .     S
C282   H284    1.116   .     S
C282   C285    1.520   .     S
C282   H431    1.110   .     S
C285   H286    1.109   .     S
C285   H1175   1.109   1_554 S
C285   H1176   1.106   1_554 S
H287   C729    1.109   .     S
H288   C729    1.106   .     S
O289   C290    1.413   .     S
C290   C293    1.522   .     S
C290   H291    1.115   .     S
H292   C438    1.113   .     S
C293   H295    1.110   .     S
C293   H738    1.111   .     S
C293   H740    1.110   .     S
H294   C1181   1.111   1_554 S
H296   C1181   1.110   1_554 S
C297   C301    1.442   .     S
C297   O333    1.286   .     A
C297   O331    1.291   .     A
C298   O334    1.288   .     A
C298   O332    1.288   .     A
C298   C302    1.440   .     S
C299   C316    1.404   .     A
C299   H325    1.081   .     S
C299   C391    1.391   1_455 S
C300   C315    1.405   .     A
C300   H326    1.081   .     S
C300   C392    1.395   .     S
C302   C5      1.351   1_565 S
C302   O67     1.389   1_565 S
C303   C308    1.447   .     S
C303   O335    1.292   .     A
C303   O337    1.290   .     A
C304   C307    1.443   .     S
C304   O336    1.293   .     A
C304   O338    1.288   .     A
C305   C307    1.404   .     A
C305   O339    1.383   .     S
C305   C315    1.406   .     A
C306   C316    1.401   .     A
C306   C308    1.405   .     A
C306   O347    1.383   .     S
C307   C309    1.390   .     A
C308   C310    1.397   .     A
C309   H321    1.081   .     S
C309   C311    1.389   .     A
C310   H322    1.085   .     S
C310   C312    1.395   .     A
C311   C317    1.397   .     A
C311   C313    1.411   .     A
C312   C314    1.412   .     A
C312   C318    1.400   .     A
C313   C315    1.413   .     A
C313   C388    1.403   .     S
C314   C316    1.412   .     A
C314   C387    1.403   1_455 S
C317   H323    1.082   .     S
C317   C373    1.391   .     S
C318   H324    1.083   .     S
C318   C374    1.395   1_455 S
Cu319  O334    1.976   .     S
Cu319  O331    1.981   .     S
Cu319  N330    2.015   .     S
Cu319  O338    1.949   .     S
Cu319  O335    1.961   .     S
Cu319  Cu320   2.682   .     S
Cu320  O333    1.976   .     S
Cu320  O337    1.949   .     S
Cu320  O332    1.981   .     S
Cu320  N329    2.015   .     S
Cu320  O336    1.961   .     S
H327   N773    1.029   .     S
H328   N1218   1.028   1_554 S
N329   H1215   1.029   1_554 S
N329   N1218   1.288   1_554 S
N330   N773    1.288   .     S
N330   H772    1.028   .     S
O339   C340    1.416   .     S
C340   C343    1.515   .     S
C340   H342    1.113   .     S
C340   H341    1.117   .     S
C343   H345    1.109   .     S
C343   H346    1.106   .     S
C343   H48     1.105   1_565 S
O347   C348    1.421   .     S
C348   C351    1.525   .     S
C348   H350    1.119   .     S
C348   H349    1.107   .     S
C351   H352    1.109   .     S
C351   H1093   1.110   1_554 S
H353   C499    1.110   1_565 S
H354   C55     1.110   1_565 S
O355   C356    1.413   .     S
O355   C5      1.393   1_565 S
C356   H358    1.116   .     S
C356   C359    1.520   .     S
C356   H61     1.110   1_565 S
C359   H360    1.109   .     S
C359   H1249   1.109   1_554 S
C359   H1250   1.106   1_554 S
H361   C803    1.109   .     S
H362   C803    1.106   .     S
O363   C364    1.413   .     S
C364   C367    1.522   .     S
C364   H365    1.115   .     S
H366   C68     1.113   1_565 S
C367   H369    1.110   .     S
C367   H812    1.111   .     S
C367   H814    1.110   .     S
H368   C1255   1.111   1_554 S
H370   C1255   1.110   1_554 S
C371   C375    1.442   .     S
C371   O407    1.286   .     A
C371   O405    1.291   .     A
C372   O408    1.288   .     A
C372   O406    1.288   .     A
C372   C376    1.440   .     S
C373   C390    1.404   .     A
C373   H399    1.081   .     S
C374   C389    1.405   .     A
C374   H400    1.081   .     S
C374   C318    1.395   1_655 S
C376   C79     1.351   1_565 S
C376   O141    1.389   1_565 S
C377   C382    1.447   .     S
C377   O409    1.292   .     A
C377   O411    1.290   .     A
C378   C381    1.443   .     S
C378   O410    1.293   .     A
C378   O412    1.288   .     A
C379   C381    1.404   .     A
C379   O413    1.383   .     S
C379   C389    1.406   .     A
C380   C390    1.401   .     A
C380   C382    1.405   .     A
C380   O421    1.383   .     S
C381   C383    1.390   .     A
C382   C384    1.397   .     A
C383   H395    1.081   .     S
C383   C385    1.389   .     A
C384   H396    1.085   .     S
C384   C386    1.395   .     A
C385   C391    1.397   .     A
C385   C387    1.411   .     A
C386   C388    1.412   .     A
C386   C392    1.400   .     A
C387   C389    1.413   .     A
C387   C314    1.403   1_655 S
C388   C390    1.412   .     A
C391   H397    1.082   .     S
C391   C299    1.391   1_655 S
C392   H398    1.083   .     S
Cu393  O408    1.976   .     S
Cu393  O405    1.981   .     S
Cu393  N404    2.015   .     S
Cu393  O412    1.949   .     S
Cu393  O409    1.961   .     S
Cu393  Cu394   2.682   .     S
Cu394  O407    1.976   .     S
Cu394  O411    1.949   .     S
Cu394  O406    1.981   .     S
Cu394  N403    2.015   .     S
Cu394  O410    1.961   .     S
H401   N847    1.029   .     S
H402   N1292   1.028   1_554 S
N403   H1289   1.029   1_554 S
N403   N1292   1.288   1_554 S
N404   N847    1.288   .     S
N404   H846    1.028   .     S
O413   C414    1.416   .     S
C414   C417    1.515   .     S
C414   H416    1.113   .     S
C414   H415    1.117   .     S
C417   H419    1.109   .     S
C417   H420    1.106   .     S
C417   H122    1.105   1_565 S
O421   C422    1.421   .     S
C422   C425    1.525   .     S
C422   H424    1.119   .     S
C422   H423    1.107   .     S
C425   H426    1.109   .     S
C425   H1167   1.110   1_554 S
H427   C573    1.110   1_565 S
H428   C129    1.110   1_565 S
O429   C430    1.413   .     S
O429   C79     1.393   1_565 S
C430   H432    1.116   .     S
C430   C433    1.520   .     S
C430   H135    1.110   1_565 S
C433   H434    1.109   .     S
C433   H1323   1.109   1_554 S
C433   H1324   1.106   1_554 S
H435   C877    1.109   .     S
H436   C877    1.106   .     S
O437   C438    1.413   .     S
C438   C441    1.522   .     S
C438   H439    1.115   .     S
H440   C142    1.113   1_565 S
C441   H443    1.110   .     S
C441   H886    1.111   .     S
C441   H888    1.110   .     S
H442   C1329   1.111   1_554 S
H444   C1329   1.110   1_554 S
C445   C449    1.442   .     S
C445   O481    1.286   .     A
C445   O479    1.291   .     A
C446   O482    1.288   .     A
C446   O480    1.288   .     A
C446   C450    1.440   .     S
C447   C464    1.404   .     A
C447   H473    1.081   .     S
C447   C539    1.391   1_455 S
C448   C463    1.405   .     A
C448   H474    1.081   .     S
C448   C540    1.395   .     S
C449   C746    1.351   1_545 S
C449   O799    1.393   1_545 S
C450   C597    1.351   .     S
C450   O659    1.389   .     S
C451   C456    1.447   .     S
C451   O483    1.292   .     A
C451   O485    1.290   .     A
C452   C455    1.443   .     S
C452   O484    1.293   .     A
C452   O486    1.288   .     A
C453   C455    1.404   .     A
C453   O487    1.383   .     S
C453   C463    1.406   .     A
C454   C464    1.401   .     A
C454   C456    1.405   .     A
C454   O495    1.383   .     S
C455   C457    1.390   .     A
C456   C458    1.397   .     A
C457   H469    1.081   .     S
C457   C459    1.389   .     A
C458   H470    1.085   .     S
C458   C460    1.395   .     A
C459   C465    1.397   .     A
C459   C461    1.411   .     A
C460   C462    1.412   .     A
C460   C466    1.400   .     A
C461   C463    1.413   .     A
C461   C536    1.403   .     S
C462   C464    1.412   .     A
C462   C535    1.403   1_455 S
C465   H471    1.082   .     S
C465   C521    1.391   .     S
C466   H472    1.083   .     S
C466   C522    1.395   1_455 S
Cu467  O482    1.976   .     S
Cu467  O479    1.981   .     S
Cu467  N478    2.015   .     S
Cu467  O486    1.949   .     S
Cu467  O483    1.961   .     S
Cu467  Cu468   2.682   .     S
Cu468  O481    1.976   .     S
Cu468  O485    1.949   .     S
Cu468  O480    1.981   .     S
Cu468  N477    2.015   .     S
Cu468  O484    1.961   .     S
H475   N921    1.029   .     S
N478   N921    1.288   .     S
N478   H920    1.028   .     S
O487   C488    1.416   .     S
C488   C491    1.515   .     S
C488   H490    1.113   .     S
C488   H489    1.117   .     S
C491   H493    1.109   .     S
C491   H494    1.106   .     S
C491   H640    1.105   .     S
H492   C787    1.105   1_545 S
O495   C496    1.421   .     S
C496   C499    1.525   .     S
C496   H498    1.119   .     S
C496   H497    1.107   .     S
C499   H500    1.109   .     S
C499   H353    1.110   1_545 S
C499   H798    1.110   1_545 S
H501   C1091   1.110   .     S
H502   C647    1.110   .     S
O503   C504    1.413   .     S
O503   C597    1.393   .     S
C504   H506    1.116   .     S
C504   C507    1.520   .     S
C504   H653    1.110   .     S
H505   C800    1.110   1_545 S
C507   H508    1.109   .     S
H509   C951    1.109   .     S
H510   C951    1.106   .     S
O511   C512    1.413   .     S
O511   C746    1.389   1_545 S
C512   C515    1.522   .     S
C512   H513    1.115   .     S
C512   H810    1.113   1_545 S
H514   C660    1.113   .     S
C515   H517    1.110   .     S
C515   H960    1.111   .     S
C515   H962    1.110   .     S
C519   C523    1.442   .     S
C519   O555    1.286   .     A
C519   O553    1.291   .     A
C520   O556    1.288   .     A
C520   O554    1.288   .     A
C520   C524    1.440   .     S
C521   C538    1.404   .     A
C521   H547    1.081   .     S
C522   C537    1.405   .     A
C522   H548    1.081   .     S
C522   C466    1.395   1_655 S
C523   C820    1.351   1_545 S
C523   O873    1.393   1_545 S
C524   C671    1.351   .     S
C524   O733    1.389   .     S
C525   C530    1.447   .     S
C525   O557    1.292   .     A
C525   O559    1.290   .     A
C526   C529    1.443   .     S
C526   O558    1.293   .     A
C526   O560    1.288   .     A
C527   C529    1.404   .     A
C527   O561    1.383   .     S
C527   C537    1.406   .     A
C528   C538    1.401   .     A
C528   C530    1.405   .     A
C528   O569    1.383   .     S
C529   C531    1.390   .     A
C530   C532    1.397   .     A
C531   H543    1.081   .     S
C531   C533    1.389   .     A
C532   H544    1.085   .     S
C532   C534    1.395   .     A
C533   C539    1.397   .     A
C533   C535    1.411   .     A
C534   C536    1.412   .     A
C534   C540    1.400   .     A
C535   C537    1.413   .     A
C535   C462    1.403   1_655 S
C536   C538    1.412   .     A
C539   H545    1.082   .     S
C539   C447    1.391   1_655 S
C540   H546    1.083   .     S
Cu541  O556    1.976   .     S
Cu541  O553    1.981   .     S
Cu541  N552    2.015   .     S
Cu541  O560    1.949   .     S
Cu541  O557    1.961   .     S
Cu541  Cu542   2.682   .     S
Cu542  O555    1.976   .     S
Cu542  O559    1.949   .     S
Cu542  O554    1.981   .     S
Cu542  N551    2.015   .     S
Cu542  O558    1.961   .     S
H549   N995    1.029   .     S
N552   N995    1.288   .     S
N552   H994    1.028   .     S
O561   C562    1.416   .     S
C562   C565    1.515   .     S
C562   H564    1.113   .     S
C562   H563    1.117   .     S
C565   H567    1.109   .     S
C565   H568    1.106   .     S
C565   H714    1.105   .     S
H566   C861    1.105   1_545 S
O569   C570    1.421   .     S
C570   C573    1.525   .     S
C570   H572    1.119   .     S
C570   H571    1.107   .     S
C573   H574    1.109   .     S
C573   H427    1.110   1_545 S
C573   H872    1.110   1_545 S
H575   C1165   1.110   .     S
H576   C721    1.110   .     S
O577   C578    1.413   .     S
O577   C671    1.393   .     S
C578   H580    1.116   .     S
C578   C581    1.520   .     S
C578   H727    1.110   .     S
H579   C874    1.110   1_545 S
C581   H582    1.109   .     S
H583   C1025   1.109   .     S
H584   C1025   1.106   .     S
O585   C586    1.413   .     S
O585   C820    1.389   1_545 S
C586   C589    1.522   .     S
C586   H587    1.115   .     S
C586   H884    1.113   1_545 S
H588   C734    1.113   .     S
C589   H591    1.110   .     S
C589   H1034   1.111   .     S
C589   H1036   1.110   .     S
C593   C597    1.442   .     S
C593   O629    1.286   .     A
C593   O627    1.291   .     A
C594   O630    1.288   .     A
C594   O628    1.288   .     A
C594   C598    1.440   .     S
C595   C612    1.404   .     A
C595   H621    1.081   .     S
C595   C687    1.391   1_455 S
C596   C611    1.405   .     A
C596   H622    1.081   .     S
C596   C688    1.395   .     S
C598   C745    1.351   .     S
C598   O807    1.389   .     S
C599   C604    1.447   .     S
C599   O631    1.292   .     A
C599   O633    1.290   .     A
C600   C603    1.443   .     S
C600   O632    1.293   .     A
C600   O634    1.288   .     A
C601   C603    1.404   .     A
C601   O635    1.383   .     S
C601   C611    1.406   .     A
C602   C612    1.401   .     A
C602   C604    1.405   .     A
C602   O643    1.383   .     S
C603   C605    1.390   .     A
C604   C606    1.397   .     A
C605   H617    1.081   .     S
C605   C607    1.389   .     A
C606   H618    1.085   .     S
C606   C608    1.395   .     A
C607   C613    1.397   .     A
C607   C609    1.411   .     A
C608   C610    1.412   .     A
C608   C614    1.400   .     A
C609   C611    1.413   .     A
C609   C684    1.403   .     S
C610   C612    1.412   .     A
C610   C683    1.403   1_455 S
C613   H619    1.082   .     S
C613   C669    1.391   .     S
C614   H620    1.083   .     S
C614   C670    1.395   1_455 S
Cu615  O630    1.976   .     S
Cu615  O627    1.981   .     S
Cu615  N626    2.015   .     S
Cu615  O634    1.949   .     S
Cu615  O631    1.961   .     S
Cu615  Cu616   2.682   .     S
Cu616  O629    1.976   .     S
Cu616  O633    1.949   .     S
Cu616  O628    1.981   .     S
Cu616  N625    2.015   .     S
Cu616  O632    1.961   .     S
H623   N1069   1.029   .     S
N626   N1069   1.288   .     S
N626   H1068   1.028   .     S
O635   C636    1.416   .     S
C636   C639    1.515   .     S
C636   H638    1.113   .     S
C636   H637    1.117   .     S
C639   H641    1.109   .     S
C639   H642    1.106   .     S
C639   H788    1.105   .     S
O643   C644    1.421   .     S
C644   C647    1.525   .     S
C644   H646    1.119   .     S
C644   H645    1.107   .     S
C647   H648    1.109   .     S
H649   C1239   1.110   .     S
H650   C795    1.110   .     S
O651   C652    1.413   .     S
O651   C745    1.393   .     S
C652   H654    1.116   .     S
C652   C655    1.520   .     S
C652   H801    1.110   .     S
C655   H656    1.109   .     S
H657   C1099   1.109   .     S
H658   C1099   1.106   .     S
O659   C660    1.413   .     S
C660   C663    1.522   .     S
C660   H661    1.115   .     S
H662   C808    1.113   .     S
C663   H665    1.110   .     S
C663   H1108   1.111   .     S
C663   H1110   1.110   .     S
C667   C671    1.442   .     S
C667   O703    1.286   .     A
C667   O701    1.291   .     A
C668   O704    1.288   .     A
C668   O702    1.288   .     A
C668   C672    1.440   .     S
C669   C686    1.404   .     A
C669   H695    1.081   .     S
C670   C685    1.405   .     A
C670   H696    1.081   .     S
C670   C614    1.395   1_655 S
C672   C819    1.351   .     S
C672   O881    1.389   .     S
C673   C678    1.447   .     S
C673   O705    1.292   .     A
C673   O707    1.290   .     A
C674   C677    1.443   .     S
C674   O706    1.293   .     A
C674   O708    1.288   .     A
C675   C677    1.404   .     A
C675   O709    1.383   .     S
C675   C685    1.406   .     A
C676   C686    1.401   .     A
C676   C678    1.405   .     A
C676   O717    1.383   .     S
C677   C679    1.390   .     A
C678   C680    1.397   .     A
C679   H691    1.081   .     S
C679   C681    1.389   .     A
C680   H692    1.085   .     S
C680   C682    1.395   .     A
C681   C687    1.397   .     A
C681   C683    1.411   .     A
C682   C684    1.412   .     A
C682   C688    1.400   .     A
C683   C685    1.413   .     A
C683   C610    1.403   1_655 S
C684   C686    1.412   .     A
C687   H693    1.082   .     S
C687   C595    1.391   1_655 S
C688   H694    1.083   .     S
Cu689  O704    1.976   .     S
Cu689  O701    1.981   .     S
Cu689  N700    2.015   .     S
Cu689  O708    1.949   .     S
Cu689  O705    1.961   .     S
Cu689  Cu690   2.682   .     S
Cu690  O703    1.976   .     S
Cu690  O707    1.949   .     S
Cu690  O702    1.981   .     S
Cu690  N699    2.015   .     S
Cu690  O706    1.961   .     S
H697   N1143   1.029   .     S
N700   N1143   1.288   .     S
N700   H1142   1.028   .     S
O709   C710    1.416   .     S
C710   C713    1.515   .     S
C710   H712    1.113   .     S
C710   H711    1.117   .     S
C713   H715    1.109   .     S
C713   H716    1.106   .     S
C713   H862    1.105   .     S
O717   C718    1.421   .     S
C718   C721    1.525   .     S
C718   H720    1.119   .     S
C718   H719    1.107   .     S
C721   H722    1.109   .     S
H723   C1313   1.110   .     S
H724   C869    1.110   .     S
O725   C726    1.413   .     S
O725   C819    1.393   .     S
C726   H728    1.116   .     S
C726   C729    1.520   .     S
C726   H875    1.110   .     S
C729   H730    1.109   .     S
H731   C1173   1.109   .     S
H732   C1173   1.106   .     S
O733   C734    1.413   .     S
C734   C737    1.522   .     S
C734   H735    1.115   .     S
H736   C882    1.113   .     S
C737   H739    1.110   .     S
C737   H1182   1.111   .     S
C737   H1184   1.110   .     S
C741   C745    1.442   .     S
C741   O777    1.286   .     A
C741   O775    1.291   .     A
C742   O778    1.288   .     A
C742   O776    1.288   .     A
C742   C746    1.440   .     S
C743   C760    1.404   .     A
C743   H769    1.081   .     S
C743   C835    1.391   1_455 S
C744   C759    1.405   .     A
C744   H770    1.081   .     S
C744   C836    1.395   .     S
C746   C449    1.351   1_565 S
C746   O511    1.389   1_565 S
C747   C752    1.447   .     S
C747   O779    1.292   .     A
C747   O781    1.290   .     A
C748   C751    1.443   .     S
C748   O780    1.293   .     A
C748   O782    1.288   .     A
C749   C751    1.404   .     A
C749   O783    1.383   .     S
C749   C759    1.406   .     A
C750   C760    1.401   .     A
C750   C752    1.405   .     A
C750   O791    1.383   .     S
C751   C753    1.390   .     A
C752   C754    1.397   .     A
C753   H765    1.081   .     S
C753   C755    1.389   .     A
C754   H766    1.085   .     S
C754   C756    1.395   .     A
C755   C761    1.397   .     A
C755   C757    1.411   .     A
C756   C758    1.412   .     A
C756   C762    1.400   .     A
C757   C759    1.413   .     A
C757   C832    1.403   .     S
C758   C760    1.412   .     A
C758   C831    1.403   1_455 S
C761   H767    1.082   .     S
C761   C817    1.391   .     S
C762   H768    1.083   .     S
C762   C818    1.395   1_455 S
Cu763  O778    1.976   .     S
Cu763  O775    1.981   .     S
Cu763  N774    2.015   .     S
Cu763  O782    1.949   .     S
Cu763  O779    1.961   .     S
Cu763  Cu764   2.682   .     S
Cu764  O777    1.976   .     S
Cu764  O781    1.949   .     S
Cu764  O776    1.981   .     S
Cu764  N773    2.015   .     S
Cu764  O780    1.961   .     S
H771   N1217   1.029   .     S
N774   N1217   1.288   .     S
N774   H1216   1.028   .     S
O783   C784    1.416   .     S
C784   C787    1.515   .     S
C784   H786    1.113   .     S
C784   H785    1.117   .     S
C787   H789    1.109   .     S
C787   H790    1.106   .     S
C787   H492    1.105   1_565 S
O791   C792    1.421   .     S
C792   C795    1.525   .     S
C792   H794    1.119   .     S
C792   H793    1.107   .     S
C795   H796    1.109   .     S
H797   C943    1.110   1_565 S
H798   C499    1.110   1_565 S
O799   C800    1.413   .     S
O799   C449    1.393   1_565 S
C800   H802    1.116   .     S
C800   C803    1.520   .     S
C800   H505    1.110   1_565 S
C803   H804    1.109   .     S
H805   C1247   1.109   .     S
H806   C1247   1.106   .     S
O807   C808    1.413   .     S
C808   C811    1.522   .     S
C808   H809    1.115   .     S
H810   C512    1.113   1_565 S
C811   H813    1.110   .     S
C811   H1256   1.111   .     S
C811   H1258   1.110   .     S
C815   C819    1.442   .     S
C815   O851    1.286   .     A
C815   O849    1.291   .     A
C816   O852    1.288   .     A
C816   O850    1.288   .     A
C816   C820    1.440   .     S
C817   C834    1.404   .     A
C817   H843    1.081   .     S
C818   C833    1.405   .     A
C818   H844    1.081   .     S
C818   C762    1.395   1_655 S
C820   C523    1.351   1_565 S
C820   O585    1.389   1_565 S
C821   C826    1.447   .     S
C821   O853    1.292   .     A
C821   O855    1.290   .     A
C822   C825    1.443   .     S
C822   O854    1.293   .     A
C822   O856    1.288   .     A
C823   C825    1.404   .     A
C823   O857    1.383   .     S
C823   C833    1.406   .     A
C824   C834    1.401   .     A
C824   C826    1.405   .     A
C824   O865    1.383   .     S
C825   C827    1.390   .     A
C826   C828    1.397   .     A
C827   H839    1.081   .     S
C827   C829    1.389   .     A
C828   H840    1.085   .     S
C828   C830    1.395   .     A
C829   C835    1.397   .     A
C829   C831    1.411   .     A
C830   C832    1.412   .     A
C830   C836    1.400   .     A
C831   C833    1.413   .     A
C831   C758    1.403   1_655 S
C832   C834    1.412   .     A
C835   H841    1.082   .     S
C835   C743    1.391   1_655 S
C836   H842    1.083   .     S
Cu837  O852    1.976   .     S
Cu837  O849    1.981   .     S
Cu837  N848    2.015   .     S
Cu837  O856    1.949   .     S
Cu837  O853    1.961   .     S
Cu837  Cu838   2.682   .     S
Cu838  O851    1.976   .     S
Cu838  O855    1.949   .     S
Cu838  O850    1.981   .     S
Cu838  N847    2.015   .     S
Cu838  O854    1.961   .     S
H845   N1291   1.029   .     S
N848   N1291   1.288   .     S
N848   H1290   1.028   .     S
O857   C858    1.416   .     S
C858   C861    1.515   .     S
C858   H860    1.113   .     S
C858   H859    1.117   .     S
C861   H863    1.109   .     S
C861   H864    1.106   .     S
C861   H566    1.105   1_565 S
O865   C866    1.421   .     S
C866   C869    1.525   .     S
C866   H868    1.119   .     S
C866   H867    1.107   .     S
C869   H870    1.109   .     S
H871   C1017   1.110   1_565 S
H872   C573    1.110   1_565 S
O873   C874    1.413   .     S
O873   C523    1.393   1_565 S
C874   H876    1.116   .     S
C874   C877    1.520   .     S
C874   H579    1.110   1_565 S
C877   H878    1.109   .     S
H879   C1321   1.109   .     S
H880   C1321   1.106   .     S
O881   C882    1.413   .     S
C882   C885    1.522   .     S
C882   H883    1.115   .     S
H884   C586    1.113   1_565 S
C885   H887    1.110   .     S
C885   H1330   1.111   .     S
C885   H1332   1.110   .     S
C889   C893    1.442   .     S
C889   O925    1.286   .     A
C889   O923    1.291   .     A
C890   O926    1.288   .     A
C890   O924    1.288   .     A
C890   C894    1.440   .     S
C891   C908    1.404   .     A
C891   H917    1.081   .     S
C891   C983    1.391   1_455 S
C892   C907    1.405   .     A
C892   H918    1.081   .     S
C892   C984    1.395   .     S
C893   C1190   1.351   1_545 S
C893   O1243   1.393   1_545 S
C894   C1041   1.351   .     S
C894   O1103   1.389   .     S
C895   C900    1.447   .     S
C895   O927    1.292   .     A
C895   O929    1.290   .     A
C896   C899    1.443   .     S
C896   O928    1.293   .     A
C896   O930    1.288   .     A
C897   C899    1.404   .     A
C897   O931    1.383   .     S
C897   C907    1.406   .     A
C898   C908    1.401   .     A
C898   C900    1.405   .     A
C898   O939    1.383   .     S
C899   C901    1.390   .     A
C900   C902    1.397   .     A
C901   H913    1.081   .     S
C901   C903    1.389   .     A
C902   H914    1.085   .     S
C902   C904    1.395   .     A
C903   C909    1.397   .     A
C903   C905    1.411   .     A
C904   C906    1.412   .     A
C904   C910    1.400   .     A
C905   C907    1.413   .     A
C905   C980    1.403   .     S
C906   C908    1.412   .     A
C906   C979    1.403   1_455 S
C909   H915    1.082   .     S
C909   C965    1.391   .     S
C910   H916    1.083   .     S
C910   C966    1.395   1_455 S
Cu911  O926    1.976   .     S
Cu911  O923    1.981   .     S
Cu911  N922    2.015   .     S
Cu911  O930    1.949   .     S
Cu911  O927    1.961   .     S
Cu911  Cu912   2.682   .     S
Cu912  O925    1.976   .     S
Cu912  O929    1.949   .     S
Cu912  O924    1.981   .     S
Cu912  N921    2.015   .     S
Cu912  O928    1.961   .     S
H919   N33     1.029   1_556 S
N922   N33     1.288   1_556 S
N922   H32     1.028   1_556 S
O931   C932    1.416   .     S
C932   C935    1.515   .     S
C932   H934    1.113   .     S
C932   H933    1.117   .     S
C935   H937    1.109   .     S
C935   H938    1.106   .     S
C935   H1084   1.105   .     S
H936   C1231   1.105   1_545 S
O939   C940    1.421   .     S
C940   C943    1.525   .     S
C940   H942    1.119   .     S
C940   H941    1.107   .     S
C943   H944    1.109   .     S
C943   H797    1.110   1_545 S
C943   H1242   1.110   1_545 S
H945   C203    1.110   1_556 S
H946   C1091   1.110   .     S
O947   C948    1.413   .     S
O947   C1041   1.393   .     S
C948   H950    1.116   .     S
C948   C951    1.520   .     S
C948   H1097   1.110   .     S
H949   C1244   1.110   1_545 S
C951   H952    1.109   .     S
H953   C63     1.109   1_556 S
H954   C63     1.106   1_556 S
O955   C956    1.413   .     S
O955   C1190   1.389   1_545 S
C956   C959    1.522   .     S
C956   H957    1.115   .     S
C956   H1254   1.113   1_545 S
H958   C1104   1.113   .     S
C959   H961    1.110   .     S
C959   H72     1.111   1_556 S
C959   H74     1.110   1_556 S
C963   C967    1.442   .     S
C963   O999    1.286   .     A
C963   O997    1.291   .     A
C964   O1000   1.288   .     A
C964   O998    1.288   .     A
C964   C968    1.440   .     S
C965   C982    1.404   .     A
C965   H991    1.081   .     S
C966   C981    1.405   .     A
C966   H992    1.081   .     S
C966   C910    1.395   1_655 S
C967   C1264   1.351   1_545 S
C967   O1317   1.393   1_545 S
C968   C1115   1.351   .     S
C968   O1177   1.389   .     S
C969   C974    1.447   .     S
C969   O1001   1.292   .     A
C969   O1003   1.290   .     A
C970   C973    1.443   .     S
C970   O1002   1.293   .     A
C970   O1004   1.288   .     A
C971   C973    1.404   .     A
C971   O1005   1.383   .     S
C971   C981    1.406   .     A
C972   C982    1.401   .     A
C972   C974    1.405   .     A
C972   O1013   1.383   .     S
C973   C975    1.390   .     A
C974   C976    1.397   .     A
C975   H987    1.081   .     S
C975   C977    1.389   .     A
C976   H988    1.085   .     S
C976   C978    1.395   .     A
C977   C983    1.397   .     A
C977   C979    1.411   .     A
C978   C980    1.412   .     A
C978   C984    1.400   .     A
C979   C981    1.413   .     A
C979   C906    1.403   1_655 S
C980   C982    1.412   .     A
C983   H989    1.082   .     S
C983   C891    1.391   1_655 S
C984   H990    1.083   .     S
Cu985  O1000   1.976   .     S
Cu985  O997    1.981   .     S
Cu985  N996    2.015   .     S
Cu985  O1004   1.949   .     S
Cu985  O1001   1.961   .     S
Cu985  Cu986   2.682   .     S
Cu986  O999    1.976   .     S
Cu986  O1003   1.949   .     S
Cu986  O998    1.981   .     S
Cu986  N995    2.015   .     S
Cu986  O1002   1.961   .     S
H993   N107    1.029   1_556 S
N996   N107    1.288   1_556 S
N996   H106    1.028   1_556 S
O1005  C1006   1.416   .     S
C1006  C1009   1.515   .     S
C1006  H1008   1.113   .     S
C1006  H1007   1.117   .     S
C1009  H1011   1.109   .     S
C1009  H1012   1.106   .     S
C1009  H1158   1.105   .     S
H1010  C1305   1.105   1_545 S
O1013  C1014   1.421   .     S
C1014  C1017   1.525   .     S
C1014  H1016   1.119   .     S
C1014  H1015   1.107   .     S
C1017  H1018   1.109   .     S
C1017  H871    1.110   1_545 S
C1017  H1316   1.110   1_545 S
H1019  C277    1.110   1_556 S
H1020  C1165   1.110   .     S
O1021  C1022   1.413   .     S
O1021  C1115   1.393   .     S
C1022  H1024   1.116   .     S
C1022  C1025   1.520   .     S
C1022  H1171   1.110   .     S
H1023  C1318   1.110   1_545 S
C1025  H1026   1.109   .     S
H1027  C137    1.109   1_556 S
H1028  C137    1.106   1_556 S
O1029  C1030   1.413   .     S
O1029  C1264   1.389   1_545 S
C1030  C1033   1.522   .     S
C1030  H1031   1.115   .     S
C1030  H1328   1.113   1_545 S
H1032  C1178   1.113   .     S
C1033  H1035   1.110   .     S
C1033  H146    1.111   1_556 S
C1033  H148    1.110   1_556 S
C1037  C1041   1.442   .     S
C1037  O1073   1.286   .     A
C1037  O1071   1.291   .     A
C1038  O1074   1.288   .     A
C1038  O1072   1.288   .     A
C1038  C1042   1.440   .     S
C1039  C1056   1.404   .     A
C1039  H1065   1.081   .     S
C1039  C1131   1.391   1_455 S
C1040  C1055   1.405   .     A
C1040  H1066   1.081   .     S
C1040  C1132   1.395   .     S
C1042  C1189   1.351   .     S
C1042  O1251   1.389   .     S
C1043  C1048   1.447   .     S
C1043  O1075   1.292   .     A
C1043  O1077   1.290   .     A
C1044  C1047   1.443   .     S
C1044  O1076   1.293   .     A
C1044  O1078   1.288   .     A
C1045  C1047   1.404   .     A
C1045  O1079   1.383   .     S
C1045  C1055   1.406   .     A
C1046  C1056   1.401   .     A
C1046  C1048   1.405   .     A
C1046  O1087   1.383   .     S
C1047  C1049   1.390   .     A
C1048  C1050   1.397   .     A
C1049  H1061   1.081   .     S
C1049  C1051   1.389   .     A
C1050  H1062   1.085   .     S
C1050  C1052   1.395   .     A
C1051  C1057   1.397   .     A
C1051  C1053   1.411   .     A
C1052  C1054   1.412   .     A
C1052  C1058   1.400   .     A
C1053  C1055   1.413   .     A
C1053  C1128   1.403   .     S
C1054  C1056   1.412   .     A
C1054  C1127   1.403   1_455 S
C1057  H1063   1.082   .     S
C1057  C1113   1.391   .     S
C1058  H1064   1.083   .     S
C1058  C1114   1.395   1_455 S
Cu1059 O1074   1.976   .     S
Cu1059 O1071   1.981   .     S
Cu1059 N1070   2.015   .     S
Cu1059 O1078   1.949   .     S
Cu1059 O1075   1.961   .     S
Cu1059 Cu1060  2.682   .     S
Cu1060 O1073   1.976   .     S
Cu1060 O1077   1.949   .     S
Cu1060 O1072   1.981   .     S
Cu1060 N1069   2.015   .     S
Cu1060 O1076   1.961   .     S
H1067  N181    1.029   1_556 S
N1070  N181    1.288   1_556 S
N1070  H180    1.028   1_556 S
O1079  C1080   1.416   .     S
C1080  C1083   1.515   .     S
C1080  H1082   1.113   .     S
C1080  H1081   1.117   .     S
C1083  H1085   1.109   .     S
C1083  H1086   1.106   .     S
C1083  H1232   1.105   .     S
O1087  C1088   1.421   .     S
C1088  C1091   1.525   .     S
C1088  H1090   1.119   .     S
C1088  H1089   1.107   .     S
C1091  H1092   1.109   .     S
H1093  C351    1.110   1_556 S
H1094  C1239   1.110   .     S
O1095  C1096   1.413   .     S
O1095  C1189   1.393   .     S
C1096  H1098   1.116   .     S
C1096  C1099   1.520   .     S
C1096  H1245   1.110   .     S
C1099  H1100   1.109   .     S
H1101  C211    1.109   1_556 S
H1102  C211    1.106   1_556 S
O1103  C1104   1.413   .     S
C1104  C1107   1.522   .     S
C1104  H1105   1.115   .     S
H1106  C1252   1.113   .     S
C1107  H1109   1.110   .     S
C1107  H220    1.111   1_556 S
C1107  H222    1.110   1_556 S
C1111  C1115   1.442   .     S
C1111  O1147   1.286   .     A
C1111  O1145   1.291   .     A
C1112  O1148   1.288   .     A
C1112  O1146   1.288   .     A
C1112  C1116   1.440   .     S
C1113  C1130   1.404   .     A
C1113  H1139   1.081   .     S
C1114  C1129   1.405   .     A
C1114  H1140   1.081   .     S
C1114  C1058   1.395   1_655 S
C1116  C1263   1.351   .     S
C1116  O1325   1.389   .     S
C1117  C1122   1.447   .     S
C1117  O1149   1.292   .     A
C1117  O1151   1.290   .     A
C1118  C1121   1.443   .     S
C1118  O1150   1.293   .     A
C1118  O1152   1.288   .     A
C1119  C1121   1.404   .     A
C1119  O1153   1.383   .     S
C1119  C1129   1.406   .     A
C1120  C1130   1.401   .     A
C1120  C1122   1.405   .     A
C1120  O1161   1.383   .     S
C1121  C1123   1.390   .     A
C1122  C1124   1.397   .     A
C1123  H1135   1.081   .     S
C1123  C1125   1.389   .     A
C1124  H1136   1.085   .     S
C1124  C1126   1.395   .     A
C1125  C1131   1.397   .     A
C1125  C1127   1.411   .     A
C1126  C1128   1.412   .     A
C1126  C1132   1.400   .     A
C1127  C1129   1.413   .     A
C1127  C1054   1.403   1_655 S
C1128  C1130   1.412   .     A
C1131  H1137   1.082   .     S
C1131  C1039   1.391   1_655 S
C1132  H1138   1.083   .     S
Cu1133 O1148   1.976   .     S
Cu1133 O1145   1.981   .     S
Cu1133 N1144   2.015   .     S
Cu1133 O1152   1.949   .     S
Cu1133 O1149   1.961   .     S
Cu1133 Cu1134  2.682   .     S
Cu1134 O1147   1.976   .     S
Cu1134 O1151   1.949   .     S
Cu1134 O1146   1.981   .     S
Cu1134 N1143   2.015   .     S
Cu1134 O1150   1.961   .     S
H1141  N255    1.029   1_556 S
N1144  N255    1.288   1_556 S
N1144  H254    1.028   1_556 S
O1153  C1154   1.416   .     S
C1154  C1157   1.515   .     S
C1154  H1156   1.113   .     S
C1154  H1155   1.117   .     S
C1157  H1159   1.109   .     S
C1157  H1160   1.106   .     S
C1157  H1306   1.105   .     S
O1161  C1162   1.421   .     S
C1162  C1165   1.525   .     S
C1162  H1164   1.119   .     S
C1162  H1163   1.107   .     S
C1165  H1166   1.109   .     S
H1167  C425    1.110   1_556 S
H1168  C1313   1.110   .     S
O1169  C1170   1.413   .     S
O1169  C1263   1.393   .     S
C1170  H1172   1.116   .     S
C1170  C1173   1.520   .     S
C1170  H1319   1.110   .     S
C1173  H1174   1.109   .     S
H1175  C285    1.109   1_556 S
H1176  C285    1.106   1_556 S
O1177  C1178   1.413   .     S
C1178  C1181   1.522   .     S
C1178  H1179   1.115   .     S
H1180  C1326   1.113   .     S
C1181  H1183   1.110   .     S
C1181  H294    1.111   1_556 S
C1181  H296    1.110   1_556 S
C1185  C1189   1.442   .     S
C1185  O1221   1.286   .     A
C1185  O1219   1.291   .     A
C1186  O1222   1.288   .     A
C1186  O1220   1.288   .     A
C1186  C1190   1.440   .     S
C1187  C1204   1.404   .     A
C1187  H1213   1.081   .     S
C1187  C1279   1.391   1_455 S
C1188  C1203   1.405   .     A
C1188  H1214   1.081   .     S
C1188  C1280   1.395   .     S
C1190  C893    1.351   1_565 S
C1190  O955    1.389   1_565 S
C1191  C1196   1.447   .     S
C1191  O1223   1.292   .     A
C1191  O1225   1.290   .     A
C1192  C1195   1.443   .     S
C1192  O1224   1.293   .     A
C1192  O1226   1.288   .     A
C1193  C1195   1.404   .     A
C1193  O1227   1.383   .     S
C1193  C1203   1.406   .     A
C1194  C1204   1.401   .     A
C1194  C1196   1.405   .     A
C1194  O1235   1.383   .     S
C1195  C1197   1.390   .     A
C1196  C1198   1.397   .     A
C1197  H1209   1.081   .     S
C1197  C1199   1.389   .     A
C1198  H1210   1.085   .     S
C1198  C1200   1.395   .     A
C1199  C1205   1.397   .     A
C1199  C1201   1.411   .     A
C1200  C1202   1.412   .     A
C1200  C1206   1.400   .     A
C1201  C1203   1.413   .     A
C1201  C1276   1.403   .     S
C1202  C1204   1.412   .     A
C1202  C1275   1.403   1_455 S
C1205  H1211   1.082   .     S
C1205  C1261   1.391   .     S
C1206  H1212   1.083   .     S
C1206  C1262   1.395   1_455 S
Cu1207 O1222   1.976   .     S
Cu1207 O1219   1.981   .     S
Cu1207 N1218   2.015   .     S
Cu1207 O1226   1.949   .     S
Cu1207 O1223   1.961   .     S
Cu1207 Cu1208  2.682   .     S
Cu1208 O1221   1.976   .     S
Cu1208 O1225   1.949   .     S
Cu1208 O1220   1.981   .     S
Cu1208 N1217   2.015   .     S
Cu1208 O1224   1.961   .     S
H1215  N329    1.029   1_556 S
N1218  N329    1.288   1_556 S
N1218  H328    1.028   1_556 S
O1227  C1228   1.416   .     S
C1228  C1231   1.515   .     S
C1228  H1230   1.113   .     S
C1228  H1229   1.117   .     S
C1231  H1233   1.109   .     S
C1231  H1234   1.106   .     S
C1231  H936    1.105   1_565 S
O1235  C1236   1.421   .     S
C1236  C1239   1.525   .     S
C1236  H1238   1.119   .     S
C1236  H1237   1.107   .     S
C1239  H1240   1.109   .     S
H1241  C55     1.110   1_566 S
H1242  C943    1.110   1_565 S
O1243  C1244   1.413   .     S
O1243  C893    1.393   1_565 S
C1244  H1246   1.116   .     S
C1244  C1247   1.520   .     S
C1244  H949    1.110   1_565 S
C1247  H1248   1.109   .     S
H1249  C359    1.109   1_556 S
H1250  C359    1.106   1_556 S
O1251  C1252   1.413   .     S
C1252  C1255   1.522   .     S
C1252  H1253   1.115   .     S
H1254  C956    1.113   1_565 S
C1255  H1257   1.110   .     S
C1255  H368    1.111   1_556 S
C1255  H370    1.110   1_556 S
C1259  C1263   1.442   .     S
C1259  O1295   1.286   .     A
C1259  O1293   1.291   .     A
C1260  O1296   1.288   .     A
C1260  O1294   1.288   .     A
C1260  C1264   1.440   .     S
C1261  C1278   1.404   .     A
C1261  H1287   1.081   .     S
C1262  C1277   1.405   .     A
C1262  H1288   1.081   .     S
C1262  C1206   1.395   1_655 S
C1264  C967    1.351   1_565 S
C1264  O1029   1.389   1_565 S
C1265  C1270   1.447   .     S
C1265  O1297   1.292   .     A
C1265  O1299   1.290   .     A
C1266  C1269   1.443   .     S
C1266  O1298   1.293   .     A
C1266  O1300   1.288   .     A
C1267  C1269   1.404   .     A
C1267  O1301   1.383   .     S
C1267  C1277   1.406   .     A
C1268  C1278   1.401   .     A
C1268  C1270   1.405   .     A
C1268  O1309   1.383   .     S
C1269  C1271   1.390   .     A
C1270  C1272   1.397   .     A
C1271  H1283   1.081   .     S
C1271  C1273   1.389   .     A
C1272  H1284   1.085   .     S
C1272  C1274   1.395   .     A
C1273  C1279   1.397   .     A
C1273  C1275   1.411   .     A
C1274  C1276   1.412   .     A
C1274  C1280   1.400   .     A
C1275  C1277   1.413   .     A
C1275  C1202   1.403   1_655 S
C1276  C1278   1.412   .     A
C1279  H1285   1.082   .     S
C1279  C1187   1.391   1_655 S
C1280  H1286   1.083   .     S
Cu1281 O1296   1.976   .     S
Cu1281 O1293   1.981   .     S
Cu1281 N1292   2.015   .     S
Cu1281 O1300   1.949   .     S
Cu1281 O1297   1.961   .     S
Cu1281 Cu1282  2.682   .     S
Cu1282 O1295   1.976   .     S
Cu1282 O1299   1.949   .     S
Cu1282 O1294   1.981   .     S
Cu1282 N1291   2.015   .     S
Cu1282 O1298   1.961   .     S
H1289  N403    1.029   1_556 S
N1292  N403    1.288   1_556 S
N1292  H402    1.028   1_556 S
O1301  C1302   1.416   .     S
C1302  C1305   1.515   .     S
C1302  H1304   1.113   .     S
C1302  H1303   1.117   .     S
C1305  H1307   1.109   .     S
C1305  H1308   1.106   .     S
C1305  H1010   1.105   1_565 S
O1309  C1310   1.421   .     S
C1310  C1313   1.525   .     S
C1310  H1312   1.119   .     S
C1310  H1311   1.107   .     S
C1313  H1314   1.109   .     S
H1315  C129    1.110   1_566 S
H1316  C1017   1.110   1_565 S
O1317  C1318   1.413   .     S
O1317  C967    1.393   1_565 S
C1318  H1320   1.116   .     S
C1318  C1321   1.520   .     S
C1318  H1023   1.110   1_565 S
C1321  H1322   1.109   .     S
H1323  C433    1.109   1_556 S
H1324  C433    1.106   1_556 S
O1325  C1326   1.413   .     S
C1326  C1329   1.522   .     S
C1326  H1327   1.115   .     S
H1328  C1030   1.113   1_565 S
C1329  H1331   1.110   .     S
C1329  H442    1.111   1_556 S
C1329  H444    1.110   1_556 S
