data_str_m2_o1_o2_pcu_sym.70
_audit_creation_date              2020-01-03
_audit_creation_method            'Materials Studio'
_symmetry_space_group_name_H-M    'P1'
_symmetry_Int_Tables_number       1
_symmetry_cell_setting            triclinic
loop_
_symmetry_equiv_pos_as_xyz
  x,y,z
_cell_length_a                    32.4915
_cell_length_b                    28.8528
_cell_length_c                    30.4260
_cell_angle_alpha                 90.0000
_cell_angle_beta                  93.1436
_cell_angle_gamma                 90.0000
loop_
_atom_site_label
_atom_site_type_symbol
_atom_site_fract_x
_atom_site_fract_y
_atom_site_fract_z
_atom_site_U_iso_or_equiv
_atom_site_adp_type
_atom_site_occupancy
Br1    Br    0.09860   0.05564   0.18523   0.00000  Uiso   1.00
Br2    Br    0.23123   0.27697   0.31853   0.00000  Uiso   1.00
Br3    Br    0.23473   0.05564   0.31477   0.00000  Uiso   1.00
Br4    Br    0.10210   0.27697   0.18147   0.00000  Uiso   1.00
C5     C     0.08745   0.16668   0.25005   0.00000  Uiso   1.00
C6     C     0.31204   0.20882   0.24991   0.00000  Uiso   1.00
C7     C     0.31204   0.12463   0.24980   0.00000  Uiso   1.00
C8     C     0.02130   0.20882   0.25009   0.00000  Uiso   1.00
C9     C     0.17822   0.20811   0.04848   0.00000  Uiso   1.00
C10    C     0.17731   0.12806   0.45338   0.00000  Uiso   1.00
C11    C     0.15512   0.20811   0.45152   0.00000  Uiso   1.00
C12    C     0.15602   0.12806   0.04662   0.00000  Uiso   1.00
C13    C     0.17834   0.20776   0.09425   0.00000  Uiso   1.00
C14    C     0.17590   0.12697   0.40778   0.00000  Uiso   1.00
C15    C     0.15500   0.20776   0.40575   0.00000  Uiso   1.00
C16    C     0.24588   0.16668   0.24995   0.00000  Uiso   1.00
C17    C     0.15744   0.12697   0.09222   0.00000  Uiso   1.00
C18    C     0.16771   0.16709   0.11670   0.00000  Uiso   1.00
C19    C     0.16562   0.16709   0.38330   0.00000  Uiso   1.00
C20    C     0.16674   0.16838   0.02423   0.00000  Uiso   1.00
C21    C     0.16659   0.16838   0.47577   0.00000  Uiso   1.00
C22    C     0.29054   0.16671   0.24985   0.00000  Uiso   1.00
C23    C     0.04279   0.16671   0.25015   0.00000  Uiso   1.00
C24    C     0.16709   0.16672   0.16504   0.00000  Uiso   1.00
C25    C     0.16625   0.16672   0.33496   0.00000  Uiso   1.00
C26    C     0.13928   0.02459   0.22299   0.00000  Uiso   1.00
C27    C     0.19352   0.30860   0.27760   0.00000  Uiso   1.00
C28    C     0.19406   0.02459   0.27701   0.00000  Uiso   1.00
C29    C     0.13981   0.30860   0.22240   0.00000  Uiso   1.00
C30    C     0.02129   0.12463   0.25020   0.00000  Uiso   1.00
Cu31   Cu    0.16667   0.21355   0.25000   0.00000  Uiso   1.00
Cu32   Cu    0.16667   0.11978   0.25000   0.00000  Uiso   1.00
F33    F     0.18990   0.24696   0.11633   0.00000  Uiso   1.00
F34    F     0.18474   0.08640   0.38808   0.00000  Uiso   1.00
F35    F     0.14343   0.24696   0.38367   0.00000  Uiso   1.00
F36    F     0.14859   0.08640   0.11192   0.00000  Uiso   1.00
H37    H     0.18769   0.23937   0.03214   0.00000  Uiso   1.00
H38    H     0.18706   0.09707   0.47109   0.00000  Uiso   1.00
H39    H     0.14565   0.23937   0.46786   0.00000  Uiso   1.00
H40    H     0.14627   0.09707   0.02891   0.00000  Uiso   1.00
H41    H     0.03723   0.09167   0.25054   0.00000  Uiso   1.00
H42    H     0.29606   0.24176   0.24979   0.00000  Uiso   1.00
H43    H     0.29611   0.09167   0.24946   0.00000  Uiso   1.00
H44    H     0.03727   0.24176   0.25021   0.00000  Uiso   1.00
N45    N     0.16667   0.28402   0.25000   0.00000  Uiso   1.00
N46    N     0.16667   0.04931   0.25000   0.00000  Uiso   1.00
O47    O     0.10655   0.20625   0.25000   0.00000  Uiso   1.00
O48    O     0.22679   0.12709   0.25000   0.00000  Uiso   1.00
O49    O     0.22679   0.20625   0.25001   0.00000  Uiso   1.00
O50    O     0.10655   0.12709   0.25000   0.00000  Uiso   1.00
O51    O     0.16666   0.20626   0.18573   0.00000  Uiso   1.00
O52    O     0.16667   0.12707   0.31427   0.00000  Uiso   1.00
O53    O     0.16667   0.20626   0.31427   0.00000  Uiso   1.00
O54    O     0.16666   0.12707   0.18573   0.00000  Uiso   1.00
Br55   Br    0.43193   0.05564   0.18523   0.00000  Uiso   1.00
Br56   Br    0.56456   0.27697   0.31853   0.00000  Uiso   1.00
Br57   Br    0.56807   0.05564   0.31477   0.00000  Uiso   1.00
Br58   Br    0.43544   0.27697   0.18147   0.00000  Uiso   1.00
C59    C     0.42079   0.16668   0.25005   0.00000  Uiso   1.00
C60    C     0.64537   0.20882   0.24991   0.00000  Uiso   1.00
C61    C     0.64538   0.12463   0.24980   0.00000  Uiso   1.00
C62    C     0.35463   0.20882   0.25009   0.00000  Uiso   1.00
C63    C     0.51155   0.20811   0.04848   0.00000  Uiso   1.00
C64    C     0.51064   0.12806   0.45338   0.00000  Uiso   1.00
C65    C     0.48845   0.20811   0.45152   0.00000  Uiso   1.00
C66    C     0.48936   0.12806   0.04662   0.00000  Uiso   1.00
C67    C     0.51167   0.20776   0.09425   0.00000  Uiso   1.00
C68    C     0.50923   0.12697   0.40778   0.00000  Uiso   1.00
C69    C     0.48833   0.20776   0.40575   0.00000  Uiso   1.00
C70    C     0.57921   0.16668   0.24995   0.00000  Uiso   1.00
C71    C     0.49077   0.12697   0.09222   0.00000  Uiso   1.00
C72    C     0.50104   0.16709   0.11670   0.00000  Uiso   1.00
C73    C     0.49896   0.16709   0.38330   0.00000  Uiso   1.00
C74    C     0.50008   0.16838   0.02423   0.00000  Uiso   1.00
C75    C     0.49992   0.16838   0.47577   0.00000  Uiso   1.00
C76    C     0.62388   0.16671   0.24985   0.00000  Uiso   1.00
C77    C     0.37612   0.16671   0.25015   0.00000  Uiso   1.00
C78    C     0.50042   0.16672   0.16504   0.00000  Uiso   1.00
C79    C     0.49958   0.16672   0.33496   0.00000  Uiso   1.00
C80    C     0.47261   0.02459   0.22299   0.00000  Uiso   1.00
C81    C     0.52686   0.30860   0.27760   0.00000  Uiso   1.00
C82    C     0.52739   0.02459   0.27701   0.00000  Uiso   1.00
C83    C     0.47314   0.30860   0.22240   0.00000  Uiso   1.00
C84    C     0.35462   0.12463   0.25020   0.00000  Uiso   1.00
Cu85   Cu    0.50000   0.21355   0.25000   0.00000  Uiso   1.00
Cu86   Cu    0.50000   0.11978   0.25000   0.00000  Uiso   1.00
F87    F     0.52323   0.24696   0.11633   0.00000  Uiso   1.00
F88    F     0.51807   0.08640   0.38808   0.00000  Uiso   1.00
F89    F     0.47677   0.24696   0.38367   0.00000  Uiso   1.00
F90    F     0.48193   0.08640   0.11192   0.00000  Uiso   1.00
H91    H     0.52102   0.23937   0.03214   0.00000  Uiso   1.00
H92    H     0.52040   0.09707   0.47109   0.00000  Uiso   1.00
H93    H     0.47898   0.23937   0.46786   0.00000  Uiso   1.00
H94    H     0.47960   0.09707   0.02891   0.00000  Uiso   1.00
H95    H     0.37056   0.09167   0.25054   0.00000  Uiso   1.00
H96    H     0.62940   0.24176   0.24979   0.00000  Uiso   1.00
H97    H     0.62944   0.09167   0.24946   0.00000  Uiso   1.00
H98    H     0.37060   0.24176   0.25021   0.00000  Uiso   1.00
N99    N     0.50000   0.28402   0.25000   0.00000  Uiso   1.00
N100   N     0.50000   0.04931   0.25000   0.00000  Uiso   1.00
O101   O     0.43988   0.20625   0.25000   0.00000  Uiso   1.00
O102   O     0.56012   0.12709   0.25000   0.00000  Uiso   1.00
O103   O     0.56012   0.20625   0.25001   0.00000  Uiso   1.00
O104   O     0.43988   0.12709   0.25000   0.00000  Uiso   1.00
O105   O     0.50000   0.20626   0.18573   0.00000  Uiso   1.00
O106   O     0.50000   0.12707   0.31427   0.00000  Uiso   1.00
O107   O     0.50000   0.20626   0.31427   0.00000  Uiso   1.00
O108   O     0.50000   0.12707   0.18573   0.00000  Uiso   1.00
Br109  Br    0.76527   0.05564   0.18523   0.00000  Uiso   1.00
Br110  Br    0.89790   0.27697   0.31853   0.00000  Uiso   1.00
Br111  Br    0.90140   0.05564   0.31477   0.00000  Uiso   1.00
Br112  Br    0.76877   0.27697   0.18147   0.00000  Uiso   1.00
C113   C     0.75412   0.16668   0.25005   0.00000  Uiso   1.00
C114   C     0.97870   0.20882   0.24991   0.00000  Uiso   1.00
C115   C     0.97871   0.12463   0.24980   0.00000  Uiso   1.00
C116   C     0.68796   0.20882   0.25009   0.00000  Uiso   1.00
C117   C     0.84488   0.20811   0.04848   0.00000  Uiso   1.00
C118   C     0.84398   0.12806   0.45338   0.00000  Uiso   1.00
C119   C     0.82178   0.20811   0.45152   0.00000  Uiso   1.00
C120   C     0.82269   0.12806   0.04662   0.00000  Uiso   1.00
C121   C     0.84500   0.20776   0.09425   0.00000  Uiso   1.00
C122   C     0.84256   0.12697   0.40778   0.00000  Uiso   1.00
C123   C     0.82166   0.20776   0.40575   0.00000  Uiso   1.00
C124   C     0.91255   0.16668   0.24995   0.00000  Uiso   1.00
C125   C     0.82411   0.12697   0.09222   0.00000  Uiso   1.00
C126   C     0.83438   0.16709   0.11670   0.00000  Uiso   1.00
C127   C     0.83229   0.16709   0.38330   0.00000  Uiso   1.00
C128   C     0.83341   0.16838   0.02423   0.00000  Uiso   1.00
C129   C     0.83326   0.16838   0.47577   0.00000  Uiso   1.00
C130   C     0.95721   0.16671   0.24985   0.00000  Uiso   1.00
C131   C     0.70946   0.16671   0.25015   0.00000  Uiso   1.00
C132   C     0.83375   0.16672   0.16504   0.00000  Uiso   1.00
C133   C     0.83291   0.16672   0.33496   0.00000  Uiso   1.00
C134   C     0.80594   0.02459   0.22299   0.00000  Uiso   1.00
C135   C     0.86019   0.30860   0.27760   0.00000  Uiso   1.00
C136   C     0.86072   0.02459   0.27701   0.00000  Uiso   1.00
C137   C     0.80648   0.30860   0.22240   0.00000  Uiso   1.00
C138   C     0.68796   0.12463   0.25020   0.00000  Uiso   1.00
Cu139  Cu    0.83333   0.21355   0.25000   0.00000  Uiso   1.00
Cu140  Cu    0.83333   0.11978   0.25000   0.00000  Uiso   1.00
F141   F     0.85657   0.24696   0.11633   0.00000  Uiso   1.00
F142   F     0.85141   0.08640   0.38808   0.00000  Uiso   1.00
F143   F     0.81010   0.24696   0.38367   0.00000  Uiso   1.00
F144   F     0.81526   0.08640   0.11192   0.00000  Uiso   1.00
H145   H     0.85435   0.23937   0.03214   0.00000  Uiso   1.00
H146   H     0.85373   0.09707   0.47109   0.00000  Uiso   1.00
H147   H     0.81231   0.23937   0.46786   0.00000  Uiso   1.00
H148   H     0.81294   0.09707   0.02891   0.00000  Uiso   1.00
H149   H     0.70389   0.09167   0.25054   0.00000  Uiso   1.00
H150   H     0.96273   0.24176   0.24979   0.00000  Uiso   1.00
H151   H     0.96277   0.09167   0.24946   0.00000  Uiso   1.00
H152   H     0.70394   0.24176   0.25021   0.00000  Uiso   1.00
N153   N     0.83333   0.28402   0.25000   0.00000  Uiso   1.00
N154   N     0.83333   0.04931   0.25000   0.00000  Uiso   1.00
O155   O     0.77321   0.20625   0.25000   0.00000  Uiso   1.00
O156   O     0.89345   0.12709   0.25000   0.00000  Uiso   1.00
O157   O     0.89345   0.20625   0.25001   0.00000  Uiso   1.00
O158   O     0.77321   0.12709   0.25000   0.00000  Uiso   1.00
O159   O     0.83333   0.20626   0.18573   0.00000  Uiso   1.00
O160   O     0.83334   0.12707   0.31427   0.00000  Uiso   1.00
O161   O     0.83334   0.20626   0.31427   0.00000  Uiso   1.00
O162   O     0.83333   0.12707   0.18573   0.00000  Uiso   1.00
Br163  Br    0.09860   0.38897   0.18523   0.00000  Uiso   1.00
Br164  Br    0.23123   0.61030   0.31853   0.00000  Uiso   1.00
Br165  Br    0.23473   0.38897   0.31477   0.00000  Uiso   1.00
Br166  Br    0.10210   0.61030   0.18147   0.00000  Uiso   1.00
C167   C     0.08745   0.50001   0.25005   0.00000  Uiso   1.00
C168   C     0.31204   0.54215   0.24991   0.00000  Uiso   1.00
C169   C     0.31204   0.45796   0.24980   0.00000  Uiso   1.00
C170   C     0.02130   0.54215   0.25009   0.00000  Uiso   1.00
C171   C     0.17822   0.54145   0.04848   0.00000  Uiso   1.00
C172   C     0.17731   0.46140   0.45338   0.00000  Uiso   1.00
C173   C     0.15512   0.54145   0.45152   0.00000  Uiso   1.00
C174   C     0.15602   0.46140   0.04662   0.00000  Uiso   1.00
C175   C     0.17834   0.54110   0.09425   0.00000  Uiso   1.00
C176   C     0.17590   0.46030   0.40778   0.00000  Uiso   1.00
C177   C     0.15500   0.54110   0.40575   0.00000  Uiso   1.00
C178   C     0.24588   0.50001   0.24995   0.00000  Uiso   1.00
C179   C     0.15744   0.46030   0.09222   0.00000  Uiso   1.00
C180   C     0.16771   0.50043   0.11670   0.00000  Uiso   1.00
C181   C     0.16562   0.50043   0.38330   0.00000  Uiso   1.00
C182   C     0.16674   0.50171   0.02423   0.00000  Uiso   1.00
C183   C     0.16659   0.50171   0.47577   0.00000  Uiso   1.00
C184   C     0.29054   0.50004   0.24985   0.00000  Uiso   1.00
C185   C     0.04279   0.50004   0.25015   0.00000  Uiso   1.00
C186   C     0.16709   0.50005   0.16504   0.00000  Uiso   1.00
C187   C     0.16625   0.50005   0.33496   0.00000  Uiso   1.00
C188   C     0.13928   0.35792   0.22299   0.00000  Uiso   1.00
C189   C     0.19352   0.64193   0.27760   0.00000  Uiso   1.00
C190   C     0.19406   0.35792   0.27701   0.00000  Uiso   1.00
C191   C     0.13981   0.64193   0.22240   0.00000  Uiso   1.00
C192   C     0.02129   0.45796   0.25020   0.00000  Uiso   1.00
Cu193  Cu    0.16667   0.54689   0.25000   0.00000  Uiso   1.00
Cu194  Cu    0.16667   0.45311   0.25000   0.00000  Uiso   1.00
F195   F     0.18990   0.58029   0.11633   0.00000  Uiso   1.00
F196   F     0.18474   0.41973   0.38808   0.00000  Uiso   1.00
F197   F     0.14343   0.58029   0.38367   0.00000  Uiso   1.00
F198   F     0.14859   0.41973   0.11192   0.00000  Uiso   1.00
H199   H     0.18769   0.57271   0.03214   0.00000  Uiso   1.00
H200   H     0.18706   0.43040   0.47109   0.00000  Uiso   1.00
H201   H     0.14565   0.57271   0.46786   0.00000  Uiso   1.00
H202   H     0.14627   0.43040   0.02891   0.00000  Uiso   1.00
H203   H     0.03723   0.42501   0.25054   0.00000  Uiso   1.00
H204   H     0.29606   0.57510   0.24979   0.00000  Uiso   1.00
H205   H     0.29611   0.42501   0.24946   0.00000  Uiso   1.00
H206   H     0.03727   0.57510   0.25021   0.00000  Uiso   1.00
N207   N     0.16667   0.61736   0.25000   0.00000  Uiso   1.00
N208   N     0.16667   0.38264   0.25000   0.00000  Uiso   1.00
O209   O     0.10655   0.53958   0.25000   0.00000  Uiso   1.00
O210   O     0.22679   0.46042   0.25000   0.00000  Uiso   1.00
O211   O     0.22679   0.53958   0.25001   0.00000  Uiso   1.00
O212   O     0.10655   0.46042   0.25000   0.00000  Uiso   1.00
O213   O     0.16666   0.53959   0.18573   0.00000  Uiso   1.00
O214   O     0.16667   0.46041   0.31427   0.00000  Uiso   1.00
O215   O     0.16667   0.53959   0.31427   0.00000  Uiso   1.00
O216   O     0.16666   0.46041   0.18573   0.00000  Uiso   1.00
Br217  Br    0.43193   0.38897   0.18523   0.00000  Uiso   1.00
Br218  Br    0.56456   0.61030   0.31853   0.00000  Uiso   1.00
Br219  Br    0.56807   0.38897   0.31477   0.00000  Uiso   1.00
Br220  Br    0.43544   0.61030   0.18147   0.00000  Uiso   1.00
C221   C     0.42079   0.50001   0.25005   0.00000  Uiso   1.00
C222   C     0.64537   0.54215   0.24991   0.00000  Uiso   1.00
C223   C     0.64538   0.45796   0.24980   0.00000  Uiso   1.00
C224   C     0.35463   0.54215   0.25009   0.00000  Uiso   1.00
C225   C     0.51155   0.54145   0.04848   0.00000  Uiso   1.00
C226   C     0.51064   0.46140   0.45338   0.00000  Uiso   1.00
C227   C     0.48845   0.54145   0.45152   0.00000  Uiso   1.00
C228   C     0.48936   0.46140   0.04662   0.00000  Uiso   1.00
C229   C     0.51167   0.54110   0.09425   0.00000  Uiso   1.00
C230   C     0.50923   0.46030   0.40778   0.00000  Uiso   1.00
C231   C     0.48833   0.54110   0.40575   0.00000  Uiso   1.00
C232   C     0.57921   0.50001   0.24995   0.00000  Uiso   1.00
C233   C     0.49077   0.46030   0.09222   0.00000  Uiso   1.00
C234   C     0.50104   0.50043   0.11670   0.00000  Uiso   1.00
C235   C     0.49896   0.50043   0.38330   0.00000  Uiso   1.00
C236   C     0.50008   0.50171   0.02423   0.00000  Uiso   1.00
C237   C     0.49992   0.50171   0.47577   0.00000  Uiso   1.00
C238   C     0.62388   0.50004   0.24985   0.00000  Uiso   1.00
C239   C     0.37612   0.50004   0.25015   0.00000  Uiso   1.00
C240   C     0.50042   0.50005   0.16504   0.00000  Uiso   1.00
C241   C     0.49958   0.50005   0.33496   0.00000  Uiso   1.00
C242   C     0.47261   0.35792   0.22299   0.00000  Uiso   1.00
C243   C     0.52686   0.64193   0.27760   0.00000  Uiso   1.00
C244   C     0.52739   0.35792   0.27701   0.00000  Uiso   1.00
C245   C     0.47314   0.64193   0.22240   0.00000  Uiso   1.00
C246   C     0.35462   0.45796   0.25020   0.00000  Uiso   1.00
Cu247  Cu    0.50000   0.54689   0.25000   0.00000  Uiso   1.00
Cu248  Cu    0.50000   0.45311   0.25000   0.00000  Uiso   1.00
F249   F     0.52323   0.58029   0.11633   0.00000  Uiso   1.00
F250   F     0.51807   0.41973   0.38808   0.00000  Uiso   1.00
F251   F     0.47677   0.58029   0.38367   0.00000  Uiso   1.00
F252   F     0.48193   0.41973   0.11192   0.00000  Uiso   1.00
H253   H     0.52102   0.57271   0.03214   0.00000  Uiso   1.00
H254   H     0.52040   0.43040   0.47109   0.00000  Uiso   1.00
H255   H     0.47898   0.57271   0.46786   0.00000  Uiso   1.00
H256   H     0.47960   0.43040   0.02891   0.00000  Uiso   1.00
H257   H     0.37056   0.42501   0.25054   0.00000  Uiso   1.00
H258   H     0.62940   0.57510   0.24979   0.00000  Uiso   1.00
H259   H     0.62944   0.42501   0.24946   0.00000  Uiso   1.00
H260   H     0.37060   0.57510   0.25021   0.00000  Uiso   1.00
N261   N     0.50000   0.61736   0.25000   0.00000  Uiso   1.00
N262   N     0.50000   0.38264   0.25000   0.00000  Uiso   1.00
O263   O     0.43988   0.53958   0.25000   0.00000  Uiso   1.00
O264   O     0.56012   0.46042   0.25000   0.00000  Uiso   1.00
O265   O     0.56012   0.53958   0.25001   0.00000  Uiso   1.00
O266   O     0.43988   0.46042   0.25000   0.00000  Uiso   1.00
O267   O     0.50000   0.53959   0.18573   0.00000  Uiso   1.00
O268   O     0.50000   0.46041   0.31427   0.00000  Uiso   1.00
O269   O     0.50000   0.53959   0.31427   0.00000  Uiso   1.00
O270   O     0.50000   0.46041   0.18573   0.00000  Uiso   1.00
Br271  Br    0.76527   0.38897   0.18523   0.00000  Uiso   1.00
Br272  Br    0.89790   0.61030   0.31853   0.00000  Uiso   1.00
Br273  Br    0.90140   0.38897   0.31477   0.00000  Uiso   1.00
Br274  Br    0.76877   0.61030   0.18147   0.00000  Uiso   1.00
C275   C     0.75412   0.50001   0.25005   0.00000  Uiso   1.00
C276   C     0.97870   0.54215   0.24991   0.00000  Uiso   1.00
C277   C     0.97871   0.45796   0.24980   0.00000  Uiso   1.00
C278   C     0.68796   0.54215   0.25009   0.00000  Uiso   1.00
C279   C     0.84488   0.54145   0.04848   0.00000  Uiso   1.00
C280   C     0.84398   0.46140   0.45338   0.00000  Uiso   1.00
C281   C     0.82178   0.54145   0.45152   0.00000  Uiso   1.00
C282   C     0.82269   0.46140   0.04662   0.00000  Uiso   1.00
C283   C     0.84500   0.54110   0.09425   0.00000  Uiso   1.00
C284   C     0.84256   0.46030   0.40778   0.00000  Uiso   1.00
C285   C     0.82166   0.54110   0.40575   0.00000  Uiso   1.00
C286   C     0.91255   0.50001   0.24995   0.00000  Uiso   1.00
C287   C     0.82411   0.46030   0.09222   0.00000  Uiso   1.00
C288   C     0.83438   0.50043   0.11670   0.00000  Uiso   1.00
C289   C     0.83229   0.50043   0.38330   0.00000  Uiso   1.00
C290   C     0.83341   0.50171   0.02423   0.00000  Uiso   1.00
C291   C     0.83326   0.50171   0.47577   0.00000  Uiso   1.00
C292   C     0.95721   0.50004   0.24985   0.00000  Uiso   1.00
C293   C     0.70946   0.50004   0.25015   0.00000  Uiso   1.00
C294   C     0.83375   0.50005   0.16504   0.00000  Uiso   1.00
C295   C     0.83291   0.50005   0.33496   0.00000  Uiso   1.00
C296   C     0.80594   0.35792   0.22299   0.00000  Uiso   1.00
C297   C     0.86019   0.64193   0.27760   0.00000  Uiso   1.00
C298   C     0.86072   0.35792   0.27701   0.00000  Uiso   1.00
C299   C     0.80648   0.64193   0.22240   0.00000  Uiso   1.00
C300   C     0.68796   0.45796   0.25020   0.00000  Uiso   1.00
Cu301  Cu    0.83333   0.54689   0.25000   0.00000  Uiso   1.00
Cu302  Cu    0.83333   0.45311   0.25000   0.00000  Uiso   1.00
F303   F     0.85657   0.58029   0.11633   0.00000  Uiso   1.00
F304   F     0.85141   0.41973   0.38808   0.00000  Uiso   1.00
F305   F     0.81010   0.58029   0.38367   0.00000  Uiso   1.00
F306   F     0.81526   0.41973   0.11192   0.00000  Uiso   1.00
H307   H     0.85435   0.57271   0.03214   0.00000  Uiso   1.00
H308   H     0.85373   0.43040   0.47109   0.00000  Uiso   1.00
H309   H     0.81231   0.57271   0.46786   0.00000  Uiso   1.00
H310   H     0.81294   0.43040   0.02891   0.00000  Uiso   1.00
H311   H     0.70389   0.42501   0.25054   0.00000  Uiso   1.00
H312   H     0.96273   0.57510   0.24979   0.00000  Uiso   1.00
H313   H     0.96277   0.42501   0.24946   0.00000  Uiso   1.00
H314   H     0.70394   0.57510   0.25021   0.00000  Uiso   1.00
N315   N     0.83333   0.61736   0.25000   0.00000  Uiso   1.00
N316   N     0.83333   0.38264   0.25000   0.00000  Uiso   1.00
O317   O     0.77321   0.53958   0.25000   0.00000  Uiso   1.00
O318   O     0.89345   0.46042   0.25000   0.00000  Uiso   1.00
O319   O     0.89345   0.53958   0.25001   0.00000  Uiso   1.00
O320   O     0.77321   0.46042   0.25000   0.00000  Uiso   1.00
O321   O     0.83333   0.53959   0.18573   0.00000  Uiso   1.00
O322   O     0.83334   0.46041   0.31427   0.00000  Uiso   1.00
O323   O     0.83334   0.53959   0.31427   0.00000  Uiso   1.00
O324   O     0.83333   0.46041   0.18573   0.00000  Uiso   1.00
Br325  Br    0.09860   0.72231   0.18523   0.00000  Uiso   1.00
Br326  Br    0.23123   0.94364   0.31853   0.00000  Uiso   1.00
Br327  Br    0.23473   0.72231   0.31477   0.00000  Uiso   1.00
Br328  Br    0.10210   0.94364   0.18147   0.00000  Uiso   1.00
C329   C     0.08745   0.83334   0.25005   0.00000  Uiso   1.00
C330   C     0.31204   0.87548   0.24991   0.00000  Uiso   1.00
C331   C     0.31204   0.79129   0.24980   0.00000  Uiso   1.00
C332   C     0.02130   0.87548   0.25009   0.00000  Uiso   1.00
C333   C     0.17822   0.87478   0.04848   0.00000  Uiso   1.00
C334   C     0.17731   0.79473   0.45338   0.00000  Uiso   1.00
C335   C     0.15512   0.87478   0.45152   0.00000  Uiso   1.00
C336   C     0.15602   0.79473   0.04662   0.00000  Uiso   1.00
C337   C     0.17834   0.87443   0.09425   0.00000  Uiso   1.00
C338   C     0.17590   0.79364   0.40778   0.00000  Uiso   1.00
C339   C     0.15500   0.87443   0.40575   0.00000  Uiso   1.00
C340   C     0.24588   0.83334   0.24995   0.00000  Uiso   1.00
C341   C     0.15744   0.79364   0.09222   0.00000  Uiso   1.00
C342   C     0.16771   0.83376   0.11670   0.00000  Uiso   1.00
C343   C     0.16562   0.83376   0.38330   0.00000  Uiso   1.00
C344   C     0.16674   0.83505   0.02423   0.00000  Uiso   1.00
C345   C     0.16659   0.83505   0.47577   0.00000  Uiso   1.00
C346   C     0.29054   0.83338   0.24985   0.00000  Uiso   1.00
C347   C     0.04279   0.83338   0.25015   0.00000  Uiso   1.00
C348   C     0.16709   0.83339   0.16504   0.00000  Uiso   1.00
C349   C     0.16625   0.83339   0.33496   0.00000  Uiso   1.00
C350   C     0.13928   0.69126   0.22299   0.00000  Uiso   1.00
C351   C     0.19352   0.97526   0.27760   0.00000  Uiso   1.00
C352   C     0.19406   0.69126   0.27701   0.00000  Uiso   1.00
C353   C     0.13981   0.97526   0.22240   0.00000  Uiso   1.00
C354   C     0.02129   0.79129   0.25020   0.00000  Uiso   1.00
Cu355  Cu    0.16667   0.88022   0.25000   0.00000  Uiso   1.00
Cu356  Cu    0.16667   0.78645   0.25000   0.00000  Uiso   1.00
F357   F     0.18990   0.91363   0.11633   0.00000  Uiso   1.00
F358   F     0.18474   0.75306   0.38808   0.00000  Uiso   1.00
F359   F     0.14343   0.91363   0.38367   0.00000  Uiso   1.00
F360   F     0.14859   0.75306   0.11192   0.00000  Uiso   1.00
H361   H     0.18769   0.90604   0.03214   0.00000  Uiso   1.00
H362   H     0.18706   0.76374   0.47109   0.00000  Uiso   1.00
H363   H     0.14565   0.90604   0.46786   0.00000  Uiso   1.00
H364   H     0.14627   0.76374   0.02891   0.00000  Uiso   1.00
H365   H     0.03723   0.75834   0.25054   0.00000  Uiso   1.00
H366   H     0.29606   0.90843   0.24979   0.00000  Uiso   1.00
H367   H     0.29611   0.75834   0.24946   0.00000  Uiso   1.00
H368   H     0.03727   0.90843   0.25021   0.00000  Uiso   1.00
N369   N     0.16667   0.95069   0.25000   0.00000  Uiso   1.00
N370   N     0.16667   0.71598   0.25000   0.00000  Uiso   1.00
O371   O     0.10655   0.87291   0.25000   0.00000  Uiso   1.00
O372   O     0.22679   0.79375   0.25000   0.00000  Uiso   1.00
O373   O     0.22679   0.87291   0.25001   0.00000  Uiso   1.00
O374   O     0.10655   0.79375   0.25000   0.00000  Uiso   1.00
O375   O     0.16666   0.87293   0.18573   0.00000  Uiso   1.00
O376   O     0.16667   0.79374   0.31427   0.00000  Uiso   1.00
O377   O     0.16667   0.87293   0.31427   0.00000  Uiso   1.00
O378   O     0.16666   0.79374   0.18573   0.00000  Uiso   1.00
Br379  Br    0.43193   0.72231   0.18523   0.00000  Uiso   1.00
Br380  Br    0.56456   0.94364   0.31853   0.00000  Uiso   1.00
Br381  Br    0.56807   0.72231   0.31477   0.00000  Uiso   1.00
Br382  Br    0.43544   0.94364   0.18147   0.00000  Uiso   1.00
C383   C     0.42079   0.83334   0.25005   0.00000  Uiso   1.00
C384   C     0.64537   0.87548   0.24991   0.00000  Uiso   1.00
C385   C     0.64538   0.79129   0.24980   0.00000  Uiso   1.00
C386   C     0.35463   0.87548   0.25009   0.00000  Uiso   1.00
C387   C     0.51155   0.87478   0.04848   0.00000  Uiso   1.00
C388   C     0.51064   0.79473   0.45338   0.00000  Uiso   1.00
C389   C     0.48845   0.87478   0.45152   0.00000  Uiso   1.00
C390   C     0.48936   0.79473   0.04662   0.00000  Uiso   1.00
C391   C     0.51167   0.87443   0.09425   0.00000  Uiso   1.00
C392   C     0.50923   0.79364   0.40778   0.00000  Uiso   1.00
C393   C     0.48833   0.87443   0.40575   0.00000  Uiso   1.00
C394   C     0.57921   0.83334   0.24995   0.00000  Uiso   1.00
C395   C     0.49077   0.79364   0.09222   0.00000  Uiso   1.00
C396   C     0.50104   0.83376   0.11670   0.00000  Uiso   1.00
C397   C     0.49896   0.83376   0.38330   0.00000  Uiso   1.00
C398   C     0.50008   0.83505   0.02423   0.00000  Uiso   1.00
C399   C     0.49992   0.83505   0.47577   0.00000  Uiso   1.00
C400   C     0.62388   0.83338   0.24985   0.00000  Uiso   1.00
C401   C     0.37612   0.83338   0.25015   0.00000  Uiso   1.00
C402   C     0.50042   0.83339   0.16504   0.00000  Uiso   1.00
C403   C     0.49958   0.83339   0.33496   0.00000  Uiso   1.00
C404   C     0.47261   0.69126   0.22299   0.00000  Uiso   1.00
C405   C     0.52686   0.97526   0.27760   0.00000  Uiso   1.00
C406   C     0.52739   0.69126   0.27701   0.00000  Uiso   1.00
C407   C     0.47314   0.97526   0.22240   0.00000  Uiso   1.00
C408   C     0.35462   0.79129   0.25020   0.00000  Uiso   1.00
Cu409  Cu    0.50000   0.88022   0.25000   0.00000  Uiso   1.00
Cu410  Cu    0.50000   0.78645   0.25000   0.00000  Uiso   1.00
F411   F     0.52323   0.91363   0.11633   0.00000  Uiso   1.00
F412   F     0.51807   0.75306   0.38808   0.00000  Uiso   1.00
F413   F     0.47677   0.91363   0.38367   0.00000  Uiso   1.00
F414   F     0.48193   0.75306   0.11192   0.00000  Uiso   1.00
H415   H     0.52102   0.90604   0.03214   0.00000  Uiso   1.00
H416   H     0.52040   0.76374   0.47109   0.00000  Uiso   1.00
H417   H     0.47898   0.90604   0.46786   0.00000  Uiso   1.00
H418   H     0.47960   0.76374   0.02891   0.00000  Uiso   1.00
H419   H     0.37056   0.75834   0.25054   0.00000  Uiso   1.00
H420   H     0.62940   0.90843   0.24979   0.00000  Uiso   1.00
H421   H     0.62944   0.75834   0.24946   0.00000  Uiso   1.00
H422   H     0.37060   0.90843   0.25021   0.00000  Uiso   1.00
N423   N     0.50000   0.95069   0.25000   0.00000  Uiso   1.00
N424   N     0.50000   0.71598   0.25000   0.00000  Uiso   1.00
O425   O     0.43988   0.87291   0.25000   0.00000  Uiso   1.00
O426   O     0.56012   0.79375   0.25000   0.00000  Uiso   1.00
O427   O     0.56012   0.87291   0.25001   0.00000  Uiso   1.00
O428   O     0.43988   0.79375   0.25000   0.00000  Uiso   1.00
O429   O     0.50000   0.87293   0.18573   0.00000  Uiso   1.00
O430   O     0.50000   0.79374   0.31427   0.00000  Uiso   1.00
O431   O     0.50000   0.87293   0.31427   0.00000  Uiso   1.00
O432   O     0.50000   0.79374   0.18573   0.00000  Uiso   1.00
Br433  Br    0.76527   0.72231   0.18523   0.00000  Uiso   1.00
Br434  Br    0.89790   0.94364   0.31853   0.00000  Uiso   1.00
Br435  Br    0.90140   0.72231   0.31477   0.00000  Uiso   1.00
Br436  Br    0.76877   0.94364   0.18147   0.00000  Uiso   1.00
C437   C     0.75412   0.83334   0.25005   0.00000  Uiso   1.00
C438   C     0.97870   0.87548   0.24991   0.00000  Uiso   1.00
C439   C     0.97871   0.79129   0.24980   0.00000  Uiso   1.00
C440   C     0.68796   0.87548   0.25009   0.00000  Uiso   1.00
C441   C     0.84488   0.87478   0.04848   0.00000  Uiso   1.00
C442   C     0.84398   0.79473   0.45338   0.00000  Uiso   1.00
C443   C     0.82178   0.87478   0.45152   0.00000  Uiso   1.00
C444   C     0.82269   0.79473   0.04662   0.00000  Uiso   1.00
C445   C     0.84500   0.87443   0.09425   0.00000  Uiso   1.00
C446   C     0.84256   0.79364   0.40778   0.00000  Uiso   1.00
C447   C     0.82166   0.87443   0.40575   0.00000  Uiso   1.00
C448   C     0.91255   0.83334   0.24995   0.00000  Uiso   1.00
C449   C     0.82411   0.79364   0.09222   0.00000  Uiso   1.00
C450   C     0.83438   0.83376   0.11670   0.00000  Uiso   1.00
C451   C     0.83229   0.83376   0.38330   0.00000  Uiso   1.00
C452   C     0.83341   0.83505   0.02423   0.00000  Uiso   1.00
C453   C     0.83326   0.83505   0.47577   0.00000  Uiso   1.00
C454   C     0.95721   0.83338   0.24985   0.00000  Uiso   1.00
C455   C     0.70946   0.83338   0.25015   0.00000  Uiso   1.00
C456   C     0.83375   0.83339   0.16504   0.00000  Uiso   1.00
C457   C     0.83291   0.83339   0.33496   0.00000  Uiso   1.00
C458   C     0.80594   0.69126   0.22299   0.00000  Uiso   1.00
C459   C     0.86019   0.97526   0.27760   0.00000  Uiso   1.00
C460   C     0.86072   0.69126   0.27701   0.00000  Uiso   1.00
C461   C     0.80648   0.97526   0.22240   0.00000  Uiso   1.00
C462   C     0.68796   0.79129   0.25020   0.00000  Uiso   1.00
Cu463  Cu    0.83333   0.88022   0.25000   0.00000  Uiso   1.00
Cu464  Cu    0.83333   0.78645   0.25000   0.00000  Uiso   1.00
F465   F     0.85657   0.91363   0.11633   0.00000  Uiso   1.00
F466   F     0.85141   0.75306   0.38808   0.00000  Uiso   1.00
F467   F     0.81010   0.91363   0.38367   0.00000  Uiso   1.00
F468   F     0.81526   0.75306   0.11192   0.00000  Uiso   1.00
H469   H     0.85435   0.90604   0.03214   0.00000  Uiso   1.00
H470   H     0.85373   0.76374   0.47109   0.00000  Uiso   1.00
H471   H     0.81231   0.90604   0.46786   0.00000  Uiso   1.00
H472   H     0.81294   0.76374   0.02891   0.00000  Uiso   1.00
H473   H     0.70389   0.75834   0.25054   0.00000  Uiso   1.00
H474   H     0.96273   0.90843   0.24979   0.00000  Uiso   1.00
H475   H     0.96277   0.75834   0.24946   0.00000  Uiso   1.00
H476   H     0.70394   0.90843   0.25021   0.00000  Uiso   1.00
N477   N     0.83333   0.95069   0.25000   0.00000  Uiso   1.00
N478   N     0.83333   0.71598   0.25000   0.00000  Uiso   1.00
O479   O     0.77321   0.87291   0.25000   0.00000  Uiso   1.00
O480   O     0.89345   0.79375   0.25000   0.00000  Uiso   1.00
O481   O     0.89345   0.87291   0.25001   0.00000  Uiso   1.00
O482   O     0.77321   0.79375   0.25000   0.00000  Uiso   1.00
O483   O     0.83333   0.87293   0.18573   0.00000  Uiso   1.00
O484   O     0.83334   0.79374   0.31427   0.00000  Uiso   1.00
O485   O     0.83334   0.87293   0.31427   0.00000  Uiso   1.00
O486   O     0.83333   0.79374   0.18573   0.00000  Uiso   1.00
Br487  Br    0.09860   0.05564   0.68523   0.00000  Uiso   1.00
Br488  Br    0.23123   0.27697   0.81853   0.00000  Uiso   1.00
Br489  Br    0.23473   0.05564   0.81477   0.00000  Uiso   1.00
Br490  Br    0.10210   0.27697   0.68147   0.00000  Uiso   1.00
C491   C     0.08745   0.16668   0.75005   0.00000  Uiso   1.00
C492   C     0.31204   0.20882   0.74991   0.00000  Uiso   1.00
C493   C     0.31204   0.12463   0.74980   0.00000  Uiso   1.00
C494   C     0.02130   0.20882   0.75009   0.00000  Uiso   1.00
C495   C     0.17822   0.20811   0.54848   0.00000  Uiso   1.00
C496   C     0.17731   0.12806   0.95338   0.00000  Uiso   1.00
C497   C     0.15512   0.20811   0.95152   0.00000  Uiso   1.00
C498   C     0.15602   0.12806   0.54662   0.00000  Uiso   1.00
C499   C     0.17834   0.20776   0.59425   0.00000  Uiso   1.00
C500   C     0.17590   0.12697   0.90778   0.00000  Uiso   1.00
C501   C     0.15500   0.20776   0.90575   0.00000  Uiso   1.00
C502   C     0.24588   0.16668   0.74995   0.00000  Uiso   1.00
C503   C     0.15744   0.12697   0.59222   0.00000  Uiso   1.00
C504   C     0.16771   0.16709   0.61670   0.00000  Uiso   1.00
C505   C     0.16562   0.16709   0.88330   0.00000  Uiso   1.00
C506   C     0.16674   0.16838   0.52423   0.00000  Uiso   1.00
C507   C     0.16659   0.16838   0.97577   0.00000  Uiso   1.00
C508   C     0.29054   0.16671   0.74985   0.00000  Uiso   1.00
C509   C     0.04279   0.16671   0.75015   0.00000  Uiso   1.00
C510   C     0.16709   0.16672   0.66504   0.00000  Uiso   1.00
C511   C     0.16625   0.16672   0.83496   0.00000  Uiso   1.00
C512   C     0.13928   0.02459   0.72299   0.00000  Uiso   1.00
C513   C     0.19352   0.30860   0.77760   0.00000  Uiso   1.00
C514   C     0.19406   0.02459   0.77701   0.00000  Uiso   1.00
C515   C     0.13981   0.30860   0.72240   0.00000  Uiso   1.00
C516   C     0.02129   0.12463   0.75020   0.00000  Uiso   1.00
Cu517  Cu    0.16667   0.21355   0.75000   0.00000  Uiso   1.00
Cu518  Cu    0.16667   0.11978   0.75000   0.00000  Uiso   1.00
F519   F     0.18990   0.24696   0.61633   0.00000  Uiso   1.00
F520   F     0.18474   0.08640   0.88808   0.00000  Uiso   1.00
F521   F     0.14343   0.24696   0.88367   0.00000  Uiso   1.00
F522   F     0.14859   0.08640   0.61192   0.00000  Uiso   1.00
H523   H     0.18769   0.23937   0.53214   0.00000  Uiso   1.00
H524   H     0.18706   0.09707   0.97109   0.00000  Uiso   1.00
H525   H     0.14565   0.23937   0.96786   0.00000  Uiso   1.00
H526   H     0.14627   0.09707   0.52891   0.00000  Uiso   1.00
H527   H     0.03723   0.09167   0.75054   0.00000  Uiso   1.00
H528   H     0.29606   0.24176   0.74979   0.00000  Uiso   1.00
H529   H     0.29611   0.09167   0.74946   0.00000  Uiso   1.00
H530   H     0.03727   0.24176   0.75021   0.00000  Uiso   1.00
N531   N     0.16667   0.28402   0.75000   0.00000  Uiso   1.00
N532   N     0.16667   0.04931   0.75000   0.00000  Uiso   1.00
O533   O     0.10655   0.20625   0.75000   0.00000  Uiso   1.00
O534   O     0.22679   0.12709   0.75000   0.00000  Uiso   1.00
O535   O     0.22679   0.20625   0.75001   0.00000  Uiso   1.00
O536   O     0.10655   0.12709   0.75000   0.00000  Uiso   1.00
O537   O     0.16666   0.20626   0.68573   0.00000  Uiso   1.00
O538   O     0.16667   0.12707   0.81427   0.00000  Uiso   1.00
O539   O     0.16667   0.20626   0.81427   0.00000  Uiso   1.00
O540   O     0.16666   0.12707   0.68573   0.00000  Uiso   1.00
Br541  Br    0.43193   0.05564   0.68523   0.00000  Uiso   1.00
Br542  Br    0.56456   0.27697   0.81853   0.00000  Uiso   1.00
Br543  Br    0.56807   0.05564   0.81477   0.00000  Uiso   1.00
Br544  Br    0.43544   0.27697   0.68147   0.00000  Uiso   1.00
C545   C     0.42079   0.16668   0.75005   0.00000  Uiso   1.00
C546   C     0.64537   0.20882   0.74991   0.00000  Uiso   1.00
C547   C     0.64538   0.12463   0.74980   0.00000  Uiso   1.00
C548   C     0.35463   0.20882   0.75009   0.00000  Uiso   1.00
C549   C     0.51155   0.20811   0.54848   0.00000  Uiso   1.00
C550   C     0.51064   0.12806   0.95338   0.00000  Uiso   1.00
C551   C     0.48845   0.20811   0.95152   0.00000  Uiso   1.00
C552   C     0.48936   0.12806   0.54662   0.00000  Uiso   1.00
C553   C     0.51167   0.20776   0.59425   0.00000  Uiso   1.00
C554   C     0.50923   0.12697   0.90778   0.00000  Uiso   1.00
C555   C     0.48833   0.20776   0.90575   0.00000  Uiso   1.00
C556   C     0.57921   0.16668   0.74995   0.00000  Uiso   1.00
C557   C     0.49077   0.12697   0.59222   0.00000  Uiso   1.00
C558   C     0.50104   0.16709   0.61670   0.00000  Uiso   1.00
C559   C     0.49896   0.16709   0.88330   0.00000  Uiso   1.00
C560   C     0.50008   0.16838   0.52423   0.00000  Uiso   1.00
C561   C     0.49992   0.16838   0.97577   0.00000  Uiso   1.00
C562   C     0.62388   0.16671   0.74985   0.00000  Uiso   1.00
C563   C     0.37612   0.16671   0.75015   0.00000  Uiso   1.00
C564   C     0.50042   0.16672   0.66504   0.00000  Uiso   1.00
C565   C     0.49958   0.16672   0.83496   0.00000  Uiso   1.00
C566   C     0.47261   0.02459   0.72299   0.00000  Uiso   1.00
C567   C     0.52686   0.30860   0.77760   0.00000  Uiso   1.00
C568   C     0.52739   0.02459   0.77701   0.00000  Uiso   1.00
C569   C     0.47314   0.30860   0.72240   0.00000  Uiso   1.00
C570   C     0.35462   0.12463   0.75020   0.00000  Uiso   1.00
Cu571  Cu    0.50000   0.21355   0.75000   0.00000  Uiso   1.00
Cu572  Cu    0.50000   0.11978   0.75000   0.00000  Uiso   1.00
F573   F     0.52323   0.24696   0.61633   0.00000  Uiso   1.00
F574   F     0.51807   0.08640   0.88808   0.00000  Uiso   1.00
F575   F     0.47677   0.24696   0.88367   0.00000  Uiso   1.00
F576   F     0.48193   0.08640   0.61192   0.00000  Uiso   1.00
H577   H     0.52102   0.23937   0.53214   0.00000  Uiso   1.00
H578   H     0.52040   0.09707   0.97109   0.00000  Uiso   1.00
H579   H     0.47898   0.23937   0.96786   0.00000  Uiso   1.00
H580   H     0.47960   0.09707   0.52891   0.00000  Uiso   1.00
H581   H     0.37056   0.09167   0.75054   0.00000  Uiso   1.00
H582   H     0.62940   0.24176   0.74979   0.00000  Uiso   1.00
H583   H     0.62944   0.09167   0.74946   0.00000  Uiso   1.00
H584   H     0.37060   0.24176   0.75021   0.00000  Uiso   1.00
N585   N     0.50000   0.28402   0.75000   0.00000  Uiso   1.00
N586   N     0.50000   0.04931   0.75000   0.00000  Uiso   1.00
O587   O     0.43988   0.20625   0.75000   0.00000  Uiso   1.00
O588   O     0.56012   0.12709   0.75000   0.00000  Uiso   1.00
O589   O     0.56012   0.20625   0.75001   0.00000  Uiso   1.00
O590   O     0.43988   0.12709   0.75000   0.00000  Uiso   1.00
O591   O     0.50000   0.20626   0.68573   0.00000  Uiso   1.00
O592   O     0.50000   0.12707   0.81427   0.00000  Uiso   1.00
O593   O     0.50000   0.20626   0.81427   0.00000  Uiso   1.00
O594   O     0.50000   0.12707   0.68573   0.00000  Uiso   1.00
Br595  Br    0.76527   0.05564   0.68523   0.00000  Uiso   1.00
Br596  Br    0.89790   0.27697   0.81853   0.00000  Uiso   1.00
Br597  Br    0.90140   0.05564   0.81477   0.00000  Uiso   1.00
Br598  Br    0.76877   0.27697   0.68147   0.00000  Uiso   1.00
C599   C     0.75412   0.16668   0.75005   0.00000  Uiso   1.00
C600   C     0.97870   0.20882   0.74991   0.00000  Uiso   1.00
C601   C     0.97871   0.12463   0.74980   0.00000  Uiso   1.00
C602   C     0.68796   0.20882   0.75009   0.00000  Uiso   1.00
C603   C     0.84488   0.20811   0.54848   0.00000  Uiso   1.00
C604   C     0.84398   0.12806   0.95338   0.00000  Uiso   1.00
C605   C     0.82178   0.20811   0.95152   0.00000  Uiso   1.00
C606   C     0.82269   0.12806   0.54662   0.00000  Uiso   1.00
C607   C     0.84500   0.20776   0.59425   0.00000  Uiso   1.00
C608   C     0.84256   0.12697   0.90778   0.00000  Uiso   1.00
C609   C     0.82166   0.20776   0.90575   0.00000  Uiso   1.00
C610   C     0.91255   0.16668   0.74995   0.00000  Uiso   1.00
C611   C     0.82411   0.12697   0.59222   0.00000  Uiso   1.00
C612   C     0.83438   0.16709   0.61670   0.00000  Uiso   1.00
C613   C     0.83229   0.16709   0.88330   0.00000  Uiso   1.00
C614   C     0.83341   0.16838   0.52423   0.00000  Uiso   1.00
C615   C     0.83326   0.16838   0.97577   0.00000  Uiso   1.00
C616   C     0.95721   0.16671   0.74985   0.00000  Uiso   1.00
C617   C     0.70946   0.16671   0.75015   0.00000  Uiso   1.00
C618   C     0.83375   0.16672   0.66504   0.00000  Uiso   1.00
C619   C     0.83291   0.16672   0.83496   0.00000  Uiso   1.00
C620   C     0.80594   0.02459   0.72299   0.00000  Uiso   1.00
C621   C     0.86019   0.30860   0.77760   0.00000  Uiso   1.00
C622   C     0.86072   0.02459   0.77701   0.00000  Uiso   1.00
C623   C     0.80648   0.30860   0.72240   0.00000  Uiso   1.00
C624   C     0.68796   0.12463   0.75020   0.00000  Uiso   1.00
Cu625  Cu    0.83333   0.21355   0.75000   0.00000  Uiso   1.00
Cu626  Cu    0.83333   0.11978   0.75000   0.00000  Uiso   1.00
F627   F     0.85657   0.24696   0.61633   0.00000  Uiso   1.00
F628   F     0.85141   0.08640   0.88808   0.00000  Uiso   1.00
F629   F     0.81010   0.24696   0.88367   0.00000  Uiso   1.00
F630   F     0.81526   0.08640   0.61192   0.00000  Uiso   1.00
H631   H     0.85435   0.23937   0.53214   0.00000  Uiso   1.00
H632   H     0.85373   0.09707   0.97109   0.00000  Uiso   1.00
H633   H     0.81231   0.23937   0.96786   0.00000  Uiso   1.00
H634   H     0.81294   0.09707   0.52891   0.00000  Uiso   1.00
H635   H     0.70389   0.09167   0.75054   0.00000  Uiso   1.00
H636   H     0.96273   0.24176   0.74979   0.00000  Uiso   1.00
H637   H     0.96277   0.09167   0.74946   0.00000  Uiso   1.00
H638   H     0.70394   0.24176   0.75021   0.00000  Uiso   1.00
N639   N     0.83333   0.28402   0.75000   0.00000  Uiso   1.00
N640   N     0.83333   0.04931   0.75000   0.00000  Uiso   1.00
O641   O     0.77321   0.20625   0.75000   0.00000  Uiso   1.00
O642   O     0.89345   0.12709   0.75000   0.00000  Uiso   1.00
O643   O     0.89345   0.20625   0.75001   0.00000  Uiso   1.00
O644   O     0.77321   0.12709   0.75000   0.00000  Uiso   1.00
O645   O     0.83333   0.20626   0.68573   0.00000  Uiso   1.00
O646   O     0.83334   0.12707   0.81427   0.00000  Uiso   1.00
O647   O     0.83334   0.20626   0.81427   0.00000  Uiso   1.00
O648   O     0.83333   0.12707   0.68573   0.00000  Uiso   1.00
Br649  Br    0.09860   0.38897   0.68523   0.00000  Uiso   1.00
Br650  Br    0.23123   0.61030   0.81853   0.00000  Uiso   1.00
Br651  Br    0.23473   0.38897   0.81477   0.00000  Uiso   1.00
Br652  Br    0.10210   0.61030   0.68147   0.00000  Uiso   1.00
C653   C     0.08745   0.50001   0.75005   0.00000  Uiso   1.00
C654   C     0.31204   0.54215   0.74991   0.00000  Uiso   1.00
C655   C     0.31204   0.45796   0.74980   0.00000  Uiso   1.00
C656   C     0.02130   0.54215   0.75009   0.00000  Uiso   1.00
C657   C     0.17822   0.54145   0.54848   0.00000  Uiso   1.00
C658   C     0.17731   0.46140   0.95338   0.00000  Uiso   1.00
C659   C     0.15512   0.54145   0.95152   0.00000  Uiso   1.00
C660   C     0.15602   0.46140   0.54662   0.00000  Uiso   1.00
C661   C     0.17834   0.54110   0.59425   0.00000  Uiso   1.00
C662   C     0.17590   0.46030   0.90778   0.00000  Uiso   1.00
C663   C     0.15500   0.54110   0.90575   0.00000  Uiso   1.00
C664   C     0.24588   0.50001   0.74995   0.00000  Uiso   1.00
C665   C     0.15744   0.46030   0.59222   0.00000  Uiso   1.00
C666   C     0.16771   0.50043   0.61670   0.00000  Uiso   1.00
C667   C     0.16562   0.50043   0.88330   0.00000  Uiso   1.00
C668   C     0.16674   0.50171   0.52423   0.00000  Uiso   1.00
C669   C     0.16659   0.50171   0.97577   0.00000  Uiso   1.00
C670   C     0.29054   0.50004   0.74985   0.00000  Uiso   1.00
C671   C     0.04279   0.50004   0.75015   0.00000  Uiso   1.00
C672   C     0.16709   0.50005   0.66504   0.00000  Uiso   1.00
C673   C     0.16625   0.50005   0.83496   0.00000  Uiso   1.00
C674   C     0.13928   0.35792   0.72299   0.00000  Uiso   1.00
C675   C     0.19352   0.64193   0.77760   0.00000  Uiso   1.00
C676   C     0.19406   0.35792   0.77701   0.00000  Uiso   1.00
C677   C     0.13981   0.64193   0.72240   0.00000  Uiso   1.00
C678   C     0.02129   0.45796   0.75020   0.00000  Uiso   1.00
Cu679  Cu    0.16667   0.54689   0.75000   0.00000  Uiso   1.00
Cu680  Cu    0.16667   0.45311   0.75000   0.00000  Uiso   1.00
F681   F     0.18990   0.58029   0.61633   0.00000  Uiso   1.00
F682   F     0.18474   0.41973   0.88808   0.00000  Uiso   1.00
F683   F     0.14343   0.58029   0.88367   0.00000  Uiso   1.00
F684   F     0.14859   0.41973   0.61192   0.00000  Uiso   1.00
H685   H     0.18769   0.57271   0.53214   0.00000  Uiso   1.00
H686   H     0.18706   0.43040   0.97109   0.00000  Uiso   1.00
H687   H     0.14565   0.57271   0.96786   0.00000  Uiso   1.00
H688   H     0.14627   0.43040   0.52891   0.00000  Uiso   1.00
H689   H     0.03723   0.42501   0.75054   0.00000  Uiso   1.00
H690   H     0.29606   0.57510   0.74979   0.00000  Uiso   1.00
H691   H     0.29611   0.42501   0.74946   0.00000  Uiso   1.00
H692   H     0.03727   0.57510   0.75021   0.00000  Uiso   1.00
N693   N     0.16667   0.61736   0.75000   0.00000  Uiso   1.00
N694   N     0.16667   0.38264   0.75000   0.00000  Uiso   1.00
O695   O     0.10655   0.53958   0.75000   0.00000  Uiso   1.00
O696   O     0.22679   0.46042   0.75000   0.00000  Uiso   1.00
O697   O     0.22679   0.53958   0.75001   0.00000  Uiso   1.00
O698   O     0.10655   0.46042   0.75000   0.00000  Uiso   1.00
O699   O     0.16666   0.53959   0.68573   0.00000  Uiso   1.00
O700   O     0.16667   0.46041   0.81427   0.00000  Uiso   1.00
O701   O     0.16667   0.53959   0.81427   0.00000  Uiso   1.00
O702   O     0.16666   0.46041   0.68573   0.00000  Uiso   1.00
Br703  Br    0.43193   0.38897   0.68523   0.00000  Uiso   1.00
Br704  Br    0.56456   0.61030   0.81853   0.00000  Uiso   1.00
Br705  Br    0.56807   0.38897   0.81477   0.00000  Uiso   1.00
Br706  Br    0.43544   0.61030   0.68147   0.00000  Uiso   1.00
C707   C     0.42079   0.50001   0.75005   0.00000  Uiso   1.00
C708   C     0.64537   0.54215   0.74991   0.00000  Uiso   1.00
C709   C     0.64538   0.45796   0.74980   0.00000  Uiso   1.00
C710   C     0.35463   0.54215   0.75009   0.00000  Uiso   1.00
C711   C     0.51155   0.54145   0.54848   0.00000  Uiso   1.00
C712   C     0.51064   0.46140   0.95338   0.00000  Uiso   1.00
C713   C     0.48845   0.54145   0.95152   0.00000  Uiso   1.00
C714   C     0.48936   0.46140   0.54662   0.00000  Uiso   1.00
C715   C     0.51167   0.54110   0.59425   0.00000  Uiso   1.00
C716   C     0.50923   0.46030   0.90778   0.00000  Uiso   1.00
C717   C     0.48833   0.54110   0.90575   0.00000  Uiso   1.00
C718   C     0.57921   0.50001   0.74995   0.00000  Uiso   1.00
C719   C     0.49077   0.46030   0.59222   0.00000  Uiso   1.00
C720   C     0.50104   0.50043   0.61670   0.00000  Uiso   1.00
C721   C     0.49896   0.50043   0.88330   0.00000  Uiso   1.00
C722   C     0.50008   0.50171   0.52423   0.00000  Uiso   1.00
C723   C     0.49992   0.50171   0.97577   0.00000  Uiso   1.00
C724   C     0.62388   0.50004   0.74985   0.00000  Uiso   1.00
C725   C     0.37612   0.50004   0.75015   0.00000  Uiso   1.00
C726   C     0.50042   0.50005   0.66504   0.00000  Uiso   1.00
C727   C     0.49958   0.50005   0.83496   0.00000  Uiso   1.00
C728   C     0.47261   0.35792   0.72299   0.00000  Uiso   1.00
C729   C     0.52686   0.64193   0.77760   0.00000  Uiso   1.00
C730   C     0.52739   0.35792   0.77701   0.00000  Uiso   1.00
C731   C     0.47314   0.64193   0.72240   0.00000  Uiso   1.00
C732   C     0.35462   0.45796   0.75020   0.00000  Uiso   1.00
Cu733  Cu    0.50000   0.54689   0.75000   0.00000  Uiso   1.00
Cu734  Cu    0.50000   0.45311   0.75000   0.00000  Uiso   1.00
F735   F     0.52323   0.58029   0.61633   0.00000  Uiso   1.00
F736   F     0.51807   0.41973   0.88808   0.00000  Uiso   1.00
F737   F     0.47677   0.58029   0.88367   0.00000  Uiso   1.00
F738   F     0.48193   0.41973   0.61192   0.00000  Uiso   1.00
H739   H     0.52102   0.57271   0.53214   0.00000  Uiso   1.00
H740   H     0.52040   0.43040   0.97109   0.00000  Uiso   1.00
H741   H     0.47898   0.57271   0.96786   0.00000  Uiso   1.00
H742   H     0.47960   0.43040   0.52891   0.00000  Uiso   1.00
H743   H     0.37056   0.42501   0.75054   0.00000  Uiso   1.00
H744   H     0.62940   0.57510   0.74979   0.00000  Uiso   1.00
H745   H     0.62944   0.42501   0.74946   0.00000  Uiso   1.00
H746   H     0.37060   0.57510   0.75021   0.00000  Uiso   1.00
N747   N     0.50000   0.61736   0.75000   0.00000  Uiso   1.00
N748   N     0.50000   0.38264   0.75000   0.00000  Uiso   1.00
O749   O     0.43988   0.53958   0.75000   0.00000  Uiso   1.00
O750   O     0.56012   0.46042   0.75000   0.00000  Uiso   1.00
O751   O     0.56012   0.53958   0.75001   0.00000  Uiso   1.00
O752   O     0.43988   0.46042   0.75000   0.00000  Uiso   1.00
O753   O     0.50000   0.53959   0.68573   0.00000  Uiso   1.00
O754   O     0.50000   0.46041   0.81427   0.00000  Uiso   1.00
O755   O     0.50000   0.53959   0.81427   0.00000  Uiso   1.00
O756   O     0.50000   0.46041   0.68573   0.00000  Uiso   1.00
Br757  Br    0.76527   0.38897   0.68523   0.00000  Uiso   1.00
Br758  Br    0.89790   0.61030   0.81853   0.00000  Uiso   1.00
Br759  Br    0.90140   0.38897   0.81477   0.00000  Uiso   1.00
Br760  Br    0.76877   0.61030   0.68147   0.00000  Uiso   1.00
C761   C     0.75412   0.50001   0.75005   0.00000  Uiso   1.00
C762   C     0.97870   0.54215   0.74991   0.00000  Uiso   1.00
C763   C     0.97871   0.45796   0.74980   0.00000  Uiso   1.00
C764   C     0.68796   0.54215   0.75009   0.00000  Uiso   1.00
C765   C     0.84488   0.54145   0.54848   0.00000  Uiso   1.00
C766   C     0.84398   0.46140   0.95338   0.00000  Uiso   1.00
C767   C     0.82178   0.54145   0.95152   0.00000  Uiso   1.00
C768   C     0.82269   0.46140   0.54662   0.00000  Uiso   1.00
C769   C     0.84500   0.54110   0.59425   0.00000  Uiso   1.00
C770   C     0.84256   0.46030   0.90778   0.00000  Uiso   1.00
C771   C     0.82166   0.54110   0.90575   0.00000  Uiso   1.00
C772   C     0.91255   0.50001   0.74995   0.00000  Uiso   1.00
C773   C     0.82411   0.46030   0.59222   0.00000  Uiso   1.00
C774   C     0.83438   0.50043   0.61670   0.00000  Uiso   1.00
C775   C     0.83229   0.50043   0.88330   0.00000  Uiso   1.00
C776   C     0.83341   0.50171   0.52423   0.00000  Uiso   1.00
C777   C     0.83326   0.50171   0.97577   0.00000  Uiso   1.00
C778   C     0.95721   0.50004   0.74985   0.00000  Uiso   1.00
C779   C     0.70946   0.50004   0.75015   0.00000  Uiso   1.00
C780   C     0.83375   0.50005   0.66504   0.00000  Uiso   1.00
C781   C     0.83291   0.50005   0.83496   0.00000  Uiso   1.00
C782   C     0.80594   0.35792   0.72299   0.00000  Uiso   1.00
C783   C     0.86019   0.64193   0.77760   0.00000  Uiso   1.00
C784   C     0.86072   0.35792   0.77701   0.00000  Uiso   1.00
C785   C     0.80648   0.64193   0.72240   0.00000  Uiso   1.00
C786   C     0.68796   0.45796   0.75020   0.00000  Uiso   1.00
Cu787  Cu    0.83333   0.54689   0.75000   0.00000  Uiso   1.00
Cu788  Cu    0.83333   0.45311   0.75000   0.00000  Uiso   1.00
F789   F     0.85657   0.58029   0.61633   0.00000  Uiso   1.00
F790   F     0.85141   0.41973   0.88808   0.00000  Uiso   1.00
F791   F     0.81010   0.58029   0.88367   0.00000  Uiso   1.00
F792   F     0.81526   0.41973   0.61192   0.00000  Uiso   1.00
H793   H     0.85435   0.57271   0.53214   0.00000  Uiso   1.00
H794   H     0.85373   0.43040   0.97109   0.00000  Uiso   1.00
H795   H     0.81231   0.57271   0.96786   0.00000  Uiso   1.00
H796   H     0.81294   0.43040   0.52891   0.00000  Uiso   1.00
H797   H     0.70389   0.42501   0.75054   0.00000  Uiso   1.00
H798   H     0.96273   0.57510   0.74979   0.00000  Uiso   1.00
H799   H     0.96277   0.42501   0.74946   0.00000  Uiso   1.00
H800   H     0.70394   0.57510   0.75021   0.00000  Uiso   1.00
N801   N     0.83333   0.61736   0.75000   0.00000  Uiso   1.00
N802   N     0.83333   0.38264   0.75000   0.00000  Uiso   1.00
O803   O     0.77321   0.53958   0.75000   0.00000  Uiso   1.00
O804   O     0.89345   0.46042   0.75000   0.00000  Uiso   1.00
O805   O     0.89345   0.53958   0.75001   0.00000  Uiso   1.00
O806   O     0.77321   0.46042   0.75000   0.00000  Uiso   1.00
O807   O     0.83333   0.53959   0.68573   0.00000  Uiso   1.00
O808   O     0.83334   0.46041   0.81427   0.00000  Uiso   1.00
O809   O     0.83334   0.53959   0.81427   0.00000  Uiso   1.00
O810   O     0.83333   0.46041   0.68573   0.00000  Uiso   1.00
Br811  Br    0.09860   0.72231   0.68523   0.00000  Uiso   1.00
Br812  Br    0.23123   0.94364   0.81853   0.00000  Uiso   1.00
Br813  Br    0.23473   0.72231   0.81477   0.00000  Uiso   1.00
Br814  Br    0.10210   0.94364   0.68147   0.00000  Uiso   1.00
C815   C     0.08745   0.83334   0.75005   0.00000  Uiso   1.00
C816   C     0.31204   0.87548   0.74991   0.00000  Uiso   1.00
C817   C     0.31204   0.79129   0.74980   0.00000  Uiso   1.00
C818   C     0.02130   0.87548   0.75009   0.00000  Uiso   1.00
C819   C     0.17822   0.87478   0.54848   0.00000  Uiso   1.00
C820   C     0.17731   0.79473   0.95338   0.00000  Uiso   1.00
C821   C     0.15512   0.87478   0.95152   0.00000  Uiso   1.00
C822   C     0.15602   0.79473   0.54662   0.00000  Uiso   1.00
C823   C     0.17834   0.87443   0.59425   0.00000  Uiso   1.00
C824   C     0.17590   0.79364   0.90778   0.00000  Uiso   1.00
C825   C     0.15500   0.87443   0.90575   0.00000  Uiso   1.00
C826   C     0.24588   0.83334   0.74995   0.00000  Uiso   1.00
C827   C     0.15744   0.79364   0.59222   0.00000  Uiso   1.00
C828   C     0.16771   0.83376   0.61670   0.00000  Uiso   1.00
C829   C     0.16562   0.83376   0.88330   0.00000  Uiso   1.00
C830   C     0.16674   0.83505   0.52423   0.00000  Uiso   1.00
C831   C     0.16659   0.83505   0.97577   0.00000  Uiso   1.00
C832   C     0.29054   0.83338   0.74985   0.00000  Uiso   1.00
C833   C     0.04279   0.83338   0.75015   0.00000  Uiso   1.00
C834   C     0.16709   0.83339   0.66504   0.00000  Uiso   1.00
C835   C     0.16625   0.83339   0.83496   0.00000  Uiso   1.00
C836   C     0.13928   0.69126   0.72299   0.00000  Uiso   1.00
C837   C     0.19352   0.97526   0.77760   0.00000  Uiso   1.00
C838   C     0.19406   0.69126   0.77701   0.00000  Uiso   1.00
C839   C     0.13981   0.97526   0.72240   0.00000  Uiso   1.00
C840   C     0.02129   0.79129   0.75020   0.00000  Uiso   1.00
Cu841  Cu    0.16667   0.88022   0.75000   0.00000  Uiso   1.00
Cu842  Cu    0.16667   0.78645   0.75000   0.00000  Uiso   1.00
F843   F     0.18990   0.91363   0.61633   0.00000  Uiso   1.00
F844   F     0.18474   0.75306   0.88808   0.00000  Uiso   1.00
F845   F     0.14343   0.91363   0.88367   0.00000  Uiso   1.00
F846   F     0.14859   0.75306   0.61192   0.00000  Uiso   1.00
H847   H     0.18769   0.90604   0.53214   0.00000  Uiso   1.00
H848   H     0.18706   0.76374   0.97109   0.00000  Uiso   1.00
H849   H     0.14565   0.90604   0.96786   0.00000  Uiso   1.00
H850   H     0.14627   0.76374   0.52891   0.00000  Uiso   1.00
H851   H     0.03723   0.75834   0.75054   0.00000  Uiso   1.00
H852   H     0.29606   0.90843   0.74979   0.00000  Uiso   1.00
H853   H     0.29611   0.75834   0.74946   0.00000  Uiso   1.00
H854   H     0.03727   0.90843   0.75021   0.00000  Uiso   1.00
N855   N     0.16667   0.95069   0.75000   0.00000  Uiso   1.00
N856   N     0.16667   0.71598   0.75000   0.00000  Uiso   1.00
O857   O     0.10655   0.87291   0.75000   0.00000  Uiso   1.00
O858   O     0.22679   0.79375   0.75000   0.00000  Uiso   1.00
O859   O     0.22679   0.87291   0.75001   0.00000  Uiso   1.00
O860   O     0.10655   0.79375   0.75000   0.00000  Uiso   1.00
O861   O     0.16666   0.87293   0.68573   0.00000  Uiso   1.00
O862   O     0.16667   0.79374   0.81427   0.00000  Uiso   1.00
O863   O     0.16667   0.87293   0.81427   0.00000  Uiso   1.00
O864   O     0.16666   0.79374   0.68573   0.00000  Uiso   1.00
Br865  Br    0.43193   0.72231   0.68523   0.00000  Uiso   1.00
Br866  Br    0.56456   0.94364   0.81853   0.00000  Uiso   1.00
Br867  Br    0.56807   0.72231   0.81477   0.00000  Uiso   1.00
Br868  Br    0.43544   0.94364   0.68147   0.00000  Uiso   1.00
C869   C     0.42079   0.83334   0.75005   0.00000  Uiso   1.00
C870   C     0.64537   0.87548   0.74991   0.00000  Uiso   1.00
C871   C     0.64538   0.79129   0.74980   0.00000  Uiso   1.00
C872   C     0.35463   0.87548   0.75009   0.00000  Uiso   1.00
C873   C     0.51155   0.87478   0.54848   0.00000  Uiso   1.00
C874   C     0.51064   0.79473   0.95338   0.00000  Uiso   1.00
C875   C     0.48845   0.87478   0.95152   0.00000  Uiso   1.00
C876   C     0.48936   0.79473   0.54662   0.00000  Uiso   1.00
C877   C     0.51167   0.87443   0.59425   0.00000  Uiso   1.00
C878   C     0.50923   0.79364   0.90778   0.00000  Uiso   1.00
C879   C     0.48833   0.87443   0.90575   0.00000  Uiso   1.00
C880   C     0.57921   0.83334   0.74995   0.00000  Uiso   1.00
C881   C     0.49077   0.79364   0.59222   0.00000  Uiso   1.00
C882   C     0.50104   0.83376   0.61670   0.00000  Uiso   1.00
C883   C     0.49896   0.83376   0.88330   0.00000  Uiso   1.00
C884   C     0.50008   0.83505   0.52423   0.00000  Uiso   1.00
C885   C     0.49992   0.83505   0.97577   0.00000  Uiso   1.00
C886   C     0.62388   0.83338   0.74985   0.00000  Uiso   1.00
C887   C     0.37612   0.83338   0.75015   0.00000  Uiso   1.00
C888   C     0.50042   0.83339   0.66504   0.00000  Uiso   1.00
C889   C     0.49958   0.83339   0.83496   0.00000  Uiso   1.00
C890   C     0.47261   0.69126   0.72299   0.00000  Uiso   1.00
C891   C     0.52686   0.97526   0.77760   0.00000  Uiso   1.00
C892   C     0.52739   0.69126   0.77701   0.00000  Uiso   1.00
C893   C     0.47314   0.97526   0.72240   0.00000  Uiso   1.00
C894   C     0.35462   0.79129   0.75020   0.00000  Uiso   1.00
Cu895  Cu    0.50000   0.88022   0.75000   0.00000  Uiso   1.00
Cu896  Cu    0.50000   0.78645   0.75000   0.00000  Uiso   1.00
F897   F     0.52323   0.91363   0.61633   0.00000  Uiso   1.00
F898   F     0.51807   0.75306   0.88808   0.00000  Uiso   1.00
F899   F     0.47677   0.91363   0.88367   0.00000  Uiso   1.00
F900   F     0.48193   0.75306   0.61192   0.00000  Uiso   1.00
H901   H     0.52102   0.90604   0.53214   0.00000  Uiso   1.00
H902   H     0.52040   0.76374   0.97109   0.00000  Uiso   1.00
H903   H     0.47898   0.90604   0.96786   0.00000  Uiso   1.00
H904   H     0.47960   0.76374   0.52891   0.00000  Uiso   1.00
H905   H     0.37056   0.75834   0.75054   0.00000  Uiso   1.00
H906   H     0.62940   0.90843   0.74979   0.00000  Uiso   1.00
H907   H     0.62944   0.75834   0.74946   0.00000  Uiso   1.00
H908   H     0.37060   0.90843   0.75021   0.00000  Uiso   1.00
N909   N     0.50000   0.95069   0.75000   0.00000  Uiso   1.00
N910   N     0.50000   0.71598   0.75000   0.00000  Uiso   1.00
O911   O     0.43988   0.87291   0.75000   0.00000  Uiso   1.00
O912   O     0.56012   0.79375   0.75000   0.00000  Uiso   1.00
O913   O     0.56012   0.87291   0.75001   0.00000  Uiso   1.00
O914   O     0.43988   0.79375   0.75000   0.00000  Uiso   1.00
O915   O     0.50000   0.87293   0.68573   0.00000  Uiso   1.00
O916   O     0.50000   0.79374   0.81427   0.00000  Uiso   1.00
O917   O     0.50000   0.87293   0.81427   0.00000  Uiso   1.00
O918   O     0.50000   0.79374   0.68573   0.00000  Uiso   1.00
Br919  Br    0.76527   0.72231   0.68523   0.00000  Uiso   1.00
Br920  Br    0.89790   0.94364   0.81853   0.00000  Uiso   1.00
Br921  Br    0.90140   0.72231   0.81477   0.00000  Uiso   1.00
Br922  Br    0.76877   0.94364   0.68147   0.00000  Uiso   1.00
C923   C     0.75412   0.83334   0.75005   0.00000  Uiso   1.00
C924   C     0.97870   0.87548   0.74991   0.00000  Uiso   1.00
C925   C     0.97871   0.79129   0.74980   0.00000  Uiso   1.00
C926   C     0.68796   0.87548   0.75009   0.00000  Uiso   1.00
C927   C     0.84488   0.87478   0.54848   0.00000  Uiso   1.00
C928   C     0.84398   0.79473   0.95338   0.00000  Uiso   1.00
C929   C     0.82178   0.87478   0.95152   0.00000  Uiso   1.00
C930   C     0.82269   0.79473   0.54662   0.00000  Uiso   1.00
C931   C     0.84500   0.87443   0.59425   0.00000  Uiso   1.00
C932   C     0.84256   0.79364   0.90778   0.00000  Uiso   1.00
C933   C     0.82166   0.87443   0.90575   0.00000  Uiso   1.00
C934   C     0.91255   0.83334   0.74995   0.00000  Uiso   1.00
C935   C     0.82411   0.79364   0.59222   0.00000  Uiso   1.00
C936   C     0.83438   0.83376   0.61670   0.00000  Uiso   1.00
C937   C     0.83229   0.83376   0.88330   0.00000  Uiso   1.00
C938   C     0.83341   0.83505   0.52423   0.00000  Uiso   1.00
C939   C     0.83326   0.83505   0.97577   0.00000  Uiso   1.00
C940   C     0.95721   0.83338   0.74985   0.00000  Uiso   1.00
C941   C     0.70946   0.83338   0.75015   0.00000  Uiso   1.00
C942   C     0.83375   0.83339   0.66504   0.00000  Uiso   1.00
C943   C     0.83291   0.83339   0.83496   0.00000  Uiso   1.00
C944   C     0.80594   0.69126   0.72299   0.00000  Uiso   1.00
C945   C     0.86019   0.97526   0.77760   0.00000  Uiso   1.00
C946   C     0.86072   0.69126   0.77701   0.00000  Uiso   1.00
C947   C     0.80648   0.97526   0.72240   0.00000  Uiso   1.00
C948   C     0.68796   0.79129   0.75020   0.00000  Uiso   1.00
Cu949  Cu    0.83333   0.88022   0.75000   0.00000  Uiso   1.00
Cu950  Cu    0.83333   0.78645   0.75000   0.00000  Uiso   1.00
F951   F     0.85657   0.91363   0.61633   0.00000  Uiso   1.00
F952   F     0.85141   0.75306   0.88808   0.00000  Uiso   1.00
F953   F     0.81010   0.91363   0.88367   0.00000  Uiso   1.00
F954   F     0.81526   0.75306   0.61192   0.00000  Uiso   1.00
H955   H     0.85435   0.90604   0.53214   0.00000  Uiso   1.00
H956   H     0.85373   0.76374   0.97109   0.00000  Uiso   1.00
H957   H     0.81231   0.90604   0.96786   0.00000  Uiso   1.00
H958   H     0.81294   0.76374   0.52891   0.00000  Uiso   1.00
H959   H     0.70389   0.75834   0.75054   0.00000  Uiso   1.00
H960   H     0.96273   0.90843   0.74979   0.00000  Uiso   1.00
H961   H     0.96277   0.75834   0.74946   0.00000  Uiso   1.00
H962   H     0.70394   0.90843   0.75021   0.00000  Uiso   1.00
N963   N     0.83333   0.95069   0.75000   0.00000  Uiso   1.00
N964   N     0.83333   0.71598   0.75000   0.00000  Uiso   1.00
O965   O     0.77321   0.87291   0.75000   0.00000  Uiso   1.00
O966   O     0.89345   0.79375   0.75000   0.00000  Uiso   1.00
O967   O     0.89345   0.87291   0.75001   0.00000  Uiso   1.00
O968   O     0.77321   0.79375   0.75000   0.00000  Uiso   1.00
O969   O     0.83333   0.87293   0.68573   0.00000  Uiso   1.00
O970   O     0.83334   0.79374   0.81427   0.00000  Uiso   1.00
O971   O     0.83334   0.87293   0.81427   0.00000  Uiso   1.00
O972   O     0.83333   0.79374   0.68573   0.00000  Uiso   1.00
loop_
_geom_bond_atom_site_label_1
_geom_bond_atom_site_label_2
_geom_bond_distance
_geom_bond_site_symmetry_2
_ccdc_geom_bond_type
Br1    C26     1.924   .     S
Br2    C27     1.928   .     S
Br3    C28     1.924   .     S
Br4    C29     1.928   .     S
C5     O47     1.299   .     A
C5     C23     1.451   .     S
C5     O50     1.300   .     A
C6     H42     1.083   .     S
C6     C22     1.401   .     A
C6     C62     1.384   .     S
C7     H43     1.082   .     S
C7     C22     1.401   .     A
C7     C84     1.383   .     S
C8     H44     1.083   .     S
C8     C23     1.401   .     A
C8     C114    1.384   1_455 S
C9     C20     1.403   .     A
C9     H37     1.083   .     S
C9     C13     1.392   .     A
C10    H38     1.082   .     S
C10    C21     1.402   .     A
C10    C14     1.386   .     A
C11    H39     1.083   .     S
C11    C15     1.392   .     A
C11    C21     1.403   .     A
C12    C17     1.386   .     A
C12    H40     1.082   .     S
C12    C20     1.402   .     A
C13    F33     1.358   .     S
C13    C18     1.410   .     A
C14    F34     1.353   .     S
C14    C19     1.407   .     A
C15    F35     1.358   .     S
C15    C19     1.410   .     A
C16    O49     1.299   .     A
C16    C22     1.451   .     S
C16    O48     1.300   .     A
C17    F36     1.353   .     S
C17    C18     1.407   .     A
C18    C24     1.472   .     S
C19    C25     1.472   .     S
C20    C507    1.474   1_554 S
C21    C506    1.474   .     S
C23    C30     1.401   .     A
C24    O51     1.303   .     A
C24    O54     1.306   .     A
C25    O52     1.306   .     A
C25    O53     1.303   .     A
C26    N46     1.377   .     A
C26    C353    1.423   1_545 S
C27    N45     1.374   .     A
C27    C190    1.423   .     S
C28    N46     1.377   .     A
C28    C351    1.423   1_545 S
C29    N45     1.374   .     A
C29    C188    1.423   .     S
C30    H41     1.082   .     S
C30    C115    1.383   1_455 S
Cu31   O47     1.965   .     S
Cu31   O53     1.967   .     S
Cu31   O49     1.965   .     S
Cu31   N45     2.033   .     S
Cu31   O51     1.967   .     S
Cu31   Cu32    2.706   .     S
Cu32   O48     1.965   .     S
Cu32   O50     1.965   .     S
Cu32   O54     1.967   .     S
Cu32   O52     1.967   .     S
Cu32   N46     2.033   .     S
Br55   C80     1.924   .     S
Br56   C81     1.928   .     S
Br57   C82     1.924   .     S
Br58   C83     1.928   .     S
C59    O101    1.299   .     A
C59    C77     1.451   .     S
C59    O104    1.300   .     A
C60    H96     1.083   .     S
C60    C76     1.401   .     A
C60    C116    1.384   .     S
C61    H97     1.082   .     S
C61    C76     1.401   .     A
C61    C138    1.383   .     S
C62    H98     1.083   .     S
C62    C77     1.401   .     A
C63    C74     1.403   .     A
C63    H91     1.083   .     S
C63    C67     1.392   .     A
C64    H92     1.082   .     S
C64    C75     1.402   .     A
C64    C68     1.386   .     A
C65    H93     1.083   .     S
C65    C69     1.392   .     A
C65    C75     1.403   .     A
C66    C71     1.386   .     A
C66    H94     1.082   .     S
C66    C74     1.402   .     A
C67    F87     1.358   .     S
C67    C72     1.410   .     A
C68    F88     1.353   .     S
C68    C73     1.407   .     A
C69    F89     1.358   .     S
C69    C73     1.410   .     A
C70    O103    1.299   .     A
C70    C76     1.451   .     S
C70    O102    1.300   .     A
C71    F90     1.353   .     S
C71    C72     1.407   .     A
C72    C78     1.472   .     S
C73    C79     1.472   .     S
C74    C561    1.474   1_554 S
C75    C560    1.474   .     S
C77    C84     1.401   .     A
C78    O105    1.303   .     A
C78    O108    1.306   .     A
C79    O106    1.306   .     A
C79    O107    1.303   .     A
C80    N100    1.377   .     A
C80    C407    1.423   1_545 S
C81    N99     1.374   .     A
C81    C244    1.423   .     S
C82    N100    1.377   .     A
C82    C405    1.423   1_545 S
C83    N99     1.374   .     A
C83    C242    1.423   .     S
C84    H95     1.082   .     S
Cu85   O101    1.965   .     S
Cu85   O107    1.967   .     S
Cu85   O103    1.965   .     S
Cu85   N99     2.033   .     S
Cu85   O105    1.967   .     S
Cu85   Cu86    2.706   .     S
Cu86   O102    1.965   .     S
Cu86   O104    1.965   .     S
Cu86   O108    1.967   .     S
Cu86   O106    1.967   .     S
Cu86   N100    2.033   .     S
Br109  C134    1.924   .     S
Br110  C135    1.928   .     S
Br111  C136    1.924   .     S
Br112  C137    1.928   .     S
C113   O155    1.299   .     A
C113   C131    1.451   .     S
C113   O158    1.300   .     A
C114   H150    1.083   .     S
C114   C130    1.401   .     A
C114   C8      1.384   1_655 S
C115   H151    1.082   .     S
C115   C130    1.401   .     A
C115   C30     1.383   1_655 S
C116   H152    1.083   .     S
C116   C131    1.401   .     A
C117   C128    1.403   .     A
C117   H145    1.083   .     S
C117   C121    1.392   .     A
C118   H146    1.082   .     S
C118   C129    1.402   .     A
C118   C122    1.386   .     A
C119   H147    1.083   .     S
C119   C123    1.392   .     A
C119   C129    1.403   .     A
C120   C125    1.386   .     A
C120   H148    1.082   .     S
C120   C128    1.402   .     A
C121   F141    1.358   .     S
C121   C126    1.410   .     A
C122   F142    1.353   .     S
C122   C127    1.407   .     A
C123   F143    1.358   .     S
C123   C127    1.410   .     A
C124   O157    1.299   .     A
C124   C130    1.451   .     S
C124   O156    1.300   .     A
C125   F144    1.353   .     S
C125   C126    1.407   .     A
C126   C132    1.472   .     S
C127   C133    1.472   .     S
C128   C615    1.474   1_554 S
C129   C614    1.474   .     S
C131   C138    1.401   .     A
C132   O159    1.303   .     A
C132   O162    1.306   .     A
C133   O160    1.306   .     A
C133   O161    1.303   .     A
C134   N154    1.377   .     A
C134   C461    1.423   1_545 S
C135   N153    1.374   .     A
C135   C298    1.423   .     S
C136   N154    1.377   .     A
C136   C459    1.423   1_545 S
C137   N153    1.374   .     A
C137   C296    1.423   .     S
C138   H149    1.082   .     S
Cu139  O155    1.965   .     S
Cu139  O161    1.967   .     S
Cu139  O157    1.965   .     S
Cu139  N153    2.033   .     S
Cu139  O159    1.967   .     S
Cu139  Cu140   2.706   .     S
Cu140  O156    1.965   .     S
Cu140  O158    1.965   .     S
Cu140  O162    1.967   .     S
Cu140  O160    1.967   .     S
Cu140  N154    2.033   .     S
Br163  C188    1.924   .     S
Br164  C189    1.928   .     S
Br165  C190    1.924   .     S
Br166  C191    1.928   .     S
C167   O209    1.299   .     A
C167   C185    1.451   .     S
C167   O212    1.300   .     A
C168   H204    1.083   .     S
C168   C184    1.401   .     A
C168   C224    1.384   .     S
C169   H205    1.082   .     S
C169   C184    1.401   .     A
C169   C246    1.383   .     S
C170   H206    1.083   .     S
C170   C185    1.401   .     A
C170   C276    1.384   1_455 S
C171   C182    1.403   .     A
C171   H199    1.083   .     S
C171   C175    1.392   .     A
C172   H200    1.082   .     S
C172   C183    1.402   .     A
C172   C176    1.386   .     A
C173   H201    1.083   .     S
C173   C177    1.392   .     A
C173   C183    1.403   .     A
C174   C179    1.386   .     A
C174   H202    1.082   .     S
C174   C182    1.402   .     A
C175   F195    1.358   .     S
C175   C180    1.410   .     A
C176   F196    1.353   .     S
C176   C181    1.407   .     A
C177   F197    1.358   .     S
C177   C181    1.410   .     A
C178   O211    1.299   .     A
C178   C184    1.451   .     S
C178   O210    1.300   .     A
C179   F198    1.353   .     S
C179   C180    1.407   .     A
C180   C186    1.472   .     S
C181   C187    1.472   .     S
C182   C669    1.474   1_554 S
C183   C668    1.474   .     S
C185   C192    1.401   .     A
C186   O213    1.303   .     A
C186   O216    1.306   .     A
C187   O214    1.306   .     A
C187   O215    1.303   .     A
C188   N208    1.377   .     A
C189   N207    1.374   .     A
C189   C352    1.423   .     S
C190   N208    1.377   .     A
C191   N207    1.374   .     A
C191   C350    1.423   .     S
C192   H203    1.082   .     S
C192   C277    1.383   1_455 S
Cu193  O209    1.965   .     S
Cu193  O215    1.967   .     S
Cu193  O211    1.965   .     S
Cu193  N207    2.033   .     S
Cu193  O213    1.967   .     S
Cu193  Cu194   2.706   .     S
Cu194  O210    1.965   .     S
Cu194  O212    1.965   .     S
Cu194  O216    1.967   .     S
Cu194  O214    1.967   .     S
Cu194  N208    2.033   .     S
Br217  C242    1.924   .     S
Br218  C243    1.928   .     S
Br219  C244    1.924   .     S
Br220  C245    1.928   .     S
C221   O263    1.299   .     A
C221   C239    1.451   .     S
C221   O266    1.300   .     A
C222   H258    1.083   .     S
C222   C238    1.401   .     A
C222   C278    1.384   .     S
C223   H259    1.082   .     S
C223   C238    1.401   .     A
C223   C300    1.383   .     S
C224   H260    1.083   .     S
C224   C239    1.401   .     A
C225   C236    1.403   .     A
C225   H253    1.083   .     S
C225   C229    1.392   .     A
C226   H254    1.082   .     S
C226   C237    1.402   .     A
C226   C230    1.386   .     A
C227   H255    1.083   .     S
C227   C231    1.392   .     A
C227   C237    1.403   .     A
C228   C233    1.386   .     A
C228   H256    1.082   .     S
C228   C236    1.402   .     A
C229   F249    1.358   .     S
C229   C234    1.410   .     A
C230   F250    1.353   .     S
C230   C235    1.407   .     A
C231   F251    1.358   .     S
C231   C235    1.410   .     A
C232   O265    1.299   .     A
C232   C238    1.451   .     S
C232   O264    1.300   .     A
C233   F252    1.353   .     S
C233   C234    1.407   .     A
C234   C240    1.472   .     S
C235   C241    1.472   .     S
C236   C723    1.474   1_554 S
C237   C722    1.474   .     S
C239   C246    1.401   .     A
C240   O267    1.303   .     A
C240   O270    1.306   .     A
C241   O268    1.306   .     A
C241   O269    1.303   .     A
C242   N262    1.377   .     A
C243   N261    1.374   .     A
C243   C406    1.423   .     S
C244   N262    1.377   .     A
C245   N261    1.374   .     A
C245   C404    1.423   .     S
C246   H257    1.082   .     S
Cu247  O263    1.965   .     S
Cu247  O269    1.967   .     S
Cu247  O265    1.965   .     S
Cu247  N261    2.033   .     S
Cu247  O267    1.967   .     S
Cu247  Cu248   2.706   .     S
Cu248  O264    1.965   .     S
Cu248  O266    1.965   .     S
Cu248  O270    1.967   .     S
Cu248  O268    1.967   .     S
Cu248  N262    2.033   .     S
Br271  C296    1.924   .     S
Br272  C297    1.928   .     S
Br273  C298    1.924   .     S
Br274  C299    1.928   .     S
C275   O317    1.299   .     A
C275   C293    1.451   .     S
C275   O320    1.300   .     A
C276   H312    1.083   .     S
C276   C292    1.401   .     A
C276   C170    1.384   1_655 S
C277   H313    1.082   .     S
C277   C292    1.401   .     A
C277   C192    1.383   1_655 S
C278   H314    1.083   .     S
C278   C293    1.401   .     A
C279   C290    1.403   .     A
C279   H307    1.083   .     S
C279   C283    1.392   .     A
C280   H308    1.082   .     S
C280   C291    1.402   .     A
C280   C284    1.386   .     A
C281   H309    1.083   .     S
C281   C285    1.392   .     A
C281   C291    1.403   .     A
C282   C287    1.386   .     A
C282   H310    1.082   .     S
C282   C290    1.402   .     A
C283   F303    1.358   .     S
C283   C288    1.410   .     A
C284   F304    1.353   .     S
C284   C289    1.407   .     A
C285   F305    1.358   .     S
C285   C289    1.410   .     A
C286   O319    1.299   .     A
C286   C292    1.451   .     S
C286   O318    1.300   .     A
C287   F306    1.353   .     S
C287   C288    1.407   .     A
C288   C294    1.472   .     S
C289   C295    1.472   .     S
C290   C777    1.474   1_554 S
C291   C776    1.474   .     S
C293   C300    1.401   .     A
C294   O321    1.303   .     A
C294   O324    1.306   .     A
C295   O322    1.306   .     A
C295   O323    1.303   .     A
C296   N316    1.377   .     A
C297   N315    1.374   .     A
C297   C460    1.423   .     S
C298   N316    1.377   .     A
C299   N315    1.374   .     A
C299   C458    1.423   .     S
C300   H311    1.082   .     S
Cu301  O317    1.965   .     S
Cu301  O323    1.967   .     S
Cu301  O319    1.965   .     S
Cu301  N315    2.033   .     S
Cu301  O321    1.967   .     S
Cu301  Cu302   2.706   .     S
Cu302  O318    1.965   .     S
Cu302  O320    1.965   .     S
Cu302  O324    1.967   .     S
Cu302  O322    1.967   .     S
Cu302  N316    2.033   .     S
Br325  C350    1.924   .     S
Br326  C351    1.928   .     S
Br327  C352    1.924   .     S
Br328  C353    1.928   .     S
C329   O371    1.299   .     A
C329   C347    1.451   .     S
C329   O374    1.300   .     A
C330   H366    1.083   .     S
C330   C346    1.401   .     A
C330   C386    1.384   .     S
C331   H367    1.082   .     S
C331   C346    1.401   .     A
C331   C408    1.383   .     S
C332   H368    1.083   .     S
C332   C347    1.401   .     A
C332   C438    1.384   1_455 S
C333   C344    1.403   .     A
C333   H361    1.083   .     S
C333   C337    1.392   .     A
C334   H362    1.082   .     S
C334   C345    1.402   .     A
C334   C338    1.386   .     A
C335   H363    1.083   .     S
C335   C339    1.392   .     A
C335   C345    1.403   .     A
C336   C341    1.386   .     A
C336   H364    1.082   .     S
C336   C344    1.402   .     A
C337   F357    1.358   .     S
C337   C342    1.410   .     A
C338   F358    1.353   .     S
C338   C343    1.407   .     A
C339   F359    1.358   .     S
C339   C343    1.410   .     A
C340   O373    1.299   .     A
C340   C346    1.451   .     S
C340   O372    1.300   .     A
C341   F360    1.353   .     S
C341   C342    1.407   .     A
C342   C348    1.472   .     S
C343   C349    1.472   .     S
C344   C831    1.474   1_554 S
C345   C830    1.474   .     S
C347   C354    1.401   .     A
C348   O375    1.303   .     A
C348   O378    1.306   .     A
C349   O376    1.306   .     A
C349   O377    1.303   .     A
C350   N370    1.377   .     A
C351   N369    1.374   .     A
C351   C28     1.423   1_565 S
C352   N370    1.377   .     A
C353   N369    1.374   .     A
C353   C26     1.423   1_565 S
C354   H365    1.082   .     S
C354   C439    1.383   1_455 S
Cu355  O371    1.965   .     S
Cu355  O377    1.967   .     S
Cu355  O373    1.965   .     S
Cu355  N369    2.033   .     S
Cu355  O375    1.967   .     S
Cu355  Cu356   2.706   .     S
Cu356  O372    1.965   .     S
Cu356  O374    1.965   .     S
Cu356  O378    1.967   .     S
Cu356  O376    1.967   .     S
Cu356  N370    2.033   .     S
Br379  C404    1.924   .     S
Br380  C405    1.928   .     S
Br381  C406    1.924   .     S
Br382  C407    1.928   .     S
C383   O425    1.299   .     A
C383   C401    1.451   .     S
C383   O428    1.300   .     A
C384   H420    1.083   .     S
C384   C400    1.401   .     A
C384   C440    1.384   .     S
C385   H421    1.082   .     S
C385   C400    1.401   .     A
C385   C462    1.383   .     S
C386   H422    1.083   .     S
C386   C401    1.401   .     A
C387   C398    1.403   .     A
C387   H415    1.083   .     S
C387   C391    1.392   .     A
C388   H416    1.082   .     S
C388   C399    1.402   .     A
C388   C392    1.386   .     A
C389   H417    1.083   .     S
C389   C393    1.392   .     A
C389   C399    1.403   .     A
C390   C395    1.386   .     A
C390   H418    1.082   .     S
C390   C398    1.402   .     A
C391   F411    1.358   .     S
C391   C396    1.410   .     A
C392   F412    1.353   .     S
C392   C397    1.407   .     A
C393   F413    1.358   .     S
C393   C397    1.410   .     A
C394   O427    1.299   .     A
C394   C400    1.451   .     S
C394   O426    1.300   .     A
C395   F414    1.353   .     S
C395   C396    1.407   .     A
C396   C402    1.472   .     S
C397   C403    1.472   .     S
C398   C885    1.474   1_554 S
C399   C884    1.474   .     S
C401   C408    1.401   .     A
C402   O429    1.303   .     A
C402   O432    1.306   .     A
C403   O430    1.306   .     A
C403   O431    1.303   .     A
C404   N424    1.377   .     A
C405   N423    1.374   .     A
C405   C82     1.423   1_565 S
C406   N424    1.377   .     A
C407   N423    1.374   .     A
C407   C80     1.423   1_565 S
C408   H419    1.082   .     S
Cu409  O425    1.965   .     S
Cu409  O431    1.967   .     S
Cu409  O427    1.965   .     S
Cu409  N423    2.033   .     S
Cu409  O429    1.967   .     S
Cu409  Cu410   2.706   .     S
Cu410  O426    1.965   .     S
Cu410  O428    1.965   .     S
Cu410  O432    1.967   .     S
Cu410  O430    1.967   .     S
Cu410  N424    2.033   .     S
Br433  C458    1.924   .     S
Br434  C459    1.928   .     S
Br435  C460    1.924   .     S
Br436  C461    1.928   .     S
C437   O479    1.299   .     A
C437   C455    1.451   .     S
C437   O482    1.300   .     A
C438   H474    1.083   .     S
C438   C454    1.401   .     A
C438   C332    1.384   1_655 S
C439   H475    1.082   .     S
C439   C454    1.401   .     A
C439   C354    1.383   1_655 S
C440   H476    1.083   .     S
C440   C455    1.401   .     A
C441   C452    1.403   .     A
C441   H469    1.083   .     S
C441   C445    1.392   .     A
C442   H470    1.082   .     S
C442   C453    1.402   .     A
C442   C446    1.386   .     A
C443   H471    1.083   .     S
C443   C447    1.392   .     A
C443   C453    1.403   .     A
C444   C449    1.386   .     A
C444   H472    1.082   .     S
C444   C452    1.402   .     A
C445   F465    1.358   .     S
C445   C450    1.410   .     A
C446   F466    1.353   .     S
C446   C451    1.407   .     A
C447   F467    1.358   .     S
C447   C451    1.410   .     A
C448   O481    1.299   .     A
C448   C454    1.451   .     S
C448   O480    1.300   .     A
C449   F468    1.353   .     S
C449   C450    1.407   .     A
C450   C456    1.472   .     S
C451   C457    1.472   .     S
C452   C939    1.474   1_554 S
C453   C938    1.474   .     S
C455   C462    1.401   .     A
C456   O483    1.303   .     A
C456   O486    1.306   .     A
C457   O484    1.306   .     A
C457   O485    1.303   .     A
C458   N478    1.377   .     A
C459   N477    1.374   .     A
C459   C136    1.423   1_565 S
C460   N478    1.377   .     A
C461   N477    1.374   .     A
C461   C134    1.423   1_565 S
C462   H473    1.082   .     S
Cu463  O479    1.965   .     S
Cu463  O485    1.967   .     S
Cu463  O481    1.965   .     S
Cu463  N477    2.033   .     S
Cu463  O483    1.967   .     S
Cu463  Cu464   2.706   .     S
Cu464  O480    1.965   .     S
Cu464  O482    1.965   .     S
Cu464  O486    1.967   .     S
Cu464  O484    1.967   .     S
Cu464  N478    2.033   .     S
Br487  C512    1.924   .     S
Br488  C513    1.928   .     S
Br489  C514    1.924   .     S
Br490  C515    1.928   .     S
C491   O533    1.299   .     A
C491   C509    1.451   .     S
C491   O536    1.300   .     A
C492   H528    1.083   .     S
C492   C508    1.401   .     A
C492   C548    1.384   .     S
C493   H529    1.082   .     S
C493   C508    1.401   .     A
C493   C570    1.383   .     S
C494   H530    1.083   .     S
C494   C509    1.401   .     A
C494   C600    1.384   1_455 S
C495   C506    1.403   .     A
C495   H523    1.083   .     S
C495   C499    1.392   .     A
C496   H524    1.082   .     S
C496   C507    1.402   .     A
C496   C500    1.386   .     A
C497   H525    1.083   .     S
C497   C501    1.392   .     A
C497   C507    1.403   .     A
C498   C503    1.386   .     A
C498   H526    1.082   .     S
C498   C506    1.402   .     A
C499   F519    1.358   .     S
C499   C504    1.410   .     A
C500   F520    1.353   .     S
C500   C505    1.407   .     A
C501   F521    1.358   .     S
C501   C505    1.410   .     A
C502   O535    1.299   .     A
C502   C508    1.451   .     S
C502   O534    1.300   .     A
C503   F522    1.353   .     S
C503   C504    1.407   .     A
C504   C510    1.472   .     S
C505   C511    1.472   .     S
C507   C20     1.474   1_556 S
C509   C516    1.401   .     A
C510   O537    1.303   .     A
C510   O540    1.306   .     A
C511   O538    1.306   .     A
C511   O539    1.303   .     A
C512   N532    1.377   .     A
C512   C839    1.423   1_545 S
C513   N531    1.374   .     A
C513   C676    1.423   .     S
C514   N532    1.377   .     A
C514   C837    1.423   1_545 S
C515   N531    1.374   .     A
C515   C674    1.423   .     S
C516   H527    1.082   .     S
C516   C601    1.383   1_455 S
Cu517  O533    1.965   .     S
Cu517  O539    1.967   .     S
Cu517  O535    1.965   .     S
Cu517  N531    2.033   .     S
Cu517  O537    1.967   .     S
Cu517  Cu518   2.706   .     S
Cu518  O534    1.965   .     S
Cu518  O536    1.965   .     S
Cu518  O540    1.967   .     S
Cu518  O538    1.967   .     S
Cu518  N532    2.033   .     S
Br541  C566    1.924   .     S
Br542  C567    1.928   .     S
Br543  C568    1.924   .     S
Br544  C569    1.928   .     S
C545   O587    1.299   .     A
C545   C563    1.451   .     S
C545   O590    1.300   .     A
C546   H582    1.083   .     S
C546   C562    1.401   .     A
C546   C602    1.384   .     S
C547   H583    1.082   .     S
C547   C562    1.401   .     A
C547   C624    1.383   .     S
C548   H584    1.083   .     S
C548   C563    1.401   .     A
C549   C560    1.403   .     A
C549   H577    1.083   .     S
C549   C553    1.392   .     A
C550   H578    1.082   .     S
C550   C561    1.402   .     A
C550   C554    1.386   .     A
C551   H579    1.083   .     S
C551   C555    1.392   .     A
C551   C561    1.403   .     A
C552   C557    1.386   .     A
C552   H580    1.082   .     S
C552   C560    1.402   .     A
C553   F573    1.358   .     S
C553   C558    1.410   .     A
C554   F574    1.353   .     S
C554   C559    1.407   .     A
C555   F575    1.358   .     S
C555   C559    1.410   .     A
C556   O589    1.299   .     A
C556   C562    1.451   .     S
C556   O588    1.300   .     A
C557   F576    1.353   .     S
C557   C558    1.407   .     A
C558   C564    1.472   .     S
C559   C565    1.472   .     S
C561   C74     1.474   1_556 S
C563   C570    1.401   .     A
C564   O591    1.303   .     A
C564   O594    1.306   .     A
C565   O592    1.306   .     A
C565   O593    1.303   .     A
C566   N586    1.377   .     A
C566   C893    1.423   1_545 S
C567   N585    1.374   .     A
C567   C730    1.423   .     S
C568   N586    1.377   .     A
C568   C891    1.423   1_545 S
C569   N585    1.374   .     A
C569   C728    1.423   .     S
C570   H581    1.082   .     S
Cu571  O587    1.965   .     S
Cu571  O593    1.967   .     S
Cu571  O589    1.965   .     S
Cu571  N585    2.033   .     S
Cu571  O591    1.967   .     S
Cu571  Cu572   2.706   .     S
Cu572  O588    1.965   .     S
Cu572  O590    1.965   .     S
Cu572  O594    1.967   .     S
Cu572  O592    1.967   .     S
Cu572  N586    2.033   .     S
Br595  C620    1.924   .     S
Br596  C621    1.928   .     S
Br597  C622    1.924   .     S
Br598  C623    1.928   .     S
C599   O641    1.299   .     A
C599   C617    1.451   .     S
C599   O644    1.300   .     A
C600   H636    1.083   .     S
C600   C616    1.401   .     A
C600   C494    1.384   1_655 S
C601   H637    1.082   .     S
C601   C616    1.401   .     A
C601   C516    1.383   1_655 S
C602   H638    1.083   .     S
C602   C617    1.401   .     A
C603   C614    1.403   .     A
C603   H631    1.083   .     S
C603   C607    1.392   .     A
C604   H632    1.082   .     S
C604   C615    1.402   .     A
C604   C608    1.386   .     A
C605   H633    1.083   .     S
C605   C609    1.392   .     A
C605   C615    1.403   .     A
C606   C611    1.386   .     A
C606   H634    1.082   .     S
C606   C614    1.402   .     A
C607   F627    1.358   .     S
C607   C612    1.410   .     A
C608   F628    1.353   .     S
C608   C613    1.407   .     A
C609   F629    1.358   .     S
C609   C613    1.410   .     A
C610   O643    1.299   .     A
C610   C616    1.451   .     S
C610   O642    1.300   .     A
C611   F630    1.353   .     S
C611   C612    1.407   .     A
C612   C618    1.472   .     S
C613   C619    1.472   .     S
C615   C128    1.474   1_556 S
C617   C624    1.401   .     A
C618   O645    1.303   .     A
C618   O648    1.306   .     A
C619   O646    1.306   .     A
C619   O647    1.303   .     A
C620   N640    1.377   .     A
C620   C947    1.423   1_545 S
C621   N639    1.374   .     A
C621   C784    1.423   .     S
C622   N640    1.377   .     A
C622   C945    1.423   1_545 S
C623   N639    1.374   .     A
C623   C782    1.423   .     S
C624   H635    1.082   .     S
Cu625  O641    1.965   .     S
Cu625  O647    1.967   .     S
Cu625  O643    1.965   .     S
Cu625  N639    2.033   .     S
Cu625  O645    1.967   .     S
Cu625  Cu626   2.706   .     S
Cu626  O642    1.965   .     S
Cu626  O644    1.965   .     S
Cu626  O648    1.967   .     S
Cu626  O646    1.967   .     S
Cu626  N640    2.033   .     S
Br649  C674    1.924   .     S
Br650  C675    1.928   .     S
Br651  C676    1.924   .     S
Br652  C677    1.928   .     S
C653   O695    1.299   .     A
C653   C671    1.451   .     S
C653   O698    1.300   .     A
C654   H690    1.083   .     S
C654   C670    1.401   .     A
C654   C710    1.384   .     S
C655   H691    1.082   .     S
C655   C670    1.401   .     A
C655   C732    1.383   .     S
C656   H692    1.083   .     S
C656   C671    1.401   .     A
C656   C762    1.384   1_455 S
C657   C668    1.403   .     A
C657   H685    1.083   .     S
C657   C661    1.392   .     A
C658   H686    1.082   .     S
C658   C669    1.402   .     A
C658   C662    1.386   .     A
C659   H687    1.083   .     S
C659   C663    1.392   .     A
C659   C669    1.403   .     A
C660   C665    1.386   .     A
C660   H688    1.082   .     S
C660   C668    1.402   .     A
C661   F681    1.358   .     S
C661   C666    1.410   .     A
C662   F682    1.353   .     S
C662   C667    1.407   .     A
C663   F683    1.358   .     S
C663   C667    1.410   .     A
C664   O697    1.299   .     A
C664   C670    1.451   .     S
C664   O696    1.300   .     A
C665   F684    1.353   .     S
C665   C666    1.407   .     A
C666   C672    1.472   .     S
C667   C673    1.472   .     S
C669   C182    1.474   1_556 S
C671   C678    1.401   .     A
C672   O699    1.303   .     A
C672   O702    1.306   .     A
C673   O700    1.306   .     A
C673   O701    1.303   .     A
C674   N694    1.377   .     A
C675   N693    1.374   .     A
C675   C838    1.423   .     S
C676   N694    1.377   .     A
C677   N693    1.374   .     A
C677   C836    1.423   .     S
C678   H689    1.082   .     S
C678   C763    1.383   1_455 S
Cu679  O695    1.965   .     S
Cu679  O701    1.967   .     S
Cu679  O697    1.965   .     S
Cu679  N693    2.033   .     S
Cu679  O699    1.967   .     S
Cu679  Cu680   2.706   .     S
Cu680  O696    1.965   .     S
Cu680  O698    1.965   .     S
Cu680  O702    1.967   .     S
Cu680  O700    1.967   .     S
Cu680  N694    2.033   .     S
Br703  C728    1.924   .     S
Br704  C729    1.928   .     S
Br705  C730    1.924   .     S
Br706  C731    1.928   .     S
C707   O749    1.299   .     A
C707   C725    1.451   .     S
C707   O752    1.300   .     A
C708   H744    1.083   .     S
C708   C724    1.401   .     A
C708   C764    1.384   .     S
C709   H745    1.082   .     S
C709   C724    1.401   .     A
C709   C786    1.383   .     S
C710   H746    1.083   .     S
C710   C725    1.401   .     A
C711   C722    1.403   .     A
C711   H739    1.083   .     S
C711   C715    1.392   .     A
C712   H740    1.082   .     S
C712   C723    1.402   .     A
C712   C716    1.386   .     A
C713   H741    1.083   .     S
C713   C717    1.392   .     A
C713   C723    1.403   .     A
C714   C719    1.386   .     A
C714   H742    1.082   .     S
C714   C722    1.402   .     A
C715   F735    1.358   .     S
C715   C720    1.410   .     A
C716   F736    1.353   .     S
C716   C721    1.407   .     A
C717   F737    1.358   .     S
C717   C721    1.410   .     A
C718   O751    1.299   .     A
C718   C724    1.451   .     S
C718   O750    1.300   .     A
C719   F738    1.353   .     S
C719   C720    1.407   .     A
C720   C726    1.472   .     S
C721   C727    1.472   .     S
C723   C236    1.474   1_556 S
C725   C732    1.401   .     A
C726   O753    1.303   .     A
C726   O756    1.306   .     A
C727   O754    1.306   .     A
C727   O755    1.303   .     A
C728   N748    1.377   .     A
C729   N747    1.374   .     A
C729   C892    1.423   .     S
C730   N748    1.377   .     A
C731   N747    1.374   .     A
C731   C890    1.423   .     S
C732   H743    1.082   .     S
Cu733  O749    1.965   .     S
Cu733  O755    1.967   .     S
Cu733  O751    1.965   .     S
Cu733  N747    2.033   .     S
Cu733  O753    1.967   .     S
Cu733  Cu734   2.706   .     S
Cu734  O750    1.965   .     S
Cu734  O752    1.965   .     S
Cu734  O756    1.967   .     S
Cu734  O754    1.967   .     S
Cu734  N748    2.033   .     S
Br757  C782    1.924   .     S
Br758  C783    1.928   .     S
Br759  C784    1.924   .     S
Br760  C785    1.928   .     S
C761   O803    1.299   .     A
C761   C779    1.451   .     S
C761   O806    1.300   .     A
C762   H798    1.083   .     S
C762   C778    1.401   .     A
C762   C656    1.384   1_655 S
C763   H799    1.082   .     S
C763   C778    1.401   .     A
C763   C678    1.383   1_655 S
C764   H800    1.083   .     S
C764   C779    1.401   .     A
C765   C776    1.403   .     A
C765   H793    1.083   .     S
C765   C769    1.392   .     A
C766   H794    1.082   .     S
C766   C777    1.402   .     A
C766   C770    1.386   .     A
C767   H795    1.083   .     S
C767   C771    1.392   .     A
C767   C777    1.403   .     A
C768   C773    1.386   .     A
C768   H796    1.082   .     S
C768   C776    1.402   .     A
C769   F789    1.358   .     S
C769   C774    1.410   .     A
C770   F790    1.353   .     S
C770   C775    1.407   .     A
C771   F791    1.358   .     S
C771   C775    1.410   .     A
C772   O805    1.299   .     A
C772   C778    1.451   .     S
C772   O804    1.300   .     A
C773   F792    1.353   .     S
C773   C774    1.407   .     A
C774   C780    1.472   .     S
C775   C781    1.472   .     S
C777   C290    1.474   1_556 S
C779   C786    1.401   .     A
C780   O807    1.303   .     A
C780   O810    1.306   .     A
C781   O808    1.306   .     A
C781   O809    1.303   .     A
C782   N802    1.377   .     A
C783   N801    1.374   .     A
C783   C946    1.423   .     S
C784   N802    1.377   .     A
C785   N801    1.374   .     A
C785   C944    1.423   .     S
C786   H797    1.082   .     S
Cu787  O803    1.965   .     S
Cu787  O809    1.967   .     S
Cu787  O805    1.965   .     S
Cu787  N801    2.033   .     S
Cu787  O807    1.967   .     S
Cu787  Cu788   2.706   .     S
Cu788  O804    1.965   .     S
Cu788  O806    1.965   .     S
Cu788  O810    1.967   .     S
Cu788  O808    1.967   .     S
Cu788  N802    2.033   .     S
Br811  C836    1.924   .     S
Br812  C837    1.928   .     S
Br813  C838    1.924   .     S
Br814  C839    1.928   .     S
C815   O857    1.299   .     A
C815   C833    1.451   .     S
C815   O860    1.300   .     A
C816   H852    1.083   .     S
C816   C832    1.401   .     A
C816   C872    1.384   .     S
C817   H853    1.082   .     S
C817   C832    1.401   .     A
C817   C894    1.383   .     S
C818   H854    1.083   .     S
C818   C833    1.401   .     A
C818   C924    1.384   1_455 S
C819   C830    1.403   .     A
C819   H847    1.083   .     S
C819   C823    1.392   .     A
C820   H848    1.082   .     S
C820   C831    1.402   .     A
C820   C824    1.386   .     A
C821   H849    1.083   .     S
C821   C825    1.392   .     A
C821   C831    1.403   .     A
C822   C827    1.386   .     A
C822   H850    1.082   .     S
C822   C830    1.402   .     A
C823   F843    1.358   .     S
C823   C828    1.410   .     A
C824   F844    1.353   .     S
C824   C829    1.407   .     A
C825   F845    1.358   .     S
C825   C829    1.410   .     A
C826   O859    1.299   .     A
C826   C832    1.451   .     S
C826   O858    1.300   .     A
C827   F846    1.353   .     S
C827   C828    1.407   .     A
C828   C834    1.472   .     S
C829   C835    1.472   .     S
C831   C344    1.474   1_556 S
C833   C840    1.401   .     A
C834   O861    1.303   .     A
C834   O864    1.306   .     A
C835   O862    1.306   .     A
C835   O863    1.303   .     A
C836   N856    1.377   .     A
C837   N855    1.374   .     A
C837   C514    1.423   1_565 S
C838   N856    1.377   .     A
C839   N855    1.374   .     A
C839   C512    1.423   1_565 S
C840   H851    1.082   .     S
C840   C925    1.383   1_455 S
Cu841  O857    1.965   .     S
Cu841  O863    1.967   .     S
Cu841  O859    1.965   .     S
Cu841  N855    2.033   .     S
Cu841  O861    1.967   .     S
Cu841  Cu842   2.706   .     S
Cu842  O858    1.965   .     S
Cu842  O860    1.965   .     S
Cu842  O864    1.967   .     S
Cu842  O862    1.967   .     S
Cu842  N856    2.033   .     S
Br865  C890    1.924   .     S
Br866  C891    1.928   .     S
Br867  C892    1.924   .     S
Br868  C893    1.928   .     S
C869   O911    1.299   .     A
C869   C887    1.451   .     S
C869   O914    1.300   .     A
C870   H906    1.083   .     S
C870   C886    1.401   .     A
C870   C926    1.384   .     S
C871   H907    1.082   .     S
C871   C886    1.401   .     A
C871   C948    1.383   .     S
C872   H908    1.083   .     S
C872   C887    1.401   .     A
C873   C884    1.403   .     A
C873   H901    1.083   .     S
C873   C877    1.392   .     A
C874   H902    1.082   .     S
C874   C885    1.402   .     A
C874   C878    1.386   .     A
C875   H903    1.083   .     S
C875   C879    1.392   .     A
C875   C885    1.403   .     A
C876   C881    1.386   .     A
C876   H904    1.082   .     S
C876   C884    1.402   .     A
C877   F897    1.358   .     S
C877   C882    1.410   .     A
C878   F898    1.353   .     S
C878   C883    1.407   .     A
C879   F899    1.358   .     S
C879   C883    1.410   .     A
C880   O913    1.299   .     A
C880   C886    1.451   .     S
C880   O912    1.300   .     A
C881   F900    1.353   .     S
C881   C882    1.407   .     A
C882   C888    1.472   .     S
C883   C889    1.472   .     S
C885   C398    1.474   1_556 S
C887   C894    1.401   .     A
C888   O915    1.303   .     A
C888   O918    1.306   .     A
C889   O916    1.306   .     A
C889   O917    1.303   .     A
C890   N910    1.377   .     A
C891   N909    1.374   .     A
C891   C568    1.423   1_565 S
C892   N910    1.377   .     A
C893   N909    1.374   .     A
C893   C566    1.423   1_565 S
C894   H905    1.082   .     S
Cu895  O911    1.965   .     S
Cu895  O917    1.967   .     S
Cu895  O913    1.965   .     S
Cu895  N909    2.033   .     S
Cu895  O915    1.967   .     S
Cu895  Cu896   2.706   .     S
Cu896  O912    1.965   .     S
Cu896  O914    1.965   .     S
Cu896  O918    1.967   .     S
Cu896  O916    1.967   .     S
Cu896  N910    2.033   .     S
Br919  C944    1.924   .     S
Br920  C945    1.928   .     S
Br921  C946    1.924   .     S
Br922  C947    1.928   .     S
C923   O965    1.299   .     A
C923   C941    1.451   .     S
C923   O968    1.300   .     A
C924   H960    1.083   .     S
C924   C940    1.401   .     A
C924   C818    1.384   1_655 S
C925   H961    1.082   .     S
C925   C940    1.401   .     A
C925   C840    1.383   1_655 S
C926   H962    1.083   .     S
C926   C941    1.401   .     A
C927   C938    1.403   .     A
C927   H955    1.083   .     S
C927   C931    1.392   .     A
C928   H956    1.082   .     S
C928   C939    1.402   .     A
C928   C932    1.386   .     A
C929   H957    1.083   .     S
C929   C933    1.392   .     A
C929   C939    1.403   .     A
C930   C935    1.386   .     A
C930   H958    1.082   .     S
C930   C938    1.402   .     A
C931   F951    1.358   .     S
C931   C936    1.410   .     A
C932   F952    1.353   .     S
C932   C937    1.407   .     A
C933   F953    1.358   .     S
C933   C937    1.410   .     A
C934   O967    1.299   .     A
C934   C940    1.451   .     S
C934   O966    1.300   .     A
C935   F954    1.353   .     S
C935   C936    1.407   .     A
C936   C942    1.472   .     S
C937   C943    1.472   .     S
C939   C452    1.474   1_556 S
C941   C948    1.401   .     A
C942   O969    1.303   .     A
C942   O972    1.306   .     A
C943   O970    1.306   .     A
C943   O971    1.303   .     A
C944   N964    1.377   .     A
C945   N963    1.374   .     A
C945   C622    1.423   1_565 S
C946   N964    1.377   .     A
C947   N963    1.374   .     A
C947   C620    1.423   1_565 S
C948   H959    1.082   .     S
Cu949  O965    1.965   .     S
Cu949  O971    1.967   .     S
Cu949  O967    1.965   .     S
Cu949  N963    2.033   .     S
Cu949  O969    1.967   .     S
Cu949  Cu950   2.706   .     S
Cu950  O966    1.965   .     S
Cu950  O968    1.965   .     S
Cu950  O972    1.967   .     S
Cu950  O970    1.967   .     S
Cu950  N964    2.033   .     S
