data_str_m1_o10_o18_pcu_sym.217
_audit_creation_date              2020-01-03
_audit_creation_method            'Materials Studio'
_symmetry_space_group_name_H-M    'P1'
_symmetry_Int_Tables_number       1
_symmetry_cell_setting            triclinic
loop_
_symmetry_equiv_pos_as_xyz
  x,y,z
_cell_length_a                    32.5521
_cell_length_b                    32.5334
_cell_length_c                    35.7257
_cell_angle_alpha                 98.3085
_cell_angle_beta                  73.1619
_cell_angle_gamma                 98.6307
loop_
_atom_site_label
_atom_site_type_symbol
_atom_site_fract_x
_atom_site_fract_y
_atom_site_fract_z
_atom_site_U_iso_or_equiv
_atom_site_adp_type
_atom_site_occupancy
C1     C     0.05248   0.15989   0.25872   0.00000  Uiso   1.00
C2     C     0.18209   0.11557   0.46262   0.00000  Uiso   1.00
C3     C     0.20288   0.09669   0.48342   0.00000  Uiso   1.00
C4     C     0.28103   0.17354   0.24121   0.00000  Uiso   1.00
C5     C     0.20048   0.11035   0.02267   0.00000  Uiso   1.00
C6     C     0.17569   0.14331   0.04259   0.00000  Uiso   1.00
C7     C     0.22178   0.09021   0.04244   0.00000  Uiso   1.00
C8     C     0.21904   0.10228   0.08205   0.00000  Uiso   1.00
C9     C     0.17737   0.15840   0.08160   0.00000  Uiso   1.00
C10    C     0.32700   0.17618   0.23764   0.00000  Uiso   1.00
C11    C     0.00711   0.15745   0.26209   0.00000  Uiso   1.00
C12    C     0.09965   0.21680   0.42088   0.00000  Uiso   1.00
C13    C     0.18084   0.32213   0.23813   0.00000  Uiso   1.00
C14    C     0.15147   0.01206   0.26203   0.00000  Uiso   1.00
C15    C     0.15590   0.05609   0.25888   0.00000  Uiso   1.00
C16    C     0.17683   0.27765   0.24136   0.00000  Uiso   1.00
C17    C     0.18808   0.14520   0.14408   0.00000  Uiso   1.00
C18    C     0.14543   0.18773   0.35617   0.00000  Uiso   1.00
C19    C     0.13349   0.19360   0.39942   0.00000  Uiso   1.00
C20    C     0.19613   0.13587   0.10166   0.00000  Uiso   1.00
C21    C     0.08718   0.21989   0.46182   0.00000  Uiso   1.00
C22    C     0.19312   0.22886   0.08895   0.00000  Uiso   1.00
C23    C     0.15460   0.17365   0.41941   0.00000  Uiso   1.00
C24    C     0.28080   0.09498   0.09624   0.00000  Uiso   1.00
C25    C     0.14560   0.06848   0.42700   0.00000  Uiso   1.00
C26    C     0.14022   0.17339   0.46048   0.00000  Uiso   1.00
C27    C     0.10741   0.19869   0.48176   0.00000  Uiso   1.00
C28    C     0.15861   0.15006   0.48113   0.00000  Uiso   1.00
C29    C     0.15096   0.16001   0.02255   0.00000  Uiso   1.00
C30    C     0.11674   0.18388   0.04279   0.00000  Uiso   1.00
C31    C     0.09502   0.20241   0.02268   0.00000  Uiso   1.00
H32    H     0.06893   0.22045   0.03931   0.00000  Uiso   1.00
H33    H     0.31809   0.14016   0.28499   0.00000  Uiso   1.00
H34    H     0.20021   0.23132   0.05690   0.00000  Uiso   1.00
H35    H     0.22334   0.22621   0.09664   0.00000  Uiso   1.00
H36    H     0.18067   0.25829   0.10488   0.00000  Uiso   1.00
H37    H     0.28501   0.12875   0.10720   0.00000  Uiso   1.00
H38    H     0.29907   0.08971   0.06471   0.00000  Uiso   1.00
H39    H     0.29487   0.07767   0.11319   0.00000  Uiso   1.00
H40    H     0.18314   0.15957   0.40244   0.00000  Uiso   1.00
H41    H     0.11551   0.08394   0.43911   0.00000  Uiso   1.00
H42    H     0.14522   0.04284   0.44467   0.00000  Uiso   1.00
H43    H     0.23960   0.06419   0.02747   0.00000  Uiso   1.00
H44    H     0.14610   0.05417   0.39676   0.00000  Uiso   1.00
H45    H     0.01668   0.19342   0.21502   0.00000  Uiso   1.00
H46    H     0.20796   0.00273   0.21614   0.00000  Uiso   1.00
H47    H     0.12395   0.33222   0.28408   0.00000  Uiso   1.00
H48    H     0.22064   0.07056   0.46864   0.00000  Uiso   1.00
H49    H     0.06150   0.23864   0.47791   0.00000  Uiso   1.00
H50    H     0.08284   0.23256   0.40607   0.00000  Uiso   1.00
H51    H     0.10438   0.18674   0.07437   0.00000  Uiso   1.00
O52    O     0.16667   0.16667   0.25000   0.00000  Uiso   1.00
O53    O     0.15693   0.12393   0.16625   0.00000  Uiso   1.00
O54    O     0.12687   0.20646   0.33749   0.00000  Uiso   1.00
O55    O     0.21088   0.17493   0.15877   0.00000  Uiso   1.00
O56    O     0.17198   0.16135   0.33749   0.00000  Uiso   1.00
O57    O     0.16134   0.19516   0.10073   0.00000  Uiso   1.00
O58    O     0.23676   0.07971   0.10220   0.00000  Uiso   1.00
O59    O     0.18278   0.09755   0.42498   0.00000  Uiso   1.00
O60    O     0.17849   0.08101   0.27821   0.00000  Uiso   1.00
O61    O     0.14581   0.26136   0.26767   0.00000  Uiso   1.00
O62    O     0.07452   0.13251   0.23607   0.00000  Uiso   1.00
O63    O     0.26785   0.19179   0.21806   0.00000  Uiso   1.00
O64    O     0.06990   0.18960   0.27820   0.00000  Uiso   1.00
O65    O     0.25440   0.15277   0.26768   0.00000  Uiso   1.00
O66    O     0.13800   0.06903   0.23607   0.00000  Uiso   1.00
O67    O     0.20437   0.25527   0.21806   0.00000  Uiso   1.00
Zn68   Zn    0.19244   0.14090   0.28278   0.00000  Uiso   1.00
Zn69   Zn    0.13459   0.12378   0.22258   0.00000  Uiso   1.00
Zn70   Zn    0.21166   0.19664   0.21188   0.00000  Uiso   1.00
Zn71   Zn    0.12798   0.20535   0.28277   0.00000  Uiso   1.00
C72    C     0.38581   0.15989   0.25872   0.00000  Uiso   1.00
C73    C     0.51542   0.11557   0.46262   0.00000  Uiso   1.00
C74    C     0.53622   0.09669   0.48342   0.00000  Uiso   1.00
C75    C     0.61436   0.17354   0.24121   0.00000  Uiso   1.00
C76    C     0.53381   0.11035   0.02267   0.00000  Uiso   1.00
C77    C     0.50902   0.14331   0.04259   0.00000  Uiso   1.00
C78    C     0.55511   0.09021   0.04244   0.00000  Uiso   1.00
C79    C     0.55237   0.10228   0.08205   0.00000  Uiso   1.00
C80    C     0.51070   0.15840   0.08160   0.00000  Uiso   1.00
C81    C     0.66033   0.17618   0.23764   0.00000  Uiso   1.00
C82    C     0.34044   0.15745   0.26209   0.00000  Uiso   1.00
C83    C     0.43298   0.21680   0.42088   0.00000  Uiso   1.00
C84    C     0.51417   0.32213   0.23813   0.00000  Uiso   1.00
C85    C     0.48481   0.01206   0.26203   0.00000  Uiso   1.00
C86    C     0.48923   0.05609   0.25888   0.00000  Uiso   1.00
C87    C     0.51016   0.27765   0.24136   0.00000  Uiso   1.00
C88    C     0.52141   0.14520   0.14408   0.00000  Uiso   1.00
C89    C     0.47876   0.18773   0.35617   0.00000  Uiso   1.00
C90    C     0.46683   0.19360   0.39942   0.00000  Uiso   1.00
C91    C     0.52946   0.13587   0.10166   0.00000  Uiso   1.00
C92    C     0.42051   0.21989   0.46182   0.00000  Uiso   1.00
C93    C     0.52645   0.22886   0.08895   0.00000  Uiso   1.00
C94    C     0.48794   0.17365   0.41941   0.00000  Uiso   1.00
C95    C     0.61413   0.09498   0.09624   0.00000  Uiso   1.00
C96    C     0.47894   0.06848   0.42700   0.00000  Uiso   1.00
C97    C     0.47355   0.17339   0.46048   0.00000  Uiso   1.00
C98    C     0.44074   0.19869   0.48176   0.00000  Uiso   1.00
C99    C     0.49194   0.15006   0.48113   0.00000  Uiso   1.00
C100   C     0.48430   0.16001   0.02255   0.00000  Uiso   1.00
C101   C     0.45007   0.18388   0.04279   0.00000  Uiso   1.00
C102   C     0.42835   0.20241   0.02268   0.00000  Uiso   1.00
H103   H     0.40226   0.22045   0.03931   0.00000  Uiso   1.00
H104   H     0.65142   0.14016   0.28499   0.00000  Uiso   1.00
H105   H     0.53355   0.23132   0.05690   0.00000  Uiso   1.00
H106   H     0.55667   0.22621   0.09664   0.00000  Uiso   1.00
H107   H     0.51400   0.25829   0.10488   0.00000  Uiso   1.00
H108   H     0.61834   0.12875   0.10720   0.00000  Uiso   1.00
H109   H     0.63240   0.08971   0.06471   0.00000  Uiso   1.00
H110   H     0.62821   0.07767   0.11319   0.00000  Uiso   1.00
H111   H     0.51647   0.15957   0.40244   0.00000  Uiso   1.00
H112   H     0.44884   0.08394   0.43911   0.00000  Uiso   1.00
H113   H     0.47855   0.04284   0.44467   0.00000  Uiso   1.00
H114   H     0.57293   0.06419   0.02747   0.00000  Uiso   1.00
H115   H     0.47943   0.05417   0.39676   0.00000  Uiso   1.00
H116   H     0.35002   0.19342   0.21502   0.00000  Uiso   1.00
H117   H     0.54129   0.00273   0.21614   0.00000  Uiso   1.00
H118   H     0.45729   0.33222   0.28408   0.00000  Uiso   1.00
H119   H     0.55397   0.07056   0.46864   0.00000  Uiso   1.00
H120   H     0.39483   0.23864   0.47791   0.00000  Uiso   1.00
H121   H     0.41617   0.23256   0.40607   0.00000  Uiso   1.00
H122   H     0.43771   0.18674   0.07437   0.00000  Uiso   1.00
O123   O     0.50000   0.16667   0.25000   0.00000  Uiso   1.00
O124   O     0.49027   0.12393   0.16625   0.00000  Uiso   1.00
O125   O     0.46020   0.20646   0.33749   0.00000  Uiso   1.00
O126   O     0.54421   0.17493   0.15877   0.00000  Uiso   1.00
O127   O     0.50532   0.16135   0.33749   0.00000  Uiso   1.00
O128   O     0.49467   0.19516   0.10073   0.00000  Uiso   1.00
O129   O     0.57009   0.07971   0.10220   0.00000  Uiso   1.00
O130   O     0.51611   0.09755   0.42498   0.00000  Uiso   1.00
O131   O     0.51182   0.08101   0.27821   0.00000  Uiso   1.00
O132   O     0.47914   0.26136   0.26767   0.00000  Uiso   1.00
O133   O     0.40785   0.13251   0.23607   0.00000  Uiso   1.00
O134   O     0.60119   0.19179   0.21806   0.00000  Uiso   1.00
O135   O     0.40323   0.18960   0.27820   0.00000  Uiso   1.00
O136   O     0.58773   0.15277   0.26768   0.00000  Uiso   1.00
O137   O     0.47133   0.06903   0.23607   0.00000  Uiso   1.00
O138   O     0.53771   0.25527   0.21806   0.00000  Uiso   1.00
Zn139  Zn    0.52577   0.14090   0.28278   0.00000  Uiso   1.00
Zn140  Zn    0.46792   0.12378   0.22258   0.00000  Uiso   1.00
Zn141  Zn    0.54500   0.19664   0.21188   0.00000  Uiso   1.00
Zn142  Zn    0.46131   0.20535   0.28277   0.00000  Uiso   1.00
C143   C     0.71915   0.15989   0.25872   0.00000  Uiso   1.00
C144   C     0.84876   0.11557   0.46262   0.00000  Uiso   1.00
C145   C     0.86955   0.09669   0.48342   0.00000  Uiso   1.00
C146   C     0.94770   0.17354   0.24121   0.00000  Uiso   1.00
C147   C     0.86715   0.11035   0.02267   0.00000  Uiso   1.00
C148   C     0.84236   0.14331   0.04259   0.00000  Uiso   1.00
C149   C     0.88845   0.09021   0.04244   0.00000  Uiso   1.00
C150   C     0.88571   0.10228   0.08205   0.00000  Uiso   1.00
C151   C     0.84404   0.15840   0.08160   0.00000  Uiso   1.00
C152   C     0.99367   0.17618   0.23764   0.00000  Uiso   1.00
C153   C     0.67377   0.15745   0.26209   0.00000  Uiso   1.00
C154   C     0.76631   0.21680   0.42088   0.00000  Uiso   1.00
C155   C     0.84750   0.32213   0.23813   0.00000  Uiso   1.00
C156   C     0.81814   0.01206   0.26203   0.00000  Uiso   1.00
C157   C     0.82256   0.05609   0.25888   0.00000  Uiso   1.00
C158   C     0.84350   0.27765   0.24136   0.00000  Uiso   1.00
C159   C     0.85474   0.14520   0.14408   0.00000  Uiso   1.00
C160   C     0.81209   0.18773   0.35617   0.00000  Uiso   1.00
C161   C     0.80016   0.19360   0.39942   0.00000  Uiso   1.00
C162   C     0.86279   0.13587   0.10166   0.00000  Uiso   1.00
C163   C     0.75385   0.21989   0.46182   0.00000  Uiso   1.00
C164   C     0.85978   0.22886   0.08895   0.00000  Uiso   1.00
C165   C     0.82127   0.17365   0.41941   0.00000  Uiso   1.00
C166   C     0.94746   0.09498   0.09624   0.00000  Uiso   1.00
C167   C     0.81227   0.06848   0.42700   0.00000  Uiso   1.00
C168   C     0.80689   0.17339   0.46048   0.00000  Uiso   1.00
C169   C     0.77408   0.19869   0.48176   0.00000  Uiso   1.00
C170   C     0.82527   0.15006   0.48113   0.00000  Uiso   1.00
C171   C     0.81763   0.16001   0.02255   0.00000  Uiso   1.00
C172   C     0.78340   0.18388   0.04279   0.00000  Uiso   1.00
C173   C     0.76169   0.20241   0.02268   0.00000  Uiso   1.00
H174   H     0.73560   0.22045   0.03931   0.00000  Uiso   1.00
H175   H     0.98476   0.14016   0.28499   0.00000  Uiso   1.00
H176   H     0.86688   0.23132   0.05690   0.00000  Uiso   1.00
H177   H     0.89000   0.22621   0.09664   0.00000  Uiso   1.00
H178   H     0.84733   0.25829   0.10488   0.00000  Uiso   1.00
H179   H     0.95168   0.12875   0.10720   0.00000  Uiso   1.00
H180   H     0.96574   0.08971   0.06471   0.00000  Uiso   1.00
H181   H     0.96154   0.07767   0.11319   0.00000  Uiso   1.00
H182   H     0.84981   0.15957   0.40244   0.00000  Uiso   1.00
H183   H     0.78217   0.08394   0.43911   0.00000  Uiso   1.00
H184   H     0.81188   0.04284   0.44467   0.00000  Uiso   1.00
H185   H     0.90627   0.06419   0.02747   0.00000  Uiso   1.00
H186   H     0.81276   0.05417   0.39676   0.00000  Uiso   1.00
H187   H     0.68335   0.19342   0.21502   0.00000  Uiso   1.00
H188   H     0.87463   0.00273   0.21614   0.00000  Uiso   1.00
H189   H     0.79062   0.33222   0.28408   0.00000  Uiso   1.00
H190   H     0.88730   0.07056   0.46864   0.00000  Uiso   1.00
H191   H     0.72817   0.23864   0.47791   0.00000  Uiso   1.00
H192   H     0.74951   0.23256   0.40607   0.00000  Uiso   1.00
H193   H     0.77105   0.18674   0.07437   0.00000  Uiso   1.00
O194   O     0.83333   0.16667   0.25000   0.00000  Uiso   1.00
O195   O     0.82360   0.12393   0.16625   0.00000  Uiso   1.00
O196   O     0.79354   0.20646   0.33749   0.00000  Uiso   1.00
O197   O     0.87755   0.17493   0.15877   0.00000  Uiso   1.00
O198   O     0.83865   0.16135   0.33749   0.00000  Uiso   1.00
O199   O     0.82801   0.19516   0.10073   0.00000  Uiso   1.00
O200   O     0.90343   0.07971   0.10220   0.00000  Uiso   1.00
O201   O     0.84945   0.09755   0.42498   0.00000  Uiso   1.00
O202   O     0.84515   0.08101   0.27821   0.00000  Uiso   1.00
O203   O     0.81247   0.26136   0.26767   0.00000  Uiso   1.00
O204   O     0.74119   0.13251   0.23607   0.00000  Uiso   1.00
O205   O     0.93452   0.19179   0.21806   0.00000  Uiso   1.00
O206   O     0.73656   0.18960   0.27820   0.00000  Uiso   1.00
O207   O     0.92106   0.15277   0.26768   0.00000  Uiso   1.00
O208   O     0.80467   0.06903   0.23607   0.00000  Uiso   1.00
O209   O     0.87104   0.25527   0.21806   0.00000  Uiso   1.00
Zn210  Zn    0.85910   0.14090   0.28278   0.00000  Uiso   1.00
Zn211  Zn    0.80125   0.12378   0.22258   0.00000  Uiso   1.00
Zn212  Zn    0.87833   0.19664   0.21188   0.00000  Uiso   1.00
Zn213  Zn    0.79465   0.20535   0.28277   0.00000  Uiso   1.00
C214   C     0.05248   0.49322   0.25872   0.00000  Uiso   1.00
C215   C     0.18209   0.44890   0.46262   0.00000  Uiso   1.00
C216   C     0.20288   0.43002   0.48342   0.00000  Uiso   1.00
C217   C     0.28103   0.50688   0.24121   0.00000  Uiso   1.00
C218   C     0.20048   0.44368   0.02267   0.00000  Uiso   1.00
C219   C     0.17569   0.47664   0.04259   0.00000  Uiso   1.00
C220   C     0.22178   0.42354   0.04244   0.00000  Uiso   1.00
C221   C     0.21904   0.43562   0.08205   0.00000  Uiso   1.00
C222   C     0.17737   0.49174   0.08160   0.00000  Uiso   1.00
C223   C     0.32700   0.50951   0.23764   0.00000  Uiso   1.00
C224   C     0.00711   0.49078   0.26209   0.00000  Uiso   1.00
C225   C     0.09965   0.55013   0.42088   0.00000  Uiso   1.00
C226   C     0.18084   0.65546   0.23813   0.00000  Uiso   1.00
C227   C     0.15147   0.34539   0.26203   0.00000  Uiso   1.00
C228   C     0.15590   0.38943   0.25888   0.00000  Uiso   1.00
C229   C     0.17683   0.61099   0.24136   0.00000  Uiso   1.00
C230   C     0.18808   0.47853   0.14408   0.00000  Uiso   1.00
C231   C     0.14543   0.52106   0.35617   0.00000  Uiso   1.00
C232   C     0.13349   0.52693   0.39942   0.00000  Uiso   1.00
C233   C     0.19613   0.46920   0.10166   0.00000  Uiso   1.00
C234   C     0.08718   0.55322   0.46182   0.00000  Uiso   1.00
C235   C     0.19312   0.56219   0.08895   0.00000  Uiso   1.00
C236   C     0.15460   0.50698   0.41941   0.00000  Uiso   1.00
C237   C     0.28080   0.42832   0.09624   0.00000  Uiso   1.00
C238   C     0.14560   0.40182   0.42700   0.00000  Uiso   1.00
C239   C     0.14022   0.50672   0.46048   0.00000  Uiso   1.00
C240   C     0.10741   0.53202   0.48176   0.00000  Uiso   1.00
C241   C     0.15861   0.48340   0.48113   0.00000  Uiso   1.00
C242   C     0.15096   0.49335   0.02255   0.00000  Uiso   1.00
C243   C     0.11674   0.51722   0.04279   0.00000  Uiso   1.00
C244   C     0.09502   0.53574   0.02268   0.00000  Uiso   1.00
H245   H     0.06893   0.55378   0.03931   0.00000  Uiso   1.00
H246   H     0.31809   0.47349   0.28499   0.00000  Uiso   1.00
H247   H     0.20021   0.56466   0.05690   0.00000  Uiso   1.00
H248   H     0.22334   0.55954   0.09664   0.00000  Uiso   1.00
H249   H     0.18067   0.59162   0.10488   0.00000  Uiso   1.00
H250   H     0.28501   0.46209   0.10720   0.00000  Uiso   1.00
H251   H     0.29907   0.42304   0.06471   0.00000  Uiso   1.00
H252   H     0.29487   0.41100   0.11319   0.00000  Uiso   1.00
H253   H     0.18314   0.49290   0.40244   0.00000  Uiso   1.00
H254   H     0.11551   0.41727   0.43911   0.00000  Uiso   1.00
H255   H     0.14522   0.37617   0.44467   0.00000  Uiso   1.00
H256   H     0.23960   0.39752   0.02747   0.00000  Uiso   1.00
H257   H     0.14610   0.38751   0.39676   0.00000  Uiso   1.00
H258   H     0.01668   0.52675   0.21502   0.00000  Uiso   1.00
H259   H     0.20796   0.33607   0.21614   0.00000  Uiso   1.00
H260   H     0.12395   0.66555   0.28408   0.00000  Uiso   1.00
H261   H     0.22064   0.40389   0.46864   0.00000  Uiso   1.00
H262   H     0.06150   0.57198   0.47791   0.00000  Uiso   1.00
H263   H     0.08284   0.56590   0.40607   0.00000  Uiso   1.00
H264   H     0.10438   0.52008   0.07437   0.00000  Uiso   1.00
O265   O     0.16667   0.50000   0.25000   0.00000  Uiso   1.00
O266   O     0.15693   0.45726   0.16625   0.00000  Uiso   1.00
O267   O     0.12687   0.53979   0.33749   0.00000  Uiso   1.00
O268   O     0.21088   0.50826   0.15877   0.00000  Uiso   1.00
O269   O     0.17198   0.49468   0.33749   0.00000  Uiso   1.00
O270   O     0.16134   0.52849   0.10073   0.00000  Uiso   1.00
O271   O     0.23676   0.41304   0.10220   0.00000  Uiso   1.00
O272   O     0.18278   0.43088   0.42498   0.00000  Uiso   1.00
O273   O     0.17849   0.41434   0.27821   0.00000  Uiso   1.00
O274   O     0.14581   0.59469   0.26767   0.00000  Uiso   1.00
O275   O     0.07452   0.46584   0.23607   0.00000  Uiso   1.00
O276   O     0.26785   0.52512   0.21806   0.00000  Uiso   1.00
O277   O     0.06990   0.52293   0.27820   0.00000  Uiso   1.00
O278   O     0.25440   0.48610   0.26768   0.00000  Uiso   1.00
O279   O     0.13800   0.40236   0.23607   0.00000  Uiso   1.00
O280   O     0.20437   0.58860   0.21806   0.00000  Uiso   1.00
Zn281  Zn    0.19244   0.47423   0.28278   0.00000  Uiso   1.00
Zn282  Zn    0.13459   0.45711   0.22258   0.00000  Uiso   1.00
Zn283  Zn    0.21166   0.52997   0.21188   0.00000  Uiso   1.00
Zn284  Zn    0.12798   0.53868   0.28277   0.00000  Uiso   1.00
C285   C     0.38581   0.49322   0.25872   0.00000  Uiso   1.00
C286   C     0.51542   0.44890   0.46262   0.00000  Uiso   1.00
C287   C     0.53622   0.43002   0.48342   0.00000  Uiso   1.00
C288   C     0.61436   0.50688   0.24121   0.00000  Uiso   1.00
C289   C     0.53381   0.44368   0.02267   0.00000  Uiso   1.00
C290   C     0.50902   0.47664   0.04259   0.00000  Uiso   1.00
C291   C     0.55511   0.42354   0.04244   0.00000  Uiso   1.00
C292   C     0.55237   0.43562   0.08205   0.00000  Uiso   1.00
C293   C     0.51070   0.49174   0.08160   0.00000  Uiso   1.00
C294   C     0.66033   0.50951   0.23764   0.00000  Uiso   1.00
C295   C     0.34044   0.49078   0.26209   0.00000  Uiso   1.00
C296   C     0.43298   0.55013   0.42088   0.00000  Uiso   1.00
C297   C     0.51417   0.65546   0.23813   0.00000  Uiso   1.00
C298   C     0.48481   0.34539   0.26203   0.00000  Uiso   1.00
C299   C     0.48923   0.38943   0.25888   0.00000  Uiso   1.00
C300   C     0.51016   0.61099   0.24136   0.00000  Uiso   1.00
C301   C     0.52141   0.47853   0.14408   0.00000  Uiso   1.00
C302   C     0.47876   0.52106   0.35617   0.00000  Uiso   1.00
C303   C     0.46683   0.52693   0.39942   0.00000  Uiso   1.00
C304   C     0.52946   0.46920   0.10166   0.00000  Uiso   1.00
C305   C     0.42051   0.55322   0.46182   0.00000  Uiso   1.00
C306   C     0.52645   0.56219   0.08895   0.00000  Uiso   1.00
C307   C     0.48794   0.50698   0.41941   0.00000  Uiso   1.00
C308   C     0.61413   0.42832   0.09624   0.00000  Uiso   1.00
C309   C     0.47894   0.40182   0.42700   0.00000  Uiso   1.00
C310   C     0.47355   0.50672   0.46048   0.00000  Uiso   1.00
C311   C     0.44074   0.53202   0.48176   0.00000  Uiso   1.00
C312   C     0.49194   0.48340   0.48113   0.00000  Uiso   1.00
C313   C     0.48430   0.49335   0.02255   0.00000  Uiso   1.00
C314   C     0.45007   0.51722   0.04279   0.00000  Uiso   1.00
C315   C     0.42835   0.53574   0.02268   0.00000  Uiso   1.00
H316   H     0.40226   0.55378   0.03931   0.00000  Uiso   1.00
H317   H     0.65142   0.47349   0.28499   0.00000  Uiso   1.00
H318   H     0.53355   0.56466   0.05690   0.00000  Uiso   1.00
H319   H     0.55667   0.55954   0.09664   0.00000  Uiso   1.00
H320   H     0.51400   0.59162   0.10488   0.00000  Uiso   1.00
H321   H     0.61834   0.46209   0.10720   0.00000  Uiso   1.00
H322   H     0.63240   0.42304   0.06471   0.00000  Uiso   1.00
H323   H     0.62821   0.41100   0.11319   0.00000  Uiso   1.00
H324   H     0.51647   0.49290   0.40244   0.00000  Uiso   1.00
H325   H     0.44884   0.41727   0.43911   0.00000  Uiso   1.00
H326   H     0.47855   0.37617   0.44467   0.00000  Uiso   1.00
H327   H     0.57293   0.39752   0.02747   0.00000  Uiso   1.00
H328   H     0.47943   0.38751   0.39676   0.00000  Uiso   1.00
H329   H     0.35002   0.52675   0.21502   0.00000  Uiso   1.00
H330   H     0.54129   0.33607   0.21614   0.00000  Uiso   1.00
H331   H     0.45729   0.66555   0.28408   0.00000  Uiso   1.00
H332   H     0.55397   0.40389   0.46864   0.00000  Uiso   1.00
H333   H     0.39483   0.57198   0.47791   0.00000  Uiso   1.00
H334   H     0.41617   0.56590   0.40607   0.00000  Uiso   1.00
H335   H     0.43771   0.52008   0.07437   0.00000  Uiso   1.00
O336   O     0.50000   0.50000   0.25000   0.00000  Uiso   1.00
O337   O     0.49027   0.45726   0.16625   0.00000  Uiso   1.00
O338   O     0.46020   0.53979   0.33749   0.00000  Uiso   1.00
O339   O     0.54421   0.50826   0.15877   0.00000  Uiso   1.00
O340   O     0.50532   0.49468   0.33749   0.00000  Uiso   1.00
O341   O     0.49467   0.52849   0.10073   0.00000  Uiso   1.00
O342   O     0.57009   0.41304   0.10220   0.00000  Uiso   1.00
O343   O     0.51611   0.43088   0.42498   0.00000  Uiso   1.00
O344   O     0.51182   0.41434   0.27821   0.00000  Uiso   1.00
O345   O     0.47914   0.59469   0.26767   0.00000  Uiso   1.00
O346   O     0.40785   0.46584   0.23607   0.00000  Uiso   1.00
O347   O     0.60119   0.52512   0.21806   0.00000  Uiso   1.00
O348   O     0.40323   0.52293   0.27820   0.00000  Uiso   1.00
O349   O     0.58773   0.48610   0.26768   0.00000  Uiso   1.00
O350   O     0.47133   0.40236   0.23607   0.00000  Uiso   1.00
O351   O     0.53771   0.58860   0.21806   0.00000  Uiso   1.00
Zn352  Zn    0.52577   0.47423   0.28278   0.00000  Uiso   1.00
Zn353  Zn    0.46792   0.45711   0.22258   0.00000  Uiso   1.00
Zn354  Zn    0.54500   0.52997   0.21188   0.00000  Uiso   1.00
Zn355  Zn    0.46131   0.53868   0.28277   0.00000  Uiso   1.00
C356   C     0.71915   0.49322   0.25872   0.00000  Uiso   1.00
C357   C     0.84876   0.44890   0.46262   0.00000  Uiso   1.00
C358   C     0.86955   0.43002   0.48342   0.00000  Uiso   1.00
C359   C     0.94770   0.50688   0.24121   0.00000  Uiso   1.00
C360   C     0.86715   0.44368   0.02267   0.00000  Uiso   1.00
C361   C     0.84236   0.47664   0.04259   0.00000  Uiso   1.00
C362   C     0.88845   0.42354   0.04244   0.00000  Uiso   1.00
C363   C     0.88571   0.43562   0.08205   0.00000  Uiso   1.00
C364   C     0.84404   0.49174   0.08160   0.00000  Uiso   1.00
C365   C     0.99367   0.50951   0.23764   0.00000  Uiso   1.00
C366   C     0.67377   0.49078   0.26209   0.00000  Uiso   1.00
C367   C     0.76631   0.55013   0.42088   0.00000  Uiso   1.00
C368   C     0.84750   0.65546   0.23813   0.00000  Uiso   1.00
C369   C     0.81814   0.34539   0.26203   0.00000  Uiso   1.00
C370   C     0.82256   0.38943   0.25888   0.00000  Uiso   1.00
C371   C     0.84350   0.61099   0.24136   0.00000  Uiso   1.00
C372   C     0.85474   0.47853   0.14408   0.00000  Uiso   1.00
C373   C     0.81209   0.52106   0.35617   0.00000  Uiso   1.00
C374   C     0.80016   0.52693   0.39942   0.00000  Uiso   1.00
C375   C     0.86279   0.46920   0.10166   0.00000  Uiso   1.00
C376   C     0.75385   0.55322   0.46182   0.00000  Uiso   1.00
C377   C     0.85978   0.56219   0.08895   0.00000  Uiso   1.00
C378   C     0.82127   0.50698   0.41941   0.00000  Uiso   1.00
C379   C     0.94746   0.42832   0.09624   0.00000  Uiso   1.00
C380   C     0.81227   0.40182   0.42700   0.00000  Uiso   1.00
C381   C     0.80689   0.50672   0.46048   0.00000  Uiso   1.00
C382   C     0.77408   0.53202   0.48176   0.00000  Uiso   1.00
C383   C     0.82527   0.48340   0.48113   0.00000  Uiso   1.00
C384   C     0.81763   0.49335   0.02255   0.00000  Uiso   1.00
C385   C     0.78340   0.51722   0.04279   0.00000  Uiso   1.00
C386   C     0.76169   0.53574   0.02268   0.00000  Uiso   1.00
H387   H     0.73560   0.55378   0.03931   0.00000  Uiso   1.00
H388   H     0.98476   0.47349   0.28499   0.00000  Uiso   1.00
H389   H     0.86688   0.56466   0.05690   0.00000  Uiso   1.00
H390   H     0.89000   0.55954   0.09664   0.00000  Uiso   1.00
H391   H     0.84733   0.59162   0.10488   0.00000  Uiso   1.00
H392   H     0.95168   0.46209   0.10720   0.00000  Uiso   1.00
H393   H     0.96574   0.42304   0.06471   0.00000  Uiso   1.00
H394   H     0.96154   0.41100   0.11319   0.00000  Uiso   1.00
H395   H     0.84981   0.49290   0.40244   0.00000  Uiso   1.00
H396   H     0.78217   0.41727   0.43911   0.00000  Uiso   1.00
H397   H     0.81188   0.37617   0.44467   0.00000  Uiso   1.00
H398   H     0.90627   0.39752   0.02747   0.00000  Uiso   1.00
H399   H     0.81276   0.38751   0.39676   0.00000  Uiso   1.00
H400   H     0.68335   0.52675   0.21502   0.00000  Uiso   1.00
H401   H     0.87463   0.33607   0.21614   0.00000  Uiso   1.00
H402   H     0.79062   0.66555   0.28408   0.00000  Uiso   1.00
H403   H     0.88730   0.40389   0.46864   0.00000  Uiso   1.00
H404   H     0.72817   0.57198   0.47791   0.00000  Uiso   1.00
H405   H     0.74951   0.56590   0.40607   0.00000  Uiso   1.00
H406   H     0.77105   0.52008   0.07437   0.00000  Uiso   1.00
O407   O     0.83333   0.50000   0.25000   0.00000  Uiso   1.00
O408   O     0.82360   0.45726   0.16625   0.00000  Uiso   1.00
O409   O     0.79354   0.53979   0.33749   0.00000  Uiso   1.00
O410   O     0.87755   0.50826   0.15877   0.00000  Uiso   1.00
O411   O     0.83865   0.49468   0.33749   0.00000  Uiso   1.00
O412   O     0.82801   0.52849   0.10073   0.00000  Uiso   1.00
O413   O     0.90343   0.41304   0.10220   0.00000  Uiso   1.00
O414   O     0.84945   0.43088   0.42498   0.00000  Uiso   1.00
O415   O     0.84515   0.41434   0.27821   0.00000  Uiso   1.00
O416   O     0.81247   0.59469   0.26767   0.00000  Uiso   1.00
O417   O     0.74119   0.46584   0.23607   0.00000  Uiso   1.00
O418   O     0.93452   0.52512   0.21806   0.00000  Uiso   1.00
O419   O     0.73656   0.52293   0.27820   0.00000  Uiso   1.00
O420   O     0.92106   0.48610   0.26768   0.00000  Uiso   1.00
O421   O     0.80467   0.40236   0.23607   0.00000  Uiso   1.00
O422   O     0.87104   0.58860   0.21806   0.00000  Uiso   1.00
Zn423  Zn    0.85910   0.47423   0.28278   0.00000  Uiso   1.00
Zn424  Zn    0.80125   0.45711   0.22258   0.00000  Uiso   1.00
Zn425  Zn    0.87833   0.52997   0.21188   0.00000  Uiso   1.00
Zn426  Zn    0.79465   0.53868   0.28277   0.00000  Uiso   1.00
C427   C     0.05248   0.82656   0.25872   0.00000  Uiso   1.00
C428   C     0.18209   0.78223   0.46262   0.00000  Uiso   1.00
C429   C     0.20288   0.76336   0.48342   0.00000  Uiso   1.00
C430   C     0.28103   0.84021   0.24121   0.00000  Uiso   1.00
C431   C     0.20048   0.77702   0.02267   0.00000  Uiso   1.00
C432   C     0.17569   0.80997   0.04259   0.00000  Uiso   1.00
C433   C     0.22178   0.75687   0.04244   0.00000  Uiso   1.00
C434   C     0.21904   0.76895   0.08205   0.00000  Uiso   1.00
C435   C     0.17737   0.82507   0.08160   0.00000  Uiso   1.00
C436   C     0.32700   0.84284   0.23764   0.00000  Uiso   1.00
C437   C     0.00711   0.82411   0.26209   0.00000  Uiso   1.00
C438   C     0.09965   0.88346   0.42088   0.00000  Uiso   1.00
C439   C     0.18084   0.98879   0.23813   0.00000  Uiso   1.00
C440   C     0.15147   0.67872   0.26203   0.00000  Uiso   1.00
C441   C     0.15590   0.72276   0.25888   0.00000  Uiso   1.00
C442   C     0.17683   0.94432   0.24136   0.00000  Uiso   1.00
C443   C     0.18808   0.81187   0.14408   0.00000  Uiso   1.00
C444   C     0.14543   0.85439   0.35617   0.00000  Uiso   1.00
C445   C     0.13349   0.86027   0.39942   0.00000  Uiso   1.00
C446   C     0.19613   0.80254   0.10166   0.00000  Uiso   1.00
C447   C     0.08718   0.88656   0.46182   0.00000  Uiso   1.00
C448   C     0.19312   0.89552   0.08895   0.00000  Uiso   1.00
C449   C     0.15460   0.84031   0.41941   0.00000  Uiso   1.00
C450   C     0.28080   0.76165   0.09624   0.00000  Uiso   1.00
C451   C     0.14560   0.73515   0.42700   0.00000  Uiso   1.00
C452   C     0.14022   0.84006   0.46048   0.00000  Uiso   1.00
C453   C     0.10741   0.86536   0.48176   0.00000  Uiso   1.00
C454   C     0.15861   0.81673   0.48113   0.00000  Uiso   1.00
C455   C     0.15096   0.82668   0.02255   0.00000  Uiso   1.00
C456   C     0.11674   0.85055   0.04279   0.00000  Uiso   1.00
C457   C     0.09502   0.86908   0.02268   0.00000  Uiso   1.00
H458   H     0.06893   0.88712   0.03931   0.00000  Uiso   1.00
H459   H     0.31809   0.80683   0.28499   0.00000  Uiso   1.00
H460   H     0.20021   0.89799   0.05690   0.00000  Uiso   1.00
H461   H     0.22334   0.89287   0.09664   0.00000  Uiso   1.00
H462   H     0.18067   0.92496   0.10488   0.00000  Uiso   1.00
H463   H     0.28501   0.79542   0.10720   0.00000  Uiso   1.00
H464   H     0.29907   0.75638   0.06471   0.00000  Uiso   1.00
H465   H     0.29487   0.74433   0.11319   0.00000  Uiso   1.00
H466   H     0.18314   0.82624   0.40244   0.00000  Uiso   1.00
H467   H     0.11551   0.75060   0.43911   0.00000  Uiso   1.00
H468   H     0.14522   0.70951   0.44467   0.00000  Uiso   1.00
H469   H     0.23960   0.73086   0.02747   0.00000  Uiso   1.00
H470   H     0.14610   0.72084   0.39676   0.00000  Uiso   1.00
H471   H     0.01668   0.86008   0.21502   0.00000  Uiso   1.00
H472   H     0.20796   0.66940   0.21614   0.00000  Uiso   1.00
H473   H     0.12395   0.99888   0.28408   0.00000  Uiso   1.00
H474   H     0.22064   0.73723   0.46864   0.00000  Uiso   1.00
H475   H     0.06150   0.90531   0.47791   0.00000  Uiso   1.00
H476   H     0.08284   0.89923   0.40607   0.00000  Uiso   1.00
H477   H     0.10438   0.85341   0.07437   0.00000  Uiso   1.00
O478   O     0.16667   0.83333   0.25000   0.00000  Uiso   1.00
O479   O     0.15693   0.79060   0.16625   0.00000  Uiso   1.00
O480   O     0.12687   0.87313   0.33749   0.00000  Uiso   1.00
O481   O     0.21088   0.84159   0.15877   0.00000  Uiso   1.00
O482   O     0.17198   0.82802   0.33749   0.00000  Uiso   1.00
O483   O     0.16134   0.86183   0.10073   0.00000  Uiso   1.00
O484   O     0.23676   0.74638   0.10220   0.00000  Uiso   1.00
O485   O     0.18278   0.76421   0.42498   0.00000  Uiso   1.00
O486   O     0.17849   0.74768   0.27821   0.00000  Uiso   1.00
O487   O     0.14581   0.92803   0.26767   0.00000  Uiso   1.00
O488   O     0.07452   0.79917   0.23607   0.00000  Uiso   1.00
O489   O     0.26785   0.85845   0.21806   0.00000  Uiso   1.00
O490   O     0.06990   0.85627   0.27820   0.00000  Uiso   1.00
O491   O     0.25440   0.81944   0.26768   0.00000  Uiso   1.00
O492   O     0.13800   0.73570   0.23607   0.00000  Uiso   1.00
O493   O     0.20437   0.92193   0.21806   0.00000  Uiso   1.00
Zn494  Zn    0.19244   0.80756   0.28278   0.00000  Uiso   1.00
Zn495  Zn    0.13459   0.79044   0.22258   0.00000  Uiso   1.00
Zn496  Zn    0.21166   0.86331   0.21188   0.00000  Uiso   1.00
Zn497  Zn    0.12798   0.87202   0.28277   0.00000  Uiso   1.00
C498   C     0.38581   0.82656   0.25872   0.00000  Uiso   1.00
C499   C     0.51542   0.78223   0.46262   0.00000  Uiso   1.00
C500   C     0.53622   0.76336   0.48342   0.00000  Uiso   1.00
C501   C     0.61436   0.84021   0.24121   0.00000  Uiso   1.00
C502   C     0.53381   0.77702   0.02267   0.00000  Uiso   1.00
C503   C     0.50902   0.80997   0.04259   0.00000  Uiso   1.00
C504   C     0.55511   0.75687   0.04244   0.00000  Uiso   1.00
C505   C     0.55237   0.76895   0.08205   0.00000  Uiso   1.00
C506   C     0.51070   0.82507   0.08160   0.00000  Uiso   1.00
C507   C     0.66033   0.84284   0.23764   0.00000  Uiso   1.00
C508   C     0.34044   0.82411   0.26209   0.00000  Uiso   1.00
C509   C     0.43298   0.88346   0.42088   0.00000  Uiso   1.00
C510   C     0.51417   0.98879   0.23813   0.00000  Uiso   1.00
C511   C     0.48481   0.67872   0.26203   0.00000  Uiso   1.00
C512   C     0.48923   0.72276   0.25888   0.00000  Uiso   1.00
C513   C     0.51016   0.94432   0.24136   0.00000  Uiso   1.00
C514   C     0.52141   0.81187   0.14408   0.00000  Uiso   1.00
C515   C     0.47876   0.85439   0.35617   0.00000  Uiso   1.00
C516   C     0.46683   0.86027   0.39942   0.00000  Uiso   1.00
C517   C     0.52946   0.80254   0.10166   0.00000  Uiso   1.00
C518   C     0.42051   0.88656   0.46182   0.00000  Uiso   1.00
C519   C     0.52645   0.89552   0.08895   0.00000  Uiso   1.00
C520   C     0.48794   0.84031   0.41941   0.00000  Uiso   1.00
C521   C     0.61413   0.76165   0.09624   0.00000  Uiso   1.00
C522   C     0.47894   0.73515   0.42700   0.00000  Uiso   1.00
C523   C     0.47355   0.84006   0.46048   0.00000  Uiso   1.00
C524   C     0.44074   0.86536   0.48176   0.00000  Uiso   1.00
C525   C     0.49194   0.81673   0.48113   0.00000  Uiso   1.00
C526   C     0.48430   0.82668   0.02255   0.00000  Uiso   1.00
C527   C     0.45007   0.85055   0.04279   0.00000  Uiso   1.00
C528   C     0.42835   0.86908   0.02268   0.00000  Uiso   1.00
H529   H     0.40226   0.88712   0.03931   0.00000  Uiso   1.00
H530   H     0.65142   0.80683   0.28499   0.00000  Uiso   1.00
H531   H     0.53355   0.89799   0.05690   0.00000  Uiso   1.00
H532   H     0.55667   0.89287   0.09664   0.00000  Uiso   1.00
H533   H     0.51400   0.92496   0.10488   0.00000  Uiso   1.00
H534   H     0.61834   0.79542   0.10720   0.00000  Uiso   1.00
H535   H     0.63240   0.75638   0.06471   0.00000  Uiso   1.00
H536   H     0.62821   0.74433   0.11319   0.00000  Uiso   1.00
H537   H     0.51647   0.82624   0.40244   0.00000  Uiso   1.00
H538   H     0.44884   0.75060   0.43911   0.00000  Uiso   1.00
H539   H     0.47855   0.70951   0.44467   0.00000  Uiso   1.00
H540   H     0.57293   0.73086   0.02747   0.00000  Uiso   1.00
H541   H     0.47943   0.72084   0.39676   0.00000  Uiso   1.00
H542   H     0.35002   0.86008   0.21502   0.00000  Uiso   1.00
H543   H     0.54129   0.66940   0.21614   0.00000  Uiso   1.00
H544   H     0.45729   0.99888   0.28408   0.00000  Uiso   1.00
H545   H     0.55397   0.73723   0.46864   0.00000  Uiso   1.00
H546   H     0.39483   0.90531   0.47791   0.00000  Uiso   1.00
H547   H     0.41617   0.89923   0.40607   0.00000  Uiso   1.00
H548   H     0.43771   0.85341   0.07437   0.00000  Uiso   1.00
O549   O     0.50000   0.83333   0.25000   0.00000  Uiso   1.00
O550   O     0.49027   0.79060   0.16625   0.00000  Uiso   1.00
O551   O     0.46020   0.87313   0.33749   0.00000  Uiso   1.00
O552   O     0.54421   0.84159   0.15877   0.00000  Uiso   1.00
O553   O     0.50532   0.82802   0.33749   0.00000  Uiso   1.00
O554   O     0.49467   0.86183   0.10073   0.00000  Uiso   1.00
O555   O     0.57009   0.74638   0.10220   0.00000  Uiso   1.00
O556   O     0.51611   0.76421   0.42498   0.00000  Uiso   1.00
O557   O     0.51182   0.74768   0.27821   0.00000  Uiso   1.00
O558   O     0.47914   0.92803   0.26767   0.00000  Uiso   1.00
O559   O     0.40785   0.79917   0.23607   0.00000  Uiso   1.00
O560   O     0.60119   0.85845   0.21806   0.00000  Uiso   1.00
O561   O     0.40323   0.85627   0.27820   0.00000  Uiso   1.00
O562   O     0.58773   0.81944   0.26768   0.00000  Uiso   1.00
O563   O     0.47133   0.73570   0.23607   0.00000  Uiso   1.00
O564   O     0.53771   0.92193   0.21806   0.00000  Uiso   1.00
Zn565  Zn    0.52577   0.80756   0.28278   0.00000  Uiso   1.00
Zn566  Zn    0.46792   0.79044   0.22258   0.00000  Uiso   1.00
Zn567  Zn    0.54500   0.86331   0.21188   0.00000  Uiso   1.00
Zn568  Zn    0.46131   0.87202   0.28277   0.00000  Uiso   1.00
C569   C     0.71915   0.82656   0.25872   0.00000  Uiso   1.00
C570   C     0.84876   0.78223   0.46262   0.00000  Uiso   1.00
C571   C     0.86955   0.76336   0.48342   0.00000  Uiso   1.00
C572   C     0.94770   0.84021   0.24121   0.00000  Uiso   1.00
C573   C     0.86715   0.77702   0.02267   0.00000  Uiso   1.00
C574   C     0.84236   0.80997   0.04259   0.00000  Uiso   1.00
C575   C     0.88845   0.75687   0.04244   0.00000  Uiso   1.00
C576   C     0.88571   0.76895   0.08205   0.00000  Uiso   1.00
C577   C     0.84404   0.82507   0.08160   0.00000  Uiso   1.00
C578   C     0.99367   0.84284   0.23764   0.00000  Uiso   1.00
C579   C     0.67377   0.82411   0.26209   0.00000  Uiso   1.00
C580   C     0.76631   0.88346   0.42088   0.00000  Uiso   1.00
C581   C     0.84750   0.98879   0.23813   0.00000  Uiso   1.00
C582   C     0.81814   0.67872   0.26203   0.00000  Uiso   1.00
C583   C     0.82256   0.72276   0.25888   0.00000  Uiso   1.00
C584   C     0.84350   0.94432   0.24136   0.00000  Uiso   1.00
C585   C     0.85474   0.81187   0.14408   0.00000  Uiso   1.00
C586   C     0.81209   0.85439   0.35617   0.00000  Uiso   1.00
C587   C     0.80016   0.86027   0.39942   0.00000  Uiso   1.00
C588   C     0.86279   0.80254   0.10166   0.00000  Uiso   1.00
C589   C     0.75385   0.88656   0.46182   0.00000  Uiso   1.00
C590   C     0.85978   0.89552   0.08895   0.00000  Uiso   1.00
C591   C     0.82127   0.84031   0.41941   0.00000  Uiso   1.00
C592   C     0.94746   0.76165   0.09624   0.00000  Uiso   1.00
C593   C     0.81227   0.73515   0.42700   0.00000  Uiso   1.00
C594   C     0.80689   0.84006   0.46048   0.00000  Uiso   1.00
C595   C     0.77408   0.86536   0.48176   0.00000  Uiso   1.00
C596   C     0.82527   0.81673   0.48113   0.00000  Uiso   1.00
C597   C     0.81763   0.82668   0.02255   0.00000  Uiso   1.00
C598   C     0.78340   0.85055   0.04279   0.00000  Uiso   1.00
C599   C     0.76169   0.86908   0.02268   0.00000  Uiso   1.00
H600   H     0.73560   0.88712   0.03931   0.00000  Uiso   1.00
H601   H     0.98476   0.80683   0.28499   0.00000  Uiso   1.00
H602   H     0.86688   0.89799   0.05690   0.00000  Uiso   1.00
H603   H     0.89000   0.89287   0.09664   0.00000  Uiso   1.00
H604   H     0.84733   0.92496   0.10488   0.00000  Uiso   1.00
H605   H     0.95168   0.79542   0.10720   0.00000  Uiso   1.00
H606   H     0.96574   0.75638   0.06471   0.00000  Uiso   1.00
H607   H     0.96154   0.74433   0.11319   0.00000  Uiso   1.00
H608   H     0.84981   0.82624   0.40244   0.00000  Uiso   1.00
H609   H     0.78217   0.75060   0.43911   0.00000  Uiso   1.00
H610   H     0.81188   0.70951   0.44467   0.00000  Uiso   1.00
H611   H     0.90627   0.73086   0.02747   0.00000  Uiso   1.00
H612   H     0.81276   0.72084   0.39676   0.00000  Uiso   1.00
H613   H     0.68335   0.86008   0.21502   0.00000  Uiso   1.00
H614   H     0.87463   0.66940   0.21614   0.00000  Uiso   1.00
H615   H     0.79062   0.99888   0.28408   0.00000  Uiso   1.00
H616   H     0.88730   0.73723   0.46864   0.00000  Uiso   1.00
H617   H     0.72817   0.90531   0.47791   0.00000  Uiso   1.00
H618   H     0.74951   0.89923   0.40607   0.00000  Uiso   1.00
H619   H     0.77105   0.85341   0.07437   0.00000  Uiso   1.00
O620   O     0.83333   0.83333   0.25000   0.00000  Uiso   1.00
O621   O     0.82360   0.79060   0.16625   0.00000  Uiso   1.00
O622   O     0.79354   0.87313   0.33749   0.00000  Uiso   1.00
O623   O     0.87755   0.84159   0.15877   0.00000  Uiso   1.00
O624   O     0.83865   0.82802   0.33749   0.00000  Uiso   1.00
O625   O     0.82801   0.86183   0.10073   0.00000  Uiso   1.00
O626   O     0.90343   0.74638   0.10220   0.00000  Uiso   1.00
O627   O     0.84945   0.76421   0.42498   0.00000  Uiso   1.00
O628   O     0.84515   0.74768   0.27821   0.00000  Uiso   1.00
O629   O     0.81247   0.92803   0.26767   0.00000  Uiso   1.00
O630   O     0.74119   0.79917   0.23607   0.00000  Uiso   1.00
O631   O     0.93452   0.85845   0.21806   0.00000  Uiso   1.00
O632   O     0.73656   0.85627   0.27820   0.00000  Uiso   1.00
O633   O     0.92106   0.81944   0.26768   0.00000  Uiso   1.00
O634   O     0.80467   0.73570   0.23607   0.00000  Uiso   1.00
O635   O     0.87104   0.92193   0.21806   0.00000  Uiso   1.00
Zn636  Zn    0.85910   0.80756   0.28278   0.00000  Uiso   1.00
Zn637  Zn    0.80125   0.79044   0.22258   0.00000  Uiso   1.00
Zn638  Zn    0.87833   0.86331   0.21188   0.00000  Uiso   1.00
Zn639  Zn    0.79465   0.87202   0.28277   0.00000  Uiso   1.00
C640   C     0.05248   0.15989   0.75872   0.00000  Uiso   1.00
C641   C     0.18209   0.11557   0.96262   0.00000  Uiso   1.00
C642   C     0.20288   0.09669   0.98342   0.00000  Uiso   1.00
C643   C     0.28103   0.17354   0.74121   0.00000  Uiso   1.00
C644   C     0.20048   0.11035   0.52267   0.00000  Uiso   1.00
C645   C     0.17569   0.14331   0.54259   0.00000  Uiso   1.00
C646   C     0.22178   0.09021   0.54244   0.00000  Uiso   1.00
C647   C     0.21904   0.10228   0.58205   0.00000  Uiso   1.00
C648   C     0.17737   0.15840   0.58160   0.00000  Uiso   1.00
C649   C     0.32700   0.17618   0.73764   0.00000  Uiso   1.00
C650   C     0.00711   0.15745   0.76209   0.00000  Uiso   1.00
C651   C     0.09965   0.21680   0.92088   0.00000  Uiso   1.00
C652   C     0.18084   0.32213   0.73813   0.00000  Uiso   1.00
C653   C     0.15147   0.01206   0.76203   0.00000  Uiso   1.00
C654   C     0.15590   0.05609   0.75888   0.00000  Uiso   1.00
C655   C     0.17683   0.27765   0.74136   0.00000  Uiso   1.00
C656   C     0.18808   0.14520   0.64408   0.00000  Uiso   1.00
C657   C     0.14543   0.18773   0.85617   0.00000  Uiso   1.00
C658   C     0.13349   0.19360   0.89942   0.00000  Uiso   1.00
C659   C     0.19613   0.13587   0.60166   0.00000  Uiso   1.00
C660   C     0.08718   0.21989   0.96182   0.00000  Uiso   1.00
C661   C     0.19312   0.22886   0.58895   0.00000  Uiso   1.00
C662   C     0.15460   0.17365   0.91941   0.00000  Uiso   1.00
C663   C     0.28080   0.09498   0.59624   0.00000  Uiso   1.00
C664   C     0.14560   0.06848   0.92700   0.00000  Uiso   1.00
C665   C     0.14022   0.17339   0.96048   0.00000  Uiso   1.00
C666   C     0.10741   0.19869   0.98176   0.00000  Uiso   1.00
C667   C     0.15861   0.15006   0.98113   0.00000  Uiso   1.00
C668   C     0.15096   0.16001   0.52255   0.00000  Uiso   1.00
C669   C     0.11674   0.18388   0.54279   0.00000  Uiso   1.00
C670   C     0.09502   0.20241   0.52268   0.00000  Uiso   1.00
H671   H     0.06893   0.22045   0.53931   0.00000  Uiso   1.00
H672   H     0.31809   0.14016   0.78499   0.00000  Uiso   1.00
H673   H     0.20021   0.23132   0.55690   0.00000  Uiso   1.00
H674   H     0.22334   0.22621   0.59664   0.00000  Uiso   1.00
H675   H     0.18067   0.25829   0.60488   0.00000  Uiso   1.00
H676   H     0.28501   0.12875   0.60720   0.00000  Uiso   1.00
H677   H     0.29907   0.08971   0.56471   0.00000  Uiso   1.00
H678   H     0.29487   0.07767   0.61319   0.00000  Uiso   1.00
H679   H     0.18314   0.15957   0.90244   0.00000  Uiso   1.00
H680   H     0.11551   0.08394   0.93911   0.00000  Uiso   1.00
H681   H     0.14522   0.04284   0.94467   0.00000  Uiso   1.00
H682   H     0.23960   0.06419   0.52747   0.00000  Uiso   1.00
H683   H     0.14610   0.05417   0.89676   0.00000  Uiso   1.00
H684   H     0.01668   0.19342   0.71502   0.00000  Uiso   1.00
H685   H     0.20796   0.00273   0.71614   0.00000  Uiso   1.00
H686   H     0.12395   0.33222   0.78408   0.00000  Uiso   1.00
H687   H     0.22064   0.07056   0.96864   0.00000  Uiso   1.00
H688   H     0.06150   0.23864   0.97791   0.00000  Uiso   1.00
H689   H     0.08284   0.23256   0.90607   0.00000  Uiso   1.00
H690   H     0.10438   0.18674   0.57437   0.00000  Uiso   1.00
O691   O     0.16667   0.16667   0.75000   0.00000  Uiso   1.00
O692   O     0.15693   0.12393   0.66625   0.00000  Uiso   1.00
O693   O     0.12687   0.20646   0.83749   0.00000  Uiso   1.00
O694   O     0.21088   0.17493   0.65877   0.00000  Uiso   1.00
O695   O     0.17198   0.16135   0.83749   0.00000  Uiso   1.00
O696   O     0.16134   0.19516   0.60073   0.00000  Uiso   1.00
O697   O     0.23676   0.07971   0.60220   0.00000  Uiso   1.00
O698   O     0.18278   0.09755   0.92498   0.00000  Uiso   1.00
O699   O     0.17849   0.08101   0.77821   0.00000  Uiso   1.00
O700   O     0.14581   0.26136   0.76767   0.00000  Uiso   1.00
O701   O     0.07452   0.13251   0.73607   0.00000  Uiso   1.00
O702   O     0.26785   0.19179   0.71806   0.00000  Uiso   1.00
O703   O     0.06990   0.18960   0.77820   0.00000  Uiso   1.00
O704   O     0.25440   0.15277   0.76768   0.00000  Uiso   1.00
O705   O     0.13800   0.06903   0.73607   0.00000  Uiso   1.00
O706   O     0.20437   0.25527   0.71806   0.00000  Uiso   1.00
Zn707  Zn    0.19244   0.14090   0.78278   0.00000  Uiso   1.00
Zn708  Zn    0.13459   0.12378   0.72258   0.00000  Uiso   1.00
Zn709  Zn    0.21166   0.19664   0.71188   0.00000  Uiso   1.00
Zn710  Zn    0.12798   0.20535   0.78277   0.00000  Uiso   1.00
C711   C     0.38581   0.15989   0.75872   0.00000  Uiso   1.00
C712   C     0.51542   0.11557   0.96262   0.00000  Uiso   1.00
C713   C     0.53622   0.09669   0.98342   0.00000  Uiso   1.00
C714   C     0.61436   0.17354   0.74121   0.00000  Uiso   1.00
C715   C     0.53381   0.11035   0.52267   0.00000  Uiso   1.00
C716   C     0.50902   0.14331   0.54259   0.00000  Uiso   1.00
C717   C     0.55511   0.09021   0.54244   0.00000  Uiso   1.00
C718   C     0.55237   0.10228   0.58205   0.00000  Uiso   1.00
C719   C     0.51070   0.15840   0.58160   0.00000  Uiso   1.00
C720   C     0.66033   0.17618   0.73764   0.00000  Uiso   1.00
C721   C     0.34044   0.15745   0.76209   0.00000  Uiso   1.00
C722   C     0.43298   0.21680   0.92088   0.00000  Uiso   1.00
C723   C     0.51417   0.32213   0.73813   0.00000  Uiso   1.00
C724   C     0.48481   0.01206   0.76203   0.00000  Uiso   1.00
C725   C     0.48923   0.05609   0.75888   0.00000  Uiso   1.00
C726   C     0.51016   0.27765   0.74136   0.00000  Uiso   1.00
C727   C     0.52141   0.14520   0.64408   0.00000  Uiso   1.00
C728   C     0.47876   0.18773   0.85617   0.00000  Uiso   1.00
C729   C     0.46683   0.19360   0.89942   0.00000  Uiso   1.00
C730   C     0.52946   0.13587   0.60166   0.00000  Uiso   1.00
C731   C     0.42051   0.21989   0.96182   0.00000  Uiso   1.00
C732   C     0.52645   0.22886   0.58895   0.00000  Uiso   1.00
C733   C     0.48794   0.17365   0.91941   0.00000  Uiso   1.00
C734   C     0.61413   0.09498   0.59624   0.00000  Uiso   1.00
C735   C     0.47894   0.06848   0.92700   0.00000  Uiso   1.00
C736   C     0.47355   0.17339   0.96048   0.00000  Uiso   1.00
C737   C     0.44074   0.19869   0.98176   0.00000  Uiso   1.00
C738   C     0.49194   0.15006   0.98113   0.00000  Uiso   1.00
C739   C     0.48430   0.16001   0.52255   0.00000  Uiso   1.00
C740   C     0.45007   0.18388   0.54279   0.00000  Uiso   1.00
C741   C     0.42835   0.20241   0.52268   0.00000  Uiso   1.00
H742   H     0.40226   0.22045   0.53931   0.00000  Uiso   1.00
H743   H     0.65142   0.14016   0.78499   0.00000  Uiso   1.00
H744   H     0.53355   0.23132   0.55690   0.00000  Uiso   1.00
H745   H     0.55667   0.22621   0.59664   0.00000  Uiso   1.00
H746   H     0.51400   0.25829   0.60488   0.00000  Uiso   1.00
H747   H     0.61834   0.12875   0.60720   0.00000  Uiso   1.00
H748   H     0.63240   0.08971   0.56471   0.00000  Uiso   1.00
H749   H     0.62821   0.07767   0.61319   0.00000  Uiso   1.00
H750   H     0.51647   0.15957   0.90244   0.00000  Uiso   1.00
H751   H     0.44884   0.08394   0.93911   0.00000  Uiso   1.00
H752   H     0.47855   0.04284   0.94467   0.00000  Uiso   1.00
H753   H     0.57293   0.06419   0.52747   0.00000  Uiso   1.00
H754   H     0.47943   0.05417   0.89676   0.00000  Uiso   1.00
H755   H     0.35002   0.19342   0.71502   0.00000  Uiso   1.00
H756   H     0.54129   0.00273   0.71614   0.00000  Uiso   1.00
H757   H     0.45729   0.33222   0.78408   0.00000  Uiso   1.00
H758   H     0.55397   0.07056   0.96864   0.00000  Uiso   1.00
H759   H     0.39483   0.23864   0.97791   0.00000  Uiso   1.00
H760   H     0.41617   0.23256   0.90607   0.00000  Uiso   1.00
H761   H     0.43771   0.18674   0.57437   0.00000  Uiso   1.00
O762   O     0.50000   0.16667   0.75000   0.00000  Uiso   1.00
O763   O     0.49027   0.12393   0.66625   0.00000  Uiso   1.00
O764   O     0.46020   0.20646   0.83749   0.00000  Uiso   1.00
O765   O     0.54421   0.17493   0.65877   0.00000  Uiso   1.00
O766   O     0.50532   0.16135   0.83749   0.00000  Uiso   1.00
O767   O     0.49467   0.19516   0.60073   0.00000  Uiso   1.00
O768   O     0.57009   0.07971   0.60220   0.00000  Uiso   1.00
O769   O     0.51611   0.09755   0.92498   0.00000  Uiso   1.00
O770   O     0.51182   0.08101   0.77821   0.00000  Uiso   1.00
O771   O     0.47914   0.26136   0.76767   0.00000  Uiso   1.00
O772   O     0.40785   0.13251   0.73607   0.00000  Uiso   1.00
O773   O     0.60119   0.19179   0.71806   0.00000  Uiso   1.00
O774   O     0.40323   0.18960   0.77820   0.00000  Uiso   1.00
O775   O     0.58773   0.15277   0.76768   0.00000  Uiso   1.00
O776   O     0.47133   0.06903   0.73607   0.00000  Uiso   1.00
O777   O     0.53771   0.25527   0.71806   0.00000  Uiso   1.00
Zn778  Zn    0.52577   0.14090   0.78278   0.00000  Uiso   1.00
Zn779  Zn    0.46792   0.12378   0.72258   0.00000  Uiso   1.00
Zn780  Zn    0.54500   0.19664   0.71188   0.00000  Uiso   1.00
Zn781  Zn    0.46131   0.20535   0.78277   0.00000  Uiso   1.00
C782   C     0.71915   0.15989   0.75872   0.00000  Uiso   1.00
C783   C     0.84876   0.11557   0.96262   0.00000  Uiso   1.00
C784   C     0.86955   0.09669   0.98342   0.00000  Uiso   1.00
C785   C     0.94770   0.17354   0.74121   0.00000  Uiso   1.00
C786   C     0.86715   0.11035   0.52267   0.00000  Uiso   1.00
C787   C     0.84236   0.14331   0.54259   0.00000  Uiso   1.00
C788   C     0.88845   0.09021   0.54244   0.00000  Uiso   1.00
C789   C     0.88571   0.10228   0.58205   0.00000  Uiso   1.00
C790   C     0.84404   0.15840   0.58160   0.00000  Uiso   1.00
C791   C     0.99367   0.17618   0.73764   0.00000  Uiso   1.00
C792   C     0.67377   0.15745   0.76209   0.00000  Uiso   1.00
C793   C     0.76631   0.21680   0.92088   0.00000  Uiso   1.00
C794   C     0.84750   0.32213   0.73813   0.00000  Uiso   1.00
C795   C     0.81814   0.01206   0.76203   0.00000  Uiso   1.00
C796   C     0.82256   0.05609   0.75888   0.00000  Uiso   1.00
C797   C     0.84350   0.27765   0.74136   0.00000  Uiso   1.00
C798   C     0.85474   0.14520   0.64408   0.00000  Uiso   1.00
C799   C     0.81209   0.18773   0.85617   0.00000  Uiso   1.00
C800   C     0.80016   0.19360   0.89942   0.00000  Uiso   1.00
C801   C     0.86279   0.13587   0.60166   0.00000  Uiso   1.00
C802   C     0.75385   0.21989   0.96182   0.00000  Uiso   1.00
C803   C     0.85978   0.22886   0.58895   0.00000  Uiso   1.00
C804   C     0.82127   0.17365   0.91941   0.00000  Uiso   1.00
C805   C     0.94746   0.09498   0.59624   0.00000  Uiso   1.00
C806   C     0.81227   0.06848   0.92700   0.00000  Uiso   1.00
C807   C     0.80689   0.17339   0.96048   0.00000  Uiso   1.00
C808   C     0.77408   0.19869   0.98176   0.00000  Uiso   1.00
C809   C     0.82527   0.15006   0.98113   0.00000  Uiso   1.00
C810   C     0.81763   0.16001   0.52255   0.00000  Uiso   1.00
C811   C     0.78340   0.18388   0.54279   0.00000  Uiso   1.00
C812   C     0.76169   0.20241   0.52268   0.00000  Uiso   1.00
H813   H     0.73560   0.22045   0.53931   0.00000  Uiso   1.00
H814   H     0.98476   0.14016   0.78499   0.00000  Uiso   1.00
H815   H     0.86688   0.23132   0.55690   0.00000  Uiso   1.00
H816   H     0.89000   0.22621   0.59664   0.00000  Uiso   1.00
H817   H     0.84733   0.25829   0.60488   0.00000  Uiso   1.00
H818   H     0.95168   0.12875   0.60720   0.00000  Uiso   1.00
H819   H     0.96574   0.08971   0.56471   0.00000  Uiso   1.00
H820   H     0.96154   0.07767   0.61319   0.00000  Uiso   1.00
H821   H     0.84981   0.15957   0.90244   0.00000  Uiso   1.00
H822   H     0.78217   0.08394   0.93911   0.00000  Uiso   1.00
H823   H     0.81188   0.04284   0.94467   0.00000  Uiso   1.00
H824   H     0.90627   0.06419   0.52747   0.00000  Uiso   1.00
H825   H     0.81276   0.05417   0.89676   0.00000  Uiso   1.00
H826   H     0.68335   0.19342   0.71502   0.00000  Uiso   1.00
H827   H     0.87463   0.00273   0.71614   0.00000  Uiso   1.00
H828   H     0.79062   0.33222   0.78408   0.00000  Uiso   1.00
H829   H     0.88730   0.07056   0.96864   0.00000  Uiso   1.00
H830   H     0.72817   0.23864   0.97791   0.00000  Uiso   1.00
H831   H     0.74951   0.23256   0.90607   0.00000  Uiso   1.00
H832   H     0.77105   0.18674   0.57437   0.00000  Uiso   1.00
O833   O     0.83333   0.16667   0.75000   0.00000  Uiso   1.00
O834   O     0.82360   0.12393   0.66625   0.00000  Uiso   1.00
O835   O     0.79354   0.20646   0.83749   0.00000  Uiso   1.00
O836   O     0.87755   0.17493   0.65877   0.00000  Uiso   1.00
O837   O     0.83865   0.16135   0.83749   0.00000  Uiso   1.00
O838   O     0.82801   0.19516   0.60073   0.00000  Uiso   1.00
O839   O     0.90343   0.07971   0.60220   0.00000  Uiso   1.00
O840   O     0.84945   0.09755   0.92498   0.00000  Uiso   1.00
O841   O     0.84515   0.08101   0.77821   0.00000  Uiso   1.00
O842   O     0.81247   0.26136   0.76767   0.00000  Uiso   1.00
O843   O     0.74119   0.13251   0.73607   0.00000  Uiso   1.00
O844   O     0.93452   0.19179   0.71806   0.00000  Uiso   1.00
O845   O     0.73656   0.18960   0.77820   0.00000  Uiso   1.00
O846   O     0.92106   0.15277   0.76768   0.00000  Uiso   1.00
O847   O     0.80467   0.06903   0.73607   0.00000  Uiso   1.00
O848   O     0.87104   0.25527   0.71806   0.00000  Uiso   1.00
Zn849  Zn    0.85910   0.14090   0.78278   0.00000  Uiso   1.00
Zn850  Zn    0.80125   0.12378   0.72258   0.00000  Uiso   1.00
Zn851  Zn    0.87833   0.19664   0.71188   0.00000  Uiso   1.00
Zn852  Zn    0.79465   0.20535   0.78277   0.00000  Uiso   1.00
C853   C     0.05248   0.49322   0.75872   0.00000  Uiso   1.00
C854   C     0.18209   0.44890   0.96262   0.00000  Uiso   1.00
C855   C     0.20288   0.43002   0.98342   0.00000  Uiso   1.00
C856   C     0.28103   0.50688   0.74121   0.00000  Uiso   1.00
C857   C     0.20048   0.44368   0.52267   0.00000  Uiso   1.00
C858   C     0.17569   0.47664   0.54259   0.00000  Uiso   1.00
C859   C     0.22178   0.42354   0.54244   0.00000  Uiso   1.00
C860   C     0.21904   0.43562   0.58205   0.00000  Uiso   1.00
C861   C     0.17737   0.49174   0.58160   0.00000  Uiso   1.00
C862   C     0.32700   0.50951   0.73764   0.00000  Uiso   1.00
C863   C     0.00711   0.49078   0.76209   0.00000  Uiso   1.00
C864   C     0.09965   0.55013   0.92088   0.00000  Uiso   1.00
C865   C     0.18084   0.65546   0.73813   0.00000  Uiso   1.00
C866   C     0.15147   0.34539   0.76203   0.00000  Uiso   1.00
C867   C     0.15590   0.38943   0.75888   0.00000  Uiso   1.00
C868   C     0.17683   0.61099   0.74136   0.00000  Uiso   1.00
C869   C     0.18808   0.47853   0.64408   0.00000  Uiso   1.00
C870   C     0.14543   0.52106   0.85617   0.00000  Uiso   1.00
C871   C     0.13349   0.52693   0.89942   0.00000  Uiso   1.00
C872   C     0.19613   0.46920   0.60166   0.00000  Uiso   1.00
C873   C     0.08718   0.55322   0.96182   0.00000  Uiso   1.00
C874   C     0.19312   0.56219   0.58895   0.00000  Uiso   1.00
C875   C     0.15460   0.50698   0.91941   0.00000  Uiso   1.00
C876   C     0.28080   0.42832   0.59624   0.00000  Uiso   1.00
C877   C     0.14560   0.40182   0.92700   0.00000  Uiso   1.00
C878   C     0.14022   0.50672   0.96048   0.00000  Uiso   1.00
C879   C     0.10741   0.53202   0.98176   0.00000  Uiso   1.00
C880   C     0.15861   0.48340   0.98113   0.00000  Uiso   1.00
C881   C     0.15096   0.49335   0.52255   0.00000  Uiso   1.00
C882   C     0.11674   0.51722   0.54279   0.00000  Uiso   1.00
C883   C     0.09502   0.53574   0.52268   0.00000  Uiso   1.00
H884   H     0.06893   0.55378   0.53931   0.00000  Uiso   1.00
H885   H     0.31809   0.47349   0.78499   0.00000  Uiso   1.00
H886   H     0.20021   0.56466   0.55690   0.00000  Uiso   1.00
H887   H     0.22334   0.55954   0.59664   0.00000  Uiso   1.00
H888   H     0.18067   0.59162   0.60488   0.00000  Uiso   1.00
H889   H     0.28501   0.46209   0.60720   0.00000  Uiso   1.00
H890   H     0.29907   0.42304   0.56471   0.00000  Uiso   1.00
H891   H     0.29487   0.41100   0.61319   0.00000  Uiso   1.00
H892   H     0.18314   0.49290   0.90244   0.00000  Uiso   1.00
H893   H     0.11551   0.41727   0.93911   0.00000  Uiso   1.00
H894   H     0.14522   0.37617   0.94467   0.00000  Uiso   1.00
H895   H     0.23960   0.39752   0.52747   0.00000  Uiso   1.00
H896   H     0.14610   0.38751   0.89676   0.00000  Uiso   1.00
H897   H     0.01668   0.52675   0.71502   0.00000  Uiso   1.00
H898   H     0.20796   0.33607   0.71614   0.00000  Uiso   1.00
H899   H     0.12395   0.66555   0.78408   0.00000  Uiso   1.00
H900   H     0.22064   0.40389   0.96864   0.00000  Uiso   1.00
H901   H     0.06150   0.57198   0.97791   0.00000  Uiso   1.00
H902   H     0.08284   0.56590   0.90607   0.00000  Uiso   1.00
H903   H     0.10438   0.52008   0.57437   0.00000  Uiso   1.00
O904   O     0.16667   0.50000   0.75000   0.00000  Uiso   1.00
O905   O     0.15693   0.45726   0.66625   0.00000  Uiso   1.00
O906   O     0.12687   0.53979   0.83749   0.00000  Uiso   1.00
O907   O     0.21088   0.50826   0.65877   0.00000  Uiso   1.00
O908   O     0.17198   0.49468   0.83749   0.00000  Uiso   1.00
O909   O     0.16134   0.52849   0.60073   0.00000  Uiso   1.00
O910   O     0.23676   0.41304   0.60220   0.00000  Uiso   1.00
O911   O     0.18278   0.43088   0.92498   0.00000  Uiso   1.00
O912   O     0.17849   0.41434   0.77821   0.00000  Uiso   1.00
O913   O     0.14581   0.59469   0.76767   0.00000  Uiso   1.00
O914   O     0.07452   0.46584   0.73607   0.00000  Uiso   1.00
O915   O     0.26785   0.52512   0.71806   0.00000  Uiso   1.00
O916   O     0.06990   0.52293   0.77820   0.00000  Uiso   1.00
O917   O     0.25440   0.48610   0.76768   0.00000  Uiso   1.00
O918   O     0.13800   0.40236   0.73607   0.00000  Uiso   1.00
O919   O     0.20437   0.58860   0.71806   0.00000  Uiso   1.00
Zn920  Zn    0.19244   0.47423   0.78278   0.00000  Uiso   1.00
Zn921  Zn    0.13459   0.45711   0.72258   0.00000  Uiso   1.00
Zn922  Zn    0.21166   0.52997   0.71188   0.00000  Uiso   1.00
Zn923  Zn    0.12798   0.53868   0.78277   0.00000  Uiso   1.00
C924   C     0.38581   0.49322   0.75872   0.00000  Uiso   1.00
C925   C     0.51542   0.44890   0.96262   0.00000  Uiso   1.00
C926   C     0.53622   0.43002   0.98342   0.00000  Uiso   1.00
C927   C     0.61436   0.50688   0.74121   0.00000  Uiso   1.00
C928   C     0.53381   0.44368   0.52267   0.00000  Uiso   1.00
C929   C     0.50902   0.47664   0.54259   0.00000  Uiso   1.00
C930   C     0.55511   0.42354   0.54244   0.00000  Uiso   1.00
C931   C     0.55237   0.43562   0.58205   0.00000  Uiso   1.00
C932   C     0.51070   0.49174   0.58160   0.00000  Uiso   1.00
C933   C     0.66033   0.50951   0.73764   0.00000  Uiso   1.00
C934   C     0.34044   0.49078   0.76209   0.00000  Uiso   1.00
C935   C     0.43298   0.55013   0.92088   0.00000  Uiso   1.00
C936   C     0.51417   0.65546   0.73813   0.00000  Uiso   1.00
C937   C     0.48481   0.34539   0.76203   0.00000  Uiso   1.00
C938   C     0.48923   0.38943   0.75888   0.00000  Uiso   1.00
C939   C     0.51016   0.61099   0.74136   0.00000  Uiso   1.00
C940   C     0.52141   0.47853   0.64408   0.00000  Uiso   1.00
C941   C     0.47876   0.52106   0.85617   0.00000  Uiso   1.00
C942   C     0.46683   0.52693   0.89942   0.00000  Uiso   1.00
C943   C     0.52946   0.46920   0.60166   0.00000  Uiso   1.00
C944   C     0.42051   0.55322   0.96182   0.00000  Uiso   1.00
C945   C     0.52645   0.56219   0.58895   0.00000  Uiso   1.00
C946   C     0.48794   0.50698   0.91941   0.00000  Uiso   1.00
C947   C     0.61413   0.42832   0.59624   0.00000  Uiso   1.00
C948   C     0.47894   0.40182   0.92700   0.00000  Uiso   1.00
C949   C     0.47355   0.50672   0.96048   0.00000  Uiso   1.00
C950   C     0.44074   0.53202   0.98176   0.00000  Uiso   1.00
C951   C     0.49194   0.48340   0.98113   0.00000  Uiso   1.00
C952   C     0.48430   0.49335   0.52255   0.00000  Uiso   1.00
C953   C     0.45007   0.51722   0.54279   0.00000  Uiso   1.00
C954   C     0.42835   0.53574   0.52268   0.00000  Uiso   1.00
H955   H     0.40226   0.55378   0.53931   0.00000  Uiso   1.00
H956   H     0.65142   0.47349   0.78499   0.00000  Uiso   1.00
H957   H     0.53355   0.56466   0.55690   0.00000  Uiso   1.00
H958   H     0.55667   0.55954   0.59664   0.00000  Uiso   1.00
H959   H     0.51400   0.59162   0.60488   0.00000  Uiso   1.00
H960   H     0.61834   0.46209   0.60720   0.00000  Uiso   1.00
H961   H     0.63240   0.42304   0.56471   0.00000  Uiso   1.00
H962   H     0.62821   0.41100   0.61319   0.00000  Uiso   1.00
H963   H     0.51647   0.49290   0.90244   0.00000  Uiso   1.00
H964   H     0.44884   0.41727   0.93911   0.00000  Uiso   1.00
H965   H     0.47855   0.37617   0.94467   0.00000  Uiso   1.00
H966   H     0.57293   0.39752   0.52747   0.00000  Uiso   1.00
H967   H     0.47943   0.38751   0.89676   0.00000  Uiso   1.00
H968   H     0.35002   0.52675   0.71502   0.00000  Uiso   1.00
H969   H     0.54129   0.33607   0.71614   0.00000  Uiso   1.00
H970   H     0.45729   0.66555   0.78408   0.00000  Uiso   1.00
H971   H     0.55397   0.40389   0.96864   0.00000  Uiso   1.00
H972   H     0.39483   0.57198   0.97791   0.00000  Uiso   1.00
H973   H     0.41617   0.56590   0.90607   0.00000  Uiso   1.00
H974   H     0.43771   0.52008   0.57437   0.00000  Uiso   1.00
O975   O     0.50000   0.50000   0.75000   0.00000  Uiso   1.00
O976   O     0.49027   0.45726   0.66625   0.00000  Uiso   1.00
O977   O     0.46020   0.53979   0.83749   0.00000  Uiso   1.00
O978   O     0.54421   0.50826   0.65877   0.00000  Uiso   1.00
O979   O     0.50532   0.49468   0.83749   0.00000  Uiso   1.00
O980   O     0.49467   0.52849   0.60073   0.00000  Uiso   1.00
O981   O     0.57009   0.41304   0.60220   0.00000  Uiso   1.00
O982   O     0.51611   0.43088   0.92498   0.00000  Uiso   1.00
O983   O     0.51182   0.41434   0.77821   0.00000  Uiso   1.00
O984   O     0.47914   0.59469   0.76767   0.00000  Uiso   1.00
O985   O     0.40785   0.46584   0.73607   0.00000  Uiso   1.00
O986   O     0.60119   0.52512   0.71806   0.00000  Uiso   1.00
O987   O     0.40323   0.52293   0.77820   0.00000  Uiso   1.00
O988   O     0.58773   0.48610   0.76768   0.00000  Uiso   1.00
O989   O     0.47133   0.40236   0.73607   0.00000  Uiso   1.00
O990   O     0.53771   0.58860   0.71806   0.00000  Uiso   1.00
Zn991  Zn    0.52577   0.47423   0.78278   0.00000  Uiso   1.00
Zn992  Zn    0.46792   0.45711   0.72258   0.00000  Uiso   1.00
Zn993  Zn    0.54500   0.52997   0.71188   0.00000  Uiso   1.00
Zn994  Zn    0.46131   0.53868   0.78277   0.00000  Uiso   1.00
C995   C     0.71915   0.49322   0.75872   0.00000  Uiso   1.00
C996   C     0.84876   0.44890   0.96262   0.00000  Uiso   1.00
C997   C     0.86955   0.43002   0.98342   0.00000  Uiso   1.00
C998   C     0.94770   0.50688   0.74121   0.00000  Uiso   1.00
C999   C     0.86715   0.44368   0.52267   0.00000  Uiso   1.00
C1000  C     0.84236   0.47664   0.54259   0.00000  Uiso   1.00
C1001  C     0.88845   0.42354   0.54244   0.00000  Uiso   1.00
C1002  C     0.88571   0.43562   0.58205   0.00000  Uiso   1.00
C1003  C     0.84404   0.49174   0.58160   0.00000  Uiso   1.00
C1004  C     0.99367   0.50951   0.73764   0.00000  Uiso   1.00
C1005  C     0.67377   0.49078   0.76209   0.00000  Uiso   1.00
C1006  C     0.76631   0.55013   0.92088   0.00000  Uiso   1.00
C1007  C     0.84750   0.65546   0.73813   0.00000  Uiso   1.00
C1008  C     0.81814   0.34539   0.76203   0.00000  Uiso   1.00
C1009  C     0.82256   0.38943   0.75888   0.00000  Uiso   1.00
C1010  C     0.84350   0.61099   0.74136   0.00000  Uiso   1.00
C1011  C     0.85474   0.47853   0.64408   0.00000  Uiso   1.00
C1012  C     0.81209   0.52106   0.85617   0.00000  Uiso   1.00
C1013  C     0.80016   0.52693   0.89942   0.00000  Uiso   1.00
C1014  C     0.86279   0.46920   0.60166   0.00000  Uiso   1.00
C1015  C     0.75385   0.55322   0.96182   0.00000  Uiso   1.00
C1016  C     0.85978   0.56219   0.58895   0.00000  Uiso   1.00
C1017  C     0.82127   0.50698   0.91941   0.00000  Uiso   1.00
C1018  C     0.94746   0.42832   0.59624   0.00000  Uiso   1.00
C1019  C     0.81227   0.40182   0.92700   0.00000  Uiso   1.00
C1020  C     0.80689   0.50672   0.96048   0.00000  Uiso   1.00
C1021  C     0.77408   0.53202   0.98176   0.00000  Uiso   1.00
C1022  C     0.82527   0.48340   0.98113   0.00000  Uiso   1.00
C1023  C     0.81763   0.49335   0.52255   0.00000  Uiso   1.00
C1024  C     0.78340   0.51722   0.54279   0.00000  Uiso   1.00
C1025  C     0.76169   0.53574   0.52268   0.00000  Uiso   1.00
H1026  H     0.73560   0.55378   0.53931   0.00000  Uiso   1.00
H1027  H     0.98476   0.47349   0.78499   0.00000  Uiso   1.00
H1028  H     0.86688   0.56466   0.55690   0.00000  Uiso   1.00
H1029  H     0.89000   0.55954   0.59664   0.00000  Uiso   1.00
H1030  H     0.84733   0.59162   0.60488   0.00000  Uiso   1.00
H1031  H     0.95168   0.46209   0.60720   0.00000  Uiso   1.00
H1032  H     0.96574   0.42304   0.56471   0.00000  Uiso   1.00
H1033  H     0.96154   0.41100   0.61319   0.00000  Uiso   1.00
H1034  H     0.84981   0.49290   0.90244   0.00000  Uiso   1.00
H1035  H     0.78217   0.41727   0.93911   0.00000  Uiso   1.00
H1036  H     0.81188   0.37617   0.94467   0.00000  Uiso   1.00
H1037  H     0.90627   0.39752   0.52747   0.00000  Uiso   1.00
H1038  H     0.81276   0.38751   0.89676   0.00000  Uiso   1.00
H1039  H     0.68335   0.52675   0.71502   0.00000  Uiso   1.00
H1040  H     0.87463   0.33607   0.71614   0.00000  Uiso   1.00
H1041  H     0.79062   0.66555   0.78408   0.00000  Uiso   1.00
H1042  H     0.88730   0.40389   0.96864   0.00000  Uiso   1.00
H1043  H     0.72817   0.57198   0.97791   0.00000  Uiso   1.00
H1044  H     0.74951   0.56590   0.90607   0.00000  Uiso   1.00
H1045  H     0.77105   0.52008   0.57437   0.00000  Uiso   1.00
O1046  O     0.83333   0.50000   0.75000   0.00000  Uiso   1.00
O1047  O     0.82360   0.45726   0.66625   0.00000  Uiso   1.00
O1048  O     0.79354   0.53979   0.83749   0.00000  Uiso   1.00
O1049  O     0.87755   0.50826   0.65877   0.00000  Uiso   1.00
O1050  O     0.83865   0.49468   0.83749   0.00000  Uiso   1.00
O1051  O     0.82801   0.52849   0.60073   0.00000  Uiso   1.00
O1052  O     0.90343   0.41304   0.60220   0.00000  Uiso   1.00
O1053  O     0.84945   0.43088   0.92498   0.00000  Uiso   1.00
O1054  O     0.84515   0.41434   0.77821   0.00000  Uiso   1.00
O1055  O     0.81247   0.59469   0.76767   0.00000  Uiso   1.00
O1056  O     0.74119   0.46584   0.73607   0.00000  Uiso   1.00
O1057  O     0.93452   0.52512   0.71806   0.00000  Uiso   1.00
O1058  O     0.73656   0.52293   0.77820   0.00000  Uiso   1.00
O1059  O     0.92106   0.48610   0.76768   0.00000  Uiso   1.00
O1060  O     0.80467   0.40236   0.73607   0.00000  Uiso   1.00
O1061  O     0.87104   0.58860   0.71806   0.00000  Uiso   1.00
Zn1062 Zn    0.85910   0.47423   0.78278   0.00000  Uiso   1.00
Zn1063 Zn    0.80125   0.45711   0.72258   0.00000  Uiso   1.00
Zn1064 Zn    0.87833   0.52997   0.71188   0.00000  Uiso   1.00
Zn1065 Zn    0.79465   0.53868   0.78277   0.00000  Uiso   1.00
C1066  C     0.05248   0.82656   0.75872   0.00000  Uiso   1.00
C1067  C     0.18209   0.78223   0.96262   0.00000  Uiso   1.00
C1068  C     0.20288   0.76336   0.98342   0.00000  Uiso   1.00
C1069  C     0.28103   0.84021   0.74121   0.00000  Uiso   1.00
C1070  C     0.20048   0.77702   0.52267   0.00000  Uiso   1.00
C1071  C     0.17569   0.80997   0.54259   0.00000  Uiso   1.00
C1072  C     0.22178   0.75687   0.54244   0.00000  Uiso   1.00
C1073  C     0.21904   0.76895   0.58205   0.00000  Uiso   1.00
C1074  C     0.17737   0.82507   0.58160   0.00000  Uiso   1.00
C1075  C     0.32700   0.84284   0.73764   0.00000  Uiso   1.00
C1076  C     0.00711   0.82411   0.76209   0.00000  Uiso   1.00
C1077  C     0.09965   0.88346   0.92088   0.00000  Uiso   1.00
C1078  C     0.18084   0.98879   0.73813   0.00000  Uiso   1.00
C1079  C     0.15147   0.67872   0.76203   0.00000  Uiso   1.00
C1080  C     0.15590   0.72276   0.75888   0.00000  Uiso   1.00
C1081  C     0.17683   0.94432   0.74136   0.00000  Uiso   1.00
C1082  C     0.18808   0.81187   0.64408   0.00000  Uiso   1.00
C1083  C     0.14543   0.85439   0.85617   0.00000  Uiso   1.00
C1084  C     0.13349   0.86027   0.89942   0.00000  Uiso   1.00
C1085  C     0.19613   0.80254   0.60166   0.00000  Uiso   1.00
C1086  C     0.08718   0.88656   0.96182   0.00000  Uiso   1.00
C1087  C     0.19312   0.89552   0.58895   0.00000  Uiso   1.00
C1088  C     0.15460   0.84031   0.91941   0.00000  Uiso   1.00
C1089  C     0.28080   0.76165   0.59624   0.00000  Uiso   1.00
C1090  C     0.14560   0.73515   0.92700   0.00000  Uiso   1.00
C1091  C     0.14022   0.84006   0.96048   0.00000  Uiso   1.00
C1092  C     0.10741   0.86536   0.98176   0.00000  Uiso   1.00
C1093  C     0.15861   0.81673   0.98113   0.00000  Uiso   1.00
C1094  C     0.15096   0.82668   0.52255   0.00000  Uiso   1.00
C1095  C     0.11674   0.85055   0.54279   0.00000  Uiso   1.00
C1096  C     0.09502   0.86908   0.52268   0.00000  Uiso   1.00
H1097  H     0.06893   0.88712   0.53931   0.00000  Uiso   1.00
H1098  H     0.31809   0.80683   0.78499   0.00000  Uiso   1.00
H1099  H     0.20021   0.89799   0.55690   0.00000  Uiso   1.00
H1100  H     0.22334   0.89287   0.59664   0.00000  Uiso   1.00
H1101  H     0.18067   0.92496   0.60488   0.00000  Uiso   1.00
H1102  H     0.28501   0.79542   0.60720   0.00000  Uiso   1.00
H1103  H     0.29907   0.75638   0.56471   0.00000  Uiso   1.00
H1104  H     0.29487   0.74433   0.61319   0.00000  Uiso   1.00
H1105  H     0.18314   0.82624   0.90244   0.00000  Uiso   1.00
H1106  H     0.11551   0.75060   0.93911   0.00000  Uiso   1.00
H1107  H     0.14522   0.70951   0.94467   0.00000  Uiso   1.00
H1108  H     0.23960   0.73086   0.52747   0.00000  Uiso   1.00
H1109  H     0.14610   0.72084   0.89676   0.00000  Uiso   1.00
H1110  H     0.01668   0.86008   0.71502   0.00000  Uiso   1.00
H1111  H     0.20796   0.66940   0.71614   0.00000  Uiso   1.00
H1112  H     0.12395   0.99888   0.78408   0.00000  Uiso   1.00
H1113  H     0.22064   0.73723   0.96864   0.00000  Uiso   1.00
H1114  H     0.06150   0.90531   0.97791   0.00000  Uiso   1.00
H1115  H     0.08284   0.89923   0.90607   0.00000  Uiso   1.00
H1116  H     0.10438   0.85341   0.57437   0.00000  Uiso   1.00
O1117  O     0.16667   0.83333   0.75000   0.00000  Uiso   1.00
O1118  O     0.15693   0.79060   0.66625   0.00000  Uiso   1.00
O1119  O     0.12687   0.87313   0.83749   0.00000  Uiso   1.00
O1120  O     0.21088   0.84159   0.65877   0.00000  Uiso   1.00
O1121  O     0.17198   0.82802   0.83749   0.00000  Uiso   1.00
O1122  O     0.16134   0.86183   0.60073   0.00000  Uiso   1.00
O1123  O     0.23676   0.74638   0.60220   0.00000  Uiso   1.00
O1124  O     0.18278   0.76421   0.92498   0.00000  Uiso   1.00
O1125  O     0.17849   0.74768   0.77821   0.00000  Uiso   1.00
O1126  O     0.14581   0.92803   0.76767   0.00000  Uiso   1.00
O1127  O     0.07452   0.79917   0.73607   0.00000  Uiso   1.00
O1128  O     0.26785   0.85845   0.71806   0.00000  Uiso   1.00
O1129  O     0.06990   0.85627   0.77820   0.00000  Uiso   1.00
O1130  O     0.25440   0.81944   0.76768   0.00000  Uiso   1.00
O1131  O     0.13800   0.73570   0.73607   0.00000  Uiso   1.00
O1132  O     0.20437   0.92193   0.71806   0.00000  Uiso   1.00
Zn1133 Zn    0.19244   0.80756   0.78278   0.00000  Uiso   1.00
Zn1134 Zn    0.13459   0.79044   0.72258   0.00000  Uiso   1.00
Zn1135 Zn    0.21166   0.86331   0.71188   0.00000  Uiso   1.00
Zn1136 Zn    0.12798   0.87202   0.78277   0.00000  Uiso   1.00
C1137  C     0.38581   0.82656   0.75872   0.00000  Uiso   1.00
C1138  C     0.51542   0.78223   0.96262   0.00000  Uiso   1.00
C1139  C     0.53622   0.76336   0.98342   0.00000  Uiso   1.00
C1140  C     0.61436   0.84021   0.74121   0.00000  Uiso   1.00
C1141  C     0.53381   0.77702   0.52267   0.00000  Uiso   1.00
C1142  C     0.50902   0.80997   0.54259   0.00000  Uiso   1.00
C1143  C     0.55511   0.75687   0.54244   0.00000  Uiso   1.00
C1144  C     0.55237   0.76895   0.58205   0.00000  Uiso   1.00
C1145  C     0.51070   0.82507   0.58160   0.00000  Uiso   1.00
C1146  C     0.66033   0.84284   0.73764   0.00000  Uiso   1.00
C1147  C     0.34044   0.82411   0.76209   0.00000  Uiso   1.00
C1148  C     0.43298   0.88346   0.92088   0.00000  Uiso   1.00
C1149  C     0.51417   0.98879   0.73813   0.00000  Uiso   1.00
C1150  C     0.48481   0.67872   0.76203   0.00000  Uiso   1.00
C1151  C     0.48923   0.72276   0.75888   0.00000  Uiso   1.00
C1152  C     0.51016   0.94432   0.74136   0.00000  Uiso   1.00
C1153  C     0.52141   0.81187   0.64408   0.00000  Uiso   1.00
C1154  C     0.47876   0.85439   0.85617   0.00000  Uiso   1.00
C1155  C     0.46683   0.86027   0.89942   0.00000  Uiso   1.00
C1156  C     0.52946   0.80254   0.60166   0.00000  Uiso   1.00
C1157  C     0.42051   0.88656   0.96182   0.00000  Uiso   1.00
C1158  C     0.52645   0.89552   0.58895   0.00000  Uiso   1.00
C1159  C     0.48794   0.84031   0.91941   0.00000  Uiso   1.00
C1160  C     0.61413   0.76165   0.59624   0.00000  Uiso   1.00
C1161  C     0.47894   0.73515   0.92700   0.00000  Uiso   1.00
C1162  C     0.47355   0.84006   0.96048   0.00000  Uiso   1.00
C1163  C     0.44074   0.86536   0.98176   0.00000  Uiso   1.00
C1164  C     0.49194   0.81673   0.98113   0.00000  Uiso   1.00
C1165  C     0.48430   0.82668   0.52255   0.00000  Uiso   1.00
C1166  C     0.45007   0.85055   0.54279   0.00000  Uiso   1.00
C1167  C     0.42835   0.86908   0.52268   0.00000  Uiso   1.00
H1168  H     0.40226   0.88712   0.53931   0.00000  Uiso   1.00
H1169  H     0.65142   0.80683   0.78499   0.00000  Uiso   1.00
H1170  H     0.53355   0.89799   0.55690   0.00000  Uiso   1.00
H1171  H     0.55667   0.89287   0.59664   0.00000  Uiso   1.00
H1172  H     0.51400   0.92496   0.60488   0.00000  Uiso   1.00
H1173  H     0.61834   0.79542   0.60720   0.00000  Uiso   1.00
H1174  H     0.63240   0.75638   0.56471   0.00000  Uiso   1.00
H1175  H     0.62821   0.74433   0.61319   0.00000  Uiso   1.00
H1176  H     0.51647   0.82624   0.90244   0.00000  Uiso   1.00
H1177  H     0.44884   0.75060   0.93911   0.00000  Uiso   1.00
H1178  H     0.47855   0.70951   0.94467   0.00000  Uiso   1.00
H1179  H     0.57293   0.73086   0.52747   0.00000  Uiso   1.00
H1180  H     0.47943   0.72084   0.89676   0.00000  Uiso   1.00
H1181  H     0.35002   0.86008   0.71502   0.00000  Uiso   1.00
H1182  H     0.54129   0.66940   0.71614   0.00000  Uiso   1.00
H1183  H     0.45729   0.99888   0.78408   0.00000  Uiso   1.00
H1184  H     0.55397   0.73723   0.96864   0.00000  Uiso   1.00
H1185  H     0.39483   0.90531   0.97791   0.00000  Uiso   1.00
H1186  H     0.41617   0.89923   0.90607   0.00000  Uiso   1.00
H1187  H     0.43771   0.85341   0.57437   0.00000  Uiso   1.00
O1188  O     0.50000   0.83333   0.75000   0.00000  Uiso   1.00
O1189  O     0.49027   0.79060   0.66625   0.00000  Uiso   1.00
O1190  O     0.46020   0.87313   0.83749   0.00000  Uiso   1.00
O1191  O     0.54421   0.84159   0.65877   0.00000  Uiso   1.00
O1192  O     0.50532   0.82802   0.83749   0.00000  Uiso   1.00
O1193  O     0.49467   0.86183   0.60073   0.00000  Uiso   1.00
O1194  O     0.57009   0.74638   0.60220   0.00000  Uiso   1.00
O1195  O     0.51611   0.76421   0.92498   0.00000  Uiso   1.00
O1196  O     0.51182   0.74768   0.77821   0.00000  Uiso   1.00
O1197  O     0.47914   0.92803   0.76767   0.00000  Uiso   1.00
O1198  O     0.40785   0.79917   0.73607   0.00000  Uiso   1.00
O1199  O     0.60119   0.85845   0.71806   0.00000  Uiso   1.00
O1200  O     0.40323   0.85627   0.77820   0.00000  Uiso   1.00
O1201  O     0.58773   0.81944   0.76768   0.00000  Uiso   1.00
O1202  O     0.47133   0.73570   0.73607   0.00000  Uiso   1.00
O1203  O     0.53771   0.92193   0.71806   0.00000  Uiso   1.00
Zn1204 Zn    0.52577   0.80756   0.78278   0.00000  Uiso   1.00
Zn1205 Zn    0.46792   0.79044   0.72258   0.00000  Uiso   1.00
Zn1206 Zn    0.54500   0.86331   0.71188   0.00000  Uiso   1.00
Zn1207 Zn    0.46131   0.87202   0.78277   0.00000  Uiso   1.00
C1208  C     0.71915   0.82656   0.75872   0.00000  Uiso   1.00
C1209  C     0.84876   0.78223   0.96262   0.00000  Uiso   1.00
C1210  C     0.86955   0.76336   0.98342   0.00000  Uiso   1.00
C1211  C     0.94770   0.84021   0.74121   0.00000  Uiso   1.00
C1212  C     0.86715   0.77702   0.52267   0.00000  Uiso   1.00
C1213  C     0.84236   0.80997   0.54259   0.00000  Uiso   1.00
C1214  C     0.88845   0.75687   0.54244   0.00000  Uiso   1.00
C1215  C     0.88571   0.76895   0.58205   0.00000  Uiso   1.00
C1216  C     0.84404   0.82507   0.58160   0.00000  Uiso   1.00
C1217  C     0.99367   0.84284   0.73764   0.00000  Uiso   1.00
C1218  C     0.67377   0.82411   0.76209   0.00000  Uiso   1.00
C1219  C     0.76631   0.88346   0.92088   0.00000  Uiso   1.00
C1220  C     0.84750   0.98879   0.73813   0.00000  Uiso   1.00
C1221  C     0.81814   0.67872   0.76203   0.00000  Uiso   1.00
C1222  C     0.82256   0.72276   0.75888   0.00000  Uiso   1.00
C1223  C     0.84350   0.94432   0.74136   0.00000  Uiso   1.00
C1224  C     0.85474   0.81187   0.64408   0.00000  Uiso   1.00
C1225  C     0.81209   0.85439   0.85617   0.00000  Uiso   1.00
C1226  C     0.80016   0.86027   0.89942   0.00000  Uiso   1.00
C1227  C     0.86279   0.80254   0.60166   0.00000  Uiso   1.00
C1228  C     0.75385   0.88656   0.96182   0.00000  Uiso   1.00
C1229  C     0.85978   0.89552   0.58895   0.00000  Uiso   1.00
C1230  C     0.82127   0.84031   0.91941   0.00000  Uiso   1.00
C1231  C     0.94746   0.76165   0.59624   0.00000  Uiso   1.00
C1232  C     0.81227   0.73515   0.92700   0.00000  Uiso   1.00
C1233  C     0.80689   0.84006   0.96048   0.00000  Uiso   1.00
C1234  C     0.77408   0.86536   0.98176   0.00000  Uiso   1.00
C1235  C     0.82527   0.81673   0.98113   0.00000  Uiso   1.00
C1236  C     0.81763   0.82668   0.52255   0.00000  Uiso   1.00
C1237  C     0.78340   0.85055   0.54279   0.00000  Uiso   1.00
C1238  C     0.76169   0.86908   0.52268   0.00000  Uiso   1.00
H1239  H     0.73560   0.88712   0.53931   0.00000  Uiso   1.00
H1240  H     0.98476   0.80683   0.78499   0.00000  Uiso   1.00
H1241  H     0.86688   0.89799   0.55690   0.00000  Uiso   1.00
H1242  H     0.89000   0.89287   0.59664   0.00000  Uiso   1.00
H1243  H     0.84733   0.92496   0.60488   0.00000  Uiso   1.00
H1244  H     0.95168   0.79542   0.60720   0.00000  Uiso   1.00
H1245  H     0.96574   0.75638   0.56471   0.00000  Uiso   1.00
H1246  H     0.96154   0.74433   0.61319   0.00000  Uiso   1.00
H1247  H     0.84981   0.82624   0.90244   0.00000  Uiso   1.00
H1248  H     0.78217   0.75060   0.93911   0.00000  Uiso   1.00
H1249  H     0.81188   0.70951   0.94467   0.00000  Uiso   1.00
H1250  H     0.90627   0.73086   0.52747   0.00000  Uiso   1.00
H1251  H     0.81276   0.72084   0.89676   0.00000  Uiso   1.00
H1252  H     0.68335   0.86008   0.71502   0.00000  Uiso   1.00
H1253  H     0.87463   0.66940   0.71614   0.00000  Uiso   1.00
H1254  H     0.79062   0.99888   0.78408   0.00000  Uiso   1.00
H1255  H     0.88730   0.73723   0.96864   0.00000  Uiso   1.00
H1256  H     0.72817   0.90531   0.97791   0.00000  Uiso   1.00
H1257  H     0.74951   0.89923   0.90607   0.00000  Uiso   1.00
H1258  H     0.77105   0.85341   0.57437   0.00000  Uiso   1.00
O1259  O     0.83333   0.83333   0.75000   0.00000  Uiso   1.00
O1260  O     0.82360   0.79060   0.66625   0.00000  Uiso   1.00
O1261  O     0.79354   0.87313   0.83749   0.00000  Uiso   1.00
O1262  O     0.87755   0.84159   0.65877   0.00000  Uiso   1.00
O1263  O     0.83865   0.82802   0.83749   0.00000  Uiso   1.00
O1264  O     0.82801   0.86183   0.60073   0.00000  Uiso   1.00
O1265  O     0.90343   0.74638   0.60220   0.00000  Uiso   1.00
O1266  O     0.84945   0.76421   0.92498   0.00000  Uiso   1.00
O1267  O     0.84515   0.74768   0.77821   0.00000  Uiso   1.00
O1268  O     0.81247   0.92803   0.76767   0.00000  Uiso   1.00
O1269  O     0.74119   0.79917   0.73607   0.00000  Uiso   1.00
O1270  O     0.93452   0.85845   0.71806   0.00000  Uiso   1.00
O1271  O     0.73656   0.85627   0.77820   0.00000  Uiso   1.00
O1272  O     0.92106   0.81944   0.76768   0.00000  Uiso   1.00
O1273  O     0.80467   0.73570   0.73607   0.00000  Uiso   1.00
O1274  O     0.87104   0.92193   0.71806   0.00000  Uiso   1.00
Zn1275 Zn    0.85910   0.80756   0.78278   0.00000  Uiso   1.00
Zn1276 Zn    0.80125   0.79044   0.72258   0.00000  Uiso   1.00
Zn1277 Zn    0.87833   0.86331   0.71188   0.00000  Uiso   1.00
Zn1278 Zn    0.79465   0.87202   0.78277   0.00000  Uiso   1.00
loop_
_geom_bond_atom_site_label_1
_geom_bond_atom_site_label_2
_geom_bond_distance
_geom_bond_site_symmetry_2
_ccdc_geom_bond_type
C1     O62     1.269   .     A
C1     O64     1.269   .     A
C1     C11     1.438   .     S
C2     C3      1.391   .     A
C2     O59     1.382   .     S
C2     C28     1.425   .     A
C3     H48     1.085   .     S
C3     C644    1.391   .     S
C4     O63     1.282   .     A
C4     O65     1.279   .     A
C4     C10     1.455   .     S
C5     C7      1.401   .     A
C5     C6      1.419   .     A
C5     C642    1.391   1_554 S
C6     C9      1.423   .     A
C6     C29     1.426   .     A
C7     H43     1.084   .     S
C7     C8      1.394   .     A
C8     C20     1.401   .     A
C8     O58     1.382   .     S
C9     C20     1.401   .     A
C9     O57     1.383   .     S
C10    C82     1.335   .     S
C10    H116    1.088   .     S
C11    C152    1.335   1_455 S
C11    H175    1.086   1_455 S
C12    C19     1.401   .     A
C12    C21     1.393   .     A
C12    H50     1.083   .     S
C13    C16     1.451   .     S
C13    C227    1.332   .     S
C13    H259    1.088   .     S
C14    C15     1.436   .     S
C14    C439    1.332   1_545 S
C14    H473    1.086   1_545 S
C15    O60     1.276   .     A
C15    O66     1.276   .     A
C16    O61     1.272   .     A
C16    O67     1.271   .     A
C17    O55     1.275   .     A
C17    C20     1.456   .     S
C17    O53     1.271   .     A
C18    O56     1.285   .     A
C18    O54     1.282   .     A
C18    C19     1.471   .     S
C19    C23     1.398   .     A
C21    H49     1.084   .     S
C21    C27     1.402   .     A
C22    H36     1.109   .     S
C22    O57     1.410   .     S
C22    H35     1.113   .     S
C22    H34     1.113   .     S
C23    C26     1.406   .     A
C23    H40     1.078   .     S
C24    H38     1.113   .     S
C24    H39     1.109   .     S
C24    H37     1.114   .     S
C24    O58     1.410   .     S
C25    H42     1.113   .     S
C25    H44     1.109   .     S
C25    H41     1.113   .     S
C25    O59     1.411   .     S
C26    C28     1.426   .     A
C26    C27     1.417   .     A
C27    C670    1.392   .     S
C28    C668    1.424   .     S
C29    C30     1.413   .     A
C29    C667    1.424   1_554 S
C30    H51     1.078   .     S
C30    C31     1.388   .     A
C31    H32     1.084   .     S
C31    C666    1.392   1_554 S
H33    C82     1.086   .     S
H45    C152    1.088   1_455 S
H46    C439    1.088   1_545 S
H47    C227    1.086   .     S
O52    Zn68    1.960   .     S
O52    Zn71    1.933   .     S
O52    Zn70    1.937   .     S
O52    Zn69    1.939   .     S
O53    Zn69    1.932   .     S
O54    Zn71    1.940   .     S
O55    Zn70    1.933   .     S
O56    Zn68    1.926   .     S
O60    Zn68    1.927   .     S
O61    Zn71    1.932   .     S
O62    Zn69    1.928   .     S
O63    Zn70    1.936   .     S
O64    Zn71    1.931   .     S
O65    Zn68    1.925   .     S
O66    Zn69    1.938   .     S
O67    Zn70    1.930   .     S
C72    O133    1.269   .     A
C72    O135    1.269   .     A
C72    C82     1.438   .     S
C73    C74     1.391   .     A
C73    O130    1.382   .     S
C73    C99     1.425   .     A
C74    H119    1.085   .     S
C74    C715    1.391   .     S
C75    O134    1.282   .     A
C75    O136    1.279   .     A
C75    C81     1.455   .     S
C76    C78     1.401   .     A
C76    C77     1.419   .     A
C76    C713    1.391   1_554 S
C77    C80     1.423   .     A
C77    C100    1.426   .     A
C78    H114    1.084   .     S
C78    C79     1.394   .     A
C79    C91     1.401   .     A
C79    O129    1.382   .     S
C80    C91     1.401   .     A
C80    O128    1.383   .     S
C81    C153    1.335   .     S
C81    H187    1.088   .     S
C83    C90     1.401   .     A
C83    C92     1.393   .     A
C83    H121    1.083   .     S
C84    C87     1.451   .     S
C84    C298    1.332   .     S
C84    H330    1.088   .     S
C85    C86     1.436   .     S
C85    C510    1.332   1_545 S
C85    H544    1.086   1_545 S
C86    O131    1.276   .     A
C86    O137    1.276   .     A
C87    O132    1.272   .     A
C87    O138    1.271   .     A
C88    O126    1.275   .     A
C88    C91     1.456   .     S
C88    O124    1.271   .     A
C89    O127    1.285   .     A
C89    O125    1.282   .     A
C89    C90     1.471   .     S
C90    C94     1.398   .     A
C92    H120    1.084   .     S
C92    C98     1.402   .     A
C93    H107    1.109   .     S
C93    O128    1.410   .     S
C93    H106    1.113   .     S
C93    H105    1.113   .     S
C94    C97     1.406   .     A
C94    H111    1.078   .     S
C95    H109    1.113   .     S
C95    H110    1.109   .     S
C95    H108    1.114   .     S
C95    O129    1.410   .     S
C96    H113    1.113   .     S
C96    H115    1.109   .     S
C96    H112    1.113   .     S
C96    O130    1.411   .     S
C97    C99     1.426   .     A
C97    C98     1.417   .     A
C98    C741    1.392   .     S
C99    C739    1.424   .     S
C100   C101    1.413   .     A
C100   C738    1.424   1_554 S
C101   H122    1.078   .     S
C101   C102    1.388   .     A
C102   H103    1.084   .     S
C102   C737    1.392   1_554 S
H104   C153    1.086   .     S
H117   C510    1.088   1_545 S
H118   C298    1.086   .     S
O123   Zn139   1.960   .     S
O123   Zn142   1.933   .     S
O123   Zn141   1.937   .     S
O123   Zn140   1.939   .     S
O124   Zn140   1.932   .     S
O125   Zn142   1.940   .     S
O126   Zn141   1.933   .     S
O127   Zn139   1.926   .     S
O131   Zn139   1.927   .     S
O132   Zn142   1.932   .     S
O133   Zn140   1.928   .     S
O134   Zn141   1.936   .     S
O135   Zn142   1.931   .     S
O136   Zn139   1.925   .     S
O137   Zn140   1.938   .     S
O138   Zn141   1.930   .     S
C143   O204    1.269   .     A
C143   O206    1.269   .     A
C143   C153    1.438   .     S
C144   C145    1.391   .     A
C144   O201    1.382   .     S
C144   C170    1.425   .     A
C145   H190    1.085   .     S
C145   C786    1.391   .     S
C146   O205    1.282   .     A
C146   O207    1.279   .     A
C146   C152    1.455   .     S
C147   C149    1.401   .     A
C147   C148    1.419   .     A
C147   C784    1.391   1_554 S
C148   C151    1.423   .     A
C148   C171    1.426   .     A
C149   H185    1.084   .     S
C149   C150    1.394   .     A
C150   C162    1.401   .     A
C150   O200    1.382   .     S
C151   C162    1.401   .     A
C151   O199    1.383   .     S
C152   C11     1.335   1_655 S
C152   H45     1.088   1_655 S
C154   C161    1.401   .     A
C154   C163    1.393   .     A
C154   H192    1.083   .     S
C155   C158    1.451   .     S
C155   C369    1.332   .     S
C155   H401    1.088   .     S
C156   C157    1.436   .     S
C156   C581    1.332   1_545 S
C156   H615    1.086   1_545 S
C157   O202    1.276   .     A
C157   O208    1.276   .     A
C158   O203    1.272   .     A
C158   O209    1.271   .     A
C159   O197    1.275   .     A
C159   C162    1.456   .     S
C159   O195    1.271   .     A
C160   O198    1.285   .     A
C160   O196    1.282   .     A
C160   C161    1.471   .     S
C161   C165    1.398   .     A
C163   H191    1.084   .     S
C163   C169    1.402   .     A
C164   H178    1.109   .     S
C164   O199    1.410   .     S
C164   H177    1.113   .     S
C164   H176    1.113   .     S
C165   C168    1.406   .     A
C165   H182    1.078   .     S
C166   H180    1.113   .     S
C166   H181    1.109   .     S
C166   H179    1.114   .     S
C166   O200    1.410   .     S
C167   H184    1.113   .     S
C167   H186    1.109   .     S
C167   H183    1.113   .     S
C167   O201    1.411   .     S
C168   C170    1.426   .     A
C168   C169    1.417   .     A
C169   C812    1.392   .     S
C170   C810    1.424   .     S
C171   C172    1.413   .     A
C171   C809    1.424   1_554 S
C172   H193    1.078   .     S
C172   C173    1.388   .     A
C173   H174    1.084   .     S
C173   C808    1.392   1_554 S
H175   C11     1.086   1_655 S
H188   C581    1.088   1_545 S
H189   C369    1.086   .     S
O194   Zn210   1.960   .     S
O194   Zn213   1.933   .     S
O194   Zn212   1.937   .     S
O194   Zn211   1.939   .     S
O195   Zn211   1.932   .     S
O196   Zn213   1.940   .     S
O197   Zn212   1.933   .     S
O198   Zn210   1.926   .     S
O202   Zn210   1.927   .     S
O203   Zn213   1.932   .     S
O204   Zn211   1.928   .     S
O205   Zn212   1.936   .     S
O206   Zn213   1.931   .     S
O207   Zn210   1.925   .     S
O208   Zn211   1.938   .     S
O209   Zn212   1.930   .     S
C214   O275    1.269   .     A
C214   O277    1.269   .     A
C214   C224    1.438   .     S
C215   C216    1.391   .     A
C215   O272    1.382   .     S
C215   C241    1.425   .     A
C216   H261    1.085   .     S
C216   C857    1.391   .     S
C217   O276    1.282   .     A
C217   O278    1.279   .     A
C217   C223    1.455   .     S
C218   C220    1.401   .     A
C218   C219    1.419   .     A
C218   C855    1.391   1_554 S
C219   C222    1.423   .     A
C219   C242    1.426   .     A
C220   H256    1.084   .     S
C220   C221    1.394   .     A
C221   C233    1.401   .     A
C221   O271    1.382   .     S
C222   C233    1.401   .     A
C222   O270    1.383   .     S
C223   C295    1.335   .     S
C223   H329    1.088   .     S
C224   C365    1.335   1_455 S
C224   H388    1.086   1_455 S
C225   C232    1.401   .     A
C225   C234    1.393   .     A
C225   H263    1.083   .     S
C226   C229    1.451   .     S
C226   C440    1.332   .     S
C226   H472    1.088   .     S
C227   C228    1.436   .     S
C228   O273    1.276   .     A
C228   O279    1.276   .     A
C229   O274    1.272   .     A
C229   O280    1.271   .     A
C230   O268    1.275   .     A
C230   C233    1.456   .     S
C230   O266    1.271   .     A
C231   O269    1.285   .     A
C231   O267    1.282   .     A
C231   C232    1.471   .     S
C232   C236    1.398   .     A
C234   H262    1.084   .     S
C234   C240    1.402   .     A
C235   H249    1.109   .     S
C235   O270    1.410   .     S
C235   H248    1.113   .     S
C235   H247    1.113   .     S
C236   C239    1.406   .     A
C236   H253    1.078   .     S
C237   H251    1.113   .     S
C237   H252    1.109   .     S
C237   H250    1.114   .     S
C237   O271    1.410   .     S
C238   H255    1.113   .     S
C238   H257    1.109   .     S
C238   H254    1.113   .     S
C238   O272    1.411   .     S
C239   C241    1.426   .     A
C239   C240    1.417   .     A
C240   C883    1.392   .     S
C241   C881    1.424   .     S
C242   C243    1.413   .     A
C242   C880    1.424   1_554 S
C243   H264    1.078   .     S
C243   C244    1.388   .     A
C244   H245    1.084   .     S
C244   C879    1.392   1_554 S
H246   C295    1.086   .     S
H258   C365    1.088   1_455 S
H260   C440    1.086   .     S
O265   Zn281   1.960   .     S
O265   Zn284   1.933   .     S
O265   Zn283   1.937   .     S
O265   Zn282   1.939   .     S
O266   Zn282   1.932   .     S
O267   Zn284   1.940   .     S
O268   Zn283   1.933   .     S
O269   Zn281   1.926   .     S
O273   Zn281   1.927   .     S
O274   Zn284   1.932   .     S
O275   Zn282   1.928   .     S
O276   Zn283   1.936   .     S
O277   Zn284   1.931   .     S
O278   Zn281   1.925   .     S
O279   Zn282   1.938   .     S
O280   Zn283   1.930   .     S
C285   O346    1.269   .     A
C285   O348    1.269   .     A
C285   C295    1.438   .     S
C286   C287    1.391   .     A
C286   O343    1.382   .     S
C286   C312    1.425   .     A
C287   H332    1.085   .     S
C287   C928    1.391   .     S
C288   O347    1.282   .     A
C288   O349    1.279   .     A
C288   C294    1.455   .     S
C289   C291    1.401   .     A
C289   C290    1.419   .     A
C289   C926    1.391   1_554 S
C290   C293    1.423   .     A
C290   C313    1.426   .     A
C291   H327    1.084   .     S
C291   C292    1.394   .     A
C292   C304    1.401   .     A
C292   O342    1.382   .     S
C293   C304    1.401   .     A
C293   O341    1.383   .     S
C294   C366    1.335   .     S
C294   H400    1.088   .     S
C296   C303    1.401   .     A
C296   C305    1.393   .     A
C296   H334    1.083   .     S
C297   C300    1.451   .     S
C297   C511    1.332   .     S
C297   H543    1.088   .     S
C298   C299    1.436   .     S
C299   O344    1.276   .     A
C299   O350    1.276   .     A
C300   O345    1.272   .     A
C300   O351    1.271   .     A
C301   O339    1.275   .     A
C301   C304    1.456   .     S
C301   O337    1.271   .     A
C302   O340    1.285   .     A
C302   O338    1.282   .     A
C302   C303    1.471   .     S
C303   C307    1.398   .     A
C305   H333    1.084   .     S
C305   C311    1.402   .     A
C306   H320    1.109   .     S
C306   O341    1.410   .     S
C306   H319    1.113   .     S
C306   H318    1.113   .     S
C307   C310    1.406   .     A
C307   H324    1.078   .     S
C308   H322    1.113   .     S
C308   H323    1.109   .     S
C308   H321    1.114   .     S
C308   O342    1.410   .     S
C309   H326    1.113   .     S
C309   H328    1.109   .     S
C309   H325    1.113   .     S
C309   O343    1.411   .     S
C310   C312    1.426   .     A
C310   C311    1.417   .     A
C311   C954    1.392   .     S
C312   C952    1.424   .     S
C313   C314    1.413   .     A
C313   C951    1.424   1_554 S
C314   H335    1.078   .     S
C314   C315    1.388   .     A
C315   H316    1.084   .     S
C315   C950    1.392   1_554 S
H317   C366    1.086   .     S
H331   C511    1.086   .     S
O336   Zn352   1.960   .     S
O336   Zn355   1.933   .     S
O336   Zn354   1.937   .     S
O336   Zn353   1.939   .     S
O337   Zn353   1.932   .     S
O338   Zn355   1.940   .     S
O339   Zn354   1.933   .     S
O340   Zn352   1.926   .     S
O344   Zn352   1.927   .     S
O345   Zn355   1.932   .     S
O346   Zn353   1.928   .     S
O347   Zn354   1.936   .     S
O348   Zn355   1.931   .     S
O349   Zn352   1.925   .     S
O350   Zn353   1.938   .     S
O351   Zn354   1.930   .     S
C356   O417    1.269   .     A
C356   O419    1.269   .     A
C356   C366    1.438   .     S
C357   C358    1.391   .     A
C357   O414    1.382   .     S
C357   C383    1.425   .     A
C358   H403    1.085   .     S
C358   C999    1.391   .     S
C359   O418    1.282   .     A
C359   O420    1.279   .     A
C359   C365    1.455   .     S
C360   C362    1.401   .     A
C360   C361    1.419   .     A
C360   C997    1.391   1_554 S
C361   C364    1.423   .     A
C361   C384    1.426   .     A
C362   H398    1.084   .     S
C362   C363    1.394   .     A
C363   C375    1.401   .     A
C363   O413    1.382   .     S
C364   C375    1.401   .     A
C364   O412    1.383   .     S
C365   C224    1.335   1_655 S
C365   H258    1.088   1_655 S
C367   C374    1.401   .     A
C367   C376    1.393   .     A
C367   H405    1.083   .     S
C368   C371    1.451   .     S
C368   C582    1.332   .     S
C368   H614    1.088   .     S
C369   C370    1.436   .     S
C370   O415    1.276   .     A
C370   O421    1.276   .     A
C371   O416    1.272   .     A
C371   O422    1.271   .     A
C372   O410    1.275   .     A
C372   C375    1.456   .     S
C372   O408    1.271   .     A
C373   O411    1.285   .     A
C373   O409    1.282   .     A
C373   C374    1.471   .     S
C374   C378    1.398   .     A
C376   H404    1.084   .     S
C376   C382    1.402   .     A
C377   H391    1.109   .     S
C377   O412    1.410   .     S
C377   H390    1.113   .     S
C377   H389    1.113   .     S
C378   C381    1.406   .     A
C378   H395    1.078   .     S
C379   H393    1.113   .     S
C379   H394    1.109   .     S
C379   H392    1.114   .     S
C379   O413    1.410   .     S
C380   H397    1.113   .     S
C380   H399    1.109   .     S
C380   H396    1.113   .     S
C380   O414    1.411   .     S
C381   C383    1.426   .     A
C381   C382    1.417   .     A
C382   C1025   1.392   .     S
C383   C1023   1.424   .     S
C384   C385    1.413   .     A
C384   C1022   1.424   1_554 S
C385   H406    1.078   .     S
C385   C386    1.388   .     A
C386   H387    1.084   .     S
C386   C1021   1.392   1_554 S
H388   C224    1.086   1_655 S
H402   C582    1.086   .     S
O407   Zn423   1.960   .     S
O407   Zn426   1.933   .     S
O407   Zn425   1.937   .     S
O407   Zn424   1.939   .     S
O408   Zn424   1.932   .     S
O409   Zn426   1.940   .     S
O410   Zn425   1.933   .     S
O411   Zn423   1.926   .     S
O415   Zn423   1.927   .     S
O416   Zn426   1.932   .     S
O417   Zn424   1.928   .     S
O418   Zn425   1.936   .     S
O419   Zn426   1.931   .     S
O420   Zn423   1.925   .     S
O421   Zn424   1.938   .     S
O422   Zn425   1.930   .     S
C427   O488    1.269   .     A
C427   O490    1.269   .     A
C427   C437    1.438   .     S
C428   C429    1.391   .     A
C428   O485    1.382   .     S
C428   C454    1.425   .     A
C429   H474    1.085   .     S
C429   C1070   1.391   .     S
C430   O489    1.282   .     A
C430   O491    1.279   .     A
C430   C436    1.455   .     S
C431   C433    1.401   .     A
C431   C432    1.419   .     A
C431   C1068   1.391   1_554 S
C432   C435    1.423   .     A
C432   C455    1.426   .     A
C433   H469    1.084   .     S
C433   C434    1.394   .     A
C434   C446    1.401   .     A
C434   O484    1.382   .     S
C435   C446    1.401   .     A
C435   O483    1.383   .     S
C436   C508    1.335   .     S
C436   H542    1.088   .     S
C437   C578    1.335   1_455 S
C437   H601    1.086   1_455 S
C438   C445    1.401   .     A
C438   C447    1.393   .     A
C438   H476    1.083   .     S
C439   C442    1.451   .     S
C439   C14     1.332   1_565 S
C439   H46     1.088   1_565 S
C440   C441    1.436   .     S
C441   O486    1.276   .     A
C441   O492    1.276   .     A
C442   O487    1.272   .     A
C442   O493    1.271   .     A
C443   O481    1.275   .     A
C443   C446    1.456   .     S
C443   O479    1.271   .     A
C444   O482    1.285   .     A
C444   O480    1.282   .     A
C444   C445    1.471   .     S
C445   C449    1.398   .     A
C447   H475    1.084   .     S
C447   C453    1.402   .     A
C448   H462    1.109   .     S
C448   O483    1.410   .     S
C448   H461    1.113   .     S
C448   H460    1.113   .     S
C449   C452    1.406   .     A
C449   H466    1.078   .     S
C450   H464    1.113   .     S
C450   H465    1.109   .     S
C450   H463    1.114   .     S
C450   O484    1.410   .     S
C451   H468    1.113   .     S
C451   H470    1.109   .     S
C451   H467    1.113   .     S
C451   O485    1.411   .     S
C452   C454    1.426   .     A
C452   C453    1.417   .     A
C453   C1096   1.392   .     S
C454   C1094   1.424   .     S
C455   C456    1.413   .     A
C455   C1093   1.424   1_554 S
C456   H477    1.078   .     S
C456   C457    1.388   .     A
C457   H458    1.084   .     S
C457   C1092   1.392   1_554 S
H459   C508    1.086   .     S
H471   C578    1.088   1_455 S
H473   C14     1.086   1_565 S
O478   Zn494   1.960   .     S
O478   Zn497   1.933   .     S
O478   Zn496   1.937   .     S
O478   Zn495   1.939   .     S
O479   Zn495   1.932   .     S
O480   Zn497   1.940   .     S
O481   Zn496   1.933   .     S
O482   Zn494   1.926   .     S
O486   Zn494   1.927   .     S
O487   Zn497   1.932   .     S
O488   Zn495   1.928   .     S
O489   Zn496   1.936   .     S
O490   Zn497   1.931   .     S
O491   Zn494   1.925   .     S
O492   Zn495   1.938   .     S
O493   Zn496   1.930   .     S
C498   O559    1.269   .     A
C498   O561    1.269   .     A
C498   C508    1.438   .     S
C499   C500    1.391   .     A
C499   O556    1.382   .     S
C499   C525    1.425   .     A
C500   H545    1.085   .     S
C500   C1141   1.391   .     S
C501   O560    1.282   .     A
C501   O562    1.279   .     A
C501   C507    1.455   .     S
C502   C504    1.401   .     A
C502   C503    1.419   .     A
C502   C1139   1.391   1_554 S
C503   C506    1.423   .     A
C503   C526    1.426   .     A
C504   H540    1.084   .     S
C504   C505    1.394   .     A
C505   C517    1.401   .     A
C505   O555    1.382   .     S
C506   C517    1.401   .     A
C506   O554    1.383   .     S
C507   C579    1.335   .     S
C507   H613    1.088   .     S
C509   C516    1.401   .     A
C509   C518    1.393   .     A
C509   H547    1.083   .     S
C510   C513    1.451   .     S
C510   C85     1.332   1_565 S
C510   H117    1.088   1_565 S
C511   C512    1.436   .     S
C512   O557    1.276   .     A
C512   O563    1.276   .     A
C513   O558    1.272   .     A
C513   O564    1.271   .     A
C514   O552    1.275   .     A
C514   C517    1.456   .     S
C514   O550    1.271   .     A
C515   O553    1.285   .     A
C515   O551    1.282   .     A
C515   C516    1.471   .     S
C516   C520    1.398   .     A
C518   H546    1.084   .     S
C518   C524    1.402   .     A
C519   H533    1.109   .     S
C519   O554    1.410   .     S
C519   H532    1.113   .     S
C519   H531    1.113   .     S
C520   C523    1.406   .     A
C520   H537    1.078   .     S
C521   H535    1.113   .     S
C521   H536    1.109   .     S
C521   H534    1.114   .     S
C521   O555    1.410   .     S
C522   H539    1.113   .     S
C522   H541    1.109   .     S
C522   H538    1.113   .     S
C522   O556    1.411   .     S
C523   C525    1.426   .     A
C523   C524    1.417   .     A
C524   C1167   1.392   .     S
C525   C1165   1.424   .     S
C526   C527    1.413   .     A
C526   C1164   1.424   1_554 S
C527   H548    1.078   .     S
C527   C528    1.388   .     A
C528   H529    1.084   .     S
C528   C1163   1.392   1_554 S
H530   C579    1.086   .     S
H544   C85     1.086   1_565 S
O549   Zn565   1.960   .     S
O549   Zn568   1.933   .     S
O549   Zn567   1.937   .     S
O549   Zn566   1.939   .     S
O550   Zn566   1.932   .     S
O551   Zn568   1.940   .     S
O552   Zn567   1.933   .     S
O553   Zn565   1.926   .     S
O557   Zn565   1.927   .     S
O558   Zn568   1.932   .     S
O559   Zn566   1.928   .     S
O560   Zn567   1.936   .     S
O561   Zn568   1.931   .     S
O562   Zn565   1.925   .     S
O563   Zn566   1.938   .     S
O564   Zn567   1.930   .     S
C569   O630    1.269   .     A
C569   O632    1.269   .     A
C569   C579    1.438   .     S
C570   C571    1.391   .     A
C570   O627    1.382   .     S
C570   C596    1.425   .     A
C571   H616    1.085   .     S
C571   C1212   1.391   .     S
C572   O631    1.282   .     A
C572   O633    1.279   .     A
C572   C578    1.455   .     S
C573   C575    1.401   .     A
C573   C574    1.419   .     A
C573   C1210   1.391   1_554 S
C574   C577    1.423   .     A
C574   C597    1.426   .     A
C575   H611    1.084   .     S
C575   C576    1.394   .     A
C576   C588    1.401   .     A
C576   O626    1.382   .     S
C577   C588    1.401   .     A
C577   O625    1.383   .     S
C578   C437    1.335   1_655 S
C578   H471    1.088   1_655 S
C580   C587    1.401   .     A
C580   C589    1.393   .     A
C580   H618    1.083   .     S
C581   C584    1.451   .     S
C581   C156    1.332   1_565 S
C581   H188    1.088   1_565 S
C582   C583    1.436   .     S
C583   O628    1.276   .     A
C583   O634    1.276   .     A
C584   O629    1.272   .     A
C584   O635    1.271   .     A
C585   O623    1.275   .     A
C585   C588    1.456   .     S
C585   O621    1.271   .     A
C586   O624    1.285   .     A
C586   O622    1.282   .     A
C586   C587    1.471   .     S
C587   C591    1.398   .     A
C589   H617    1.084   .     S
C589   C595    1.402   .     A
C590   H604    1.109   .     S
C590   O625    1.410   .     S
C590   H603    1.113   .     S
C590   H602    1.113   .     S
C591   C594    1.406   .     A
C591   H608    1.078   .     S
C592   H606    1.113   .     S
C592   H607    1.109   .     S
C592   H605    1.114   .     S
C592   O626    1.410   .     S
C593   H610    1.113   .     S
C593   H612    1.109   .     S
C593   H609    1.113   .     S
C593   O627    1.411   .     S
C594   C596    1.426   .     A
C594   C595    1.417   .     A
C595   C1238   1.392   .     S
C596   C1236   1.424   .     S
C597   C598    1.413   .     A
C597   C1235   1.424   1_554 S
C598   H619    1.078   .     S
C598   C599    1.388   .     A
C599   H600    1.084   .     S
C599   C1234   1.392   1_554 S
H601   C437    1.086   1_655 S
H615   C156    1.086   1_565 S
O620   Zn636   1.960   .     S
O620   Zn639   1.933   .     S
O620   Zn638   1.937   .     S
O620   Zn637   1.939   .     S
O621   Zn637   1.932   .     S
O622   Zn639   1.940   .     S
O623   Zn638   1.933   .     S
O624   Zn636   1.926   .     S
O628   Zn636   1.927   .     S
O629   Zn639   1.932   .     S
O630   Zn637   1.928   .     S
O631   Zn638   1.936   .     S
O632   Zn639   1.931   .     S
O633   Zn636   1.925   .     S
O634   Zn637   1.938   .     S
O635   Zn638   1.930   .     S
C640   O701    1.269   .     A
C640   O703    1.269   .     A
C640   C650    1.438   .     S
C641   C642    1.391   .     A
C641   O698    1.382   .     S
C641   C667    1.425   .     A
C642   H687    1.085   .     S
C642   C5      1.391   1_556 S
C643   O702    1.282   .     A
C643   O704    1.279   .     A
C643   C649    1.455   .     S
C644   C646    1.401   .     A
C644   C645    1.419   .     A
C645   C648    1.423   .     A
C645   C668    1.426   .     A
C646   H682    1.084   .     S
C646   C647    1.394   .     A
C647   C659    1.401   .     A
C647   O697    1.382   .     S
C648   C659    1.401   .     A
C648   O696    1.383   .     S
C649   C721    1.335   .     S
C649   H755    1.088   .     S
C650   C791    1.335   1_455 S
C650   H814    1.086   1_455 S
C651   C658    1.401   .     A
C651   C660    1.393   .     A
C651   H689    1.083   .     S
C652   C655    1.451   .     S
C652   C866    1.332   .     S
C652   H898    1.088   .     S
C653   C654    1.436   .     S
C653   C1078   1.332   1_545 S
C653   H1112   1.086   1_545 S
C654   O699    1.276   .     A
C654   O705    1.276   .     A
C655   O700    1.272   .     A
C655   O706    1.271   .     A
C656   O694    1.275   .     A
C656   C659    1.456   .     S
C656   O692    1.271   .     A
C657   O695    1.285   .     A
C657   O693    1.282   .     A
C657   C658    1.471   .     S
C658   C662    1.398   .     A
C660   H688    1.084   .     S
C660   C666    1.402   .     A
C661   H675    1.109   .     S
C661   O696    1.410   .     S
C661   H674    1.113   .     S
C661   H673    1.113   .     S
C662   C665    1.406   .     A
C662   H679    1.078   .     S
C663   H677    1.113   .     S
C663   H678    1.109   .     S
C663   H676    1.114   .     S
C663   O697    1.410   .     S
C664   H681    1.113   .     S
C664   H683    1.109   .     S
C664   H680    1.113   .     S
C664   O698    1.411   .     S
C665   C667    1.426   .     A
C665   C666    1.417   .     A
C666   C31     1.392   1_556 S
C667   C29     1.424   1_556 S
C668   C669    1.413   .     A
C669   H690    1.078   .     S
C669   C670    1.388   .     A
C670   H671    1.084   .     S
H672   C721    1.086   .     S
H684   C791    1.088   1_455 S
H685   C1078   1.088   1_545 S
H686   C866    1.086   .     S
O691   Zn707   1.960   .     S
O691   Zn710   1.933   .     S
O691   Zn709   1.937   .     S
O691   Zn708   1.939   .     S
O692   Zn708   1.932   .     S
O693   Zn710   1.940   .     S
O694   Zn709   1.933   .     S
O695   Zn707   1.926   .     S
O699   Zn707   1.927   .     S
O700   Zn710   1.932   .     S
O701   Zn708   1.928   .     S
O702   Zn709   1.936   .     S
O703   Zn710   1.931   .     S
O704   Zn707   1.925   .     S
O705   Zn708   1.938   .     S
O706   Zn709   1.930   .     S
C711   O772    1.269   .     A
C711   O774    1.269   .     A
C711   C721    1.438   .     S
C712   C713    1.391   .     A
C712   O769    1.382   .     S
C712   C738    1.425   .     A
C713   H758    1.085   .     S
C713   C76     1.391   1_556 S
C714   O773    1.282   .     A
C714   O775    1.279   .     A
C714   C720    1.455   .     S
C715   C717    1.401   .     A
C715   C716    1.419   .     A
C716   C719    1.423   .     A
C716   C739    1.426   .     A
C717   H753    1.084   .     S
C717   C718    1.394   .     A
C718   C730    1.401   .     A
C718   O768    1.382   .     S
C719   C730    1.401   .     A
C719   O767    1.383   .     S
C720   C792    1.335   .     S
C720   H826    1.088   .     S
C722   C729    1.401   .     A
C722   C731    1.393   .     A
C722   H760    1.083   .     S
C723   C726    1.451   .     S
C723   C937    1.332   .     S
C723   H969    1.088   .     S
C724   C725    1.436   .     S
C724   C1149   1.332   1_545 S
C724   H1183   1.086   1_545 S
C725   O770    1.276   .     A
C725   O776    1.276   .     A
C726   O771    1.272   .     A
C726   O777    1.271   .     A
C727   O765    1.275   .     A
C727   C730    1.456   .     S
C727   O763    1.271   .     A
C728   O766    1.285   .     A
C728   O764    1.282   .     A
C728   C729    1.471   .     S
C729   C733    1.398   .     A
C731   H759    1.084   .     S
C731   C737    1.402   .     A
C732   H746    1.109   .     S
C732   O767    1.410   .     S
C732   H745    1.113   .     S
C732   H744    1.113   .     S
C733   C736    1.406   .     A
C733   H750    1.078   .     S
C734   H748    1.113   .     S
C734   H749    1.109   .     S
C734   H747    1.114   .     S
C734   O768    1.410   .     S
C735   H752    1.113   .     S
C735   H754    1.109   .     S
C735   H751    1.113   .     S
C735   O769    1.411   .     S
C736   C738    1.426   .     A
C736   C737    1.417   .     A
C737   C102    1.392   1_556 S
C738   C100    1.424   1_556 S
C739   C740    1.413   .     A
C740   H761    1.078   .     S
C740   C741    1.388   .     A
C741   H742    1.084   .     S
H743   C792    1.086   .     S
H756   C1149   1.088   1_545 S
H757   C937    1.086   .     S
O762   Zn778   1.960   .     S
O762   Zn781   1.933   .     S
O762   Zn780   1.937   .     S
O762   Zn779   1.939   .     S
O763   Zn779   1.932   .     S
O764   Zn781   1.940   .     S
O765   Zn780   1.933   .     S
O766   Zn778   1.926   .     S
O770   Zn778   1.927   .     S
O771   Zn781   1.932   .     S
O772   Zn779   1.928   .     S
O773   Zn780   1.936   .     S
O774   Zn781   1.931   .     S
O775   Zn778   1.925   .     S
O776   Zn779   1.938   .     S
O777   Zn780   1.930   .     S
C782   O843    1.269   .     A
C782   O845    1.269   .     A
C782   C792    1.438   .     S
C783   C784    1.391   .     A
C783   O840    1.382   .     S
C783   C809    1.425   .     A
C784   H829    1.085   .     S
C784   C147    1.391   1_556 S
C785   O844    1.282   .     A
C785   O846    1.279   .     A
C785   C791    1.455   .     S
C786   C788    1.401   .     A
C786   C787    1.419   .     A
C787   C790    1.423   .     A
C787   C810    1.426   .     A
C788   H824    1.084   .     S
C788   C789    1.394   .     A
C789   C801    1.401   .     A
C789   O839    1.382   .     S
C790   C801    1.401   .     A
C790   O838    1.383   .     S
C791   C650    1.335   1_655 S
C791   H684    1.088   1_655 S
C793   C800    1.401   .     A
C793   C802    1.393   .     A
C793   H831    1.083   .     S
C794   C797    1.451   .     S
C794   C1008   1.332   .     S
C794   H1040   1.088   .     S
C795   C796    1.436   .     S
C795   C1220   1.332   1_545 S
C795   H1254   1.086   1_545 S
C796   O841    1.276   .     A
C796   O847    1.276   .     A
C797   O842    1.272   .     A
C797   O848    1.271   .     A
C798   O836    1.275   .     A
C798   C801    1.456   .     S
C798   O834    1.271   .     A
C799   O837    1.285   .     A
C799   O835    1.282   .     A
C799   C800    1.471   .     S
C800   C804    1.398   .     A
C802   H830    1.084   .     S
C802   C808    1.402   .     A
C803   H817    1.109   .     S
C803   O838    1.410   .     S
C803   H816    1.113   .     S
C803   H815    1.113   .     S
C804   C807    1.406   .     A
C804   H821    1.078   .     S
C805   H819    1.113   .     S
C805   H820    1.109   .     S
C805   H818    1.114   .     S
C805   O839    1.410   .     S
C806   H823    1.113   .     S
C806   H825    1.109   .     S
C806   H822    1.113   .     S
C806   O840    1.411   .     S
C807   C809    1.426   .     A
C807   C808    1.417   .     A
C808   C173    1.392   1_556 S
C809   C171    1.424   1_556 S
C810   C811    1.413   .     A
C811   H832    1.078   .     S
C811   C812    1.388   .     A
C812   H813    1.084   .     S
H814   C650    1.086   1_655 S
H827   C1220   1.088   1_545 S
H828   C1008   1.086   .     S
O833   Zn849   1.960   .     S
O833   Zn852   1.933   .     S
O833   Zn851   1.937   .     S
O833   Zn850   1.939   .     S
O834   Zn850   1.932   .     S
O835   Zn852   1.940   .     S
O836   Zn851   1.933   .     S
O837   Zn849   1.926   .     S
O841   Zn849   1.927   .     S
O842   Zn852   1.932   .     S
O843   Zn850   1.928   .     S
O844   Zn851   1.936   .     S
O845   Zn852   1.931   .     S
O846   Zn849   1.925   .     S
O847   Zn850   1.938   .     S
O848   Zn851   1.930   .     S
C853   O914    1.269   .     A
C853   O916    1.269   .     A
C853   C863    1.438   .     S
C854   C855    1.391   .     A
C854   O911    1.382   .     S
C854   C880    1.425   .     A
C855   H900    1.085   .     S
C855   C218    1.391   1_556 S
C856   O915    1.282   .     A
C856   O917    1.279   .     A
C856   C862    1.455   .     S
C857   C859    1.401   .     A
C857   C858    1.419   .     A
C858   C861    1.423   .     A
C858   C881    1.426   .     A
C859   H895    1.084   .     S
C859   C860    1.394   .     A
C860   C872    1.401   .     A
C860   O910    1.382   .     S
C861   C872    1.401   .     A
C861   O909    1.383   .     S
C862   C934    1.335   .     S
C862   H968    1.088   .     S
C863   C1004   1.335   1_455 S
C863   H1027   1.086   1_455 S
C864   C871    1.401   .     A
C864   C873    1.393   .     A
C864   H902    1.083   .     S
C865   C868    1.451   .     S
C865   C1079   1.332   .     S
C865   H1111   1.088   .     S
C866   C867    1.436   .     S
C867   O912    1.276   .     A
C867   O918    1.276   .     A
C868   O913    1.272   .     A
C868   O919    1.271   .     A
C869   O907    1.275   .     A
C869   C872    1.456   .     S
C869   O905    1.271   .     A
C870   O908    1.285   .     A
C870   O906    1.282   .     A
C870   C871    1.471   .     S
C871   C875    1.398   .     A
C873   H901    1.084   .     S
C873   C879    1.402   .     A
C874   H888    1.109   .     S
C874   O909    1.410   .     S
C874   H887    1.113   .     S
C874   H886    1.113   .     S
C875   C878    1.406   .     A
C875   H892    1.078   .     S
C876   H890    1.113   .     S
C876   H891    1.109   .     S
C876   H889    1.114   .     S
C876   O910    1.410   .     S
C877   H894    1.113   .     S
C877   H896    1.109   .     S
C877   H893    1.113   .     S
C877   O911    1.411   .     S
C878   C880    1.426   .     A
C878   C879    1.417   .     A
C879   C244    1.392   1_556 S
C880   C242    1.424   1_556 S
C881   C882    1.413   .     A
C882   H903    1.078   .     S
C882   C883    1.388   .     A
C883   H884    1.084   .     S
H885   C934    1.086   .     S
H897   C1004   1.088   1_455 S
H899   C1079   1.086   .     S
O904   Zn920   1.960   .     S
O904   Zn923   1.933   .     S
O904   Zn922   1.937   .     S
O904   Zn921   1.939   .     S
O905   Zn921   1.932   .     S
O906   Zn923   1.940   .     S
O907   Zn922   1.933   .     S
O908   Zn920   1.926   .     S
O912   Zn920   1.927   .     S
O913   Zn923   1.932   .     S
O914   Zn921   1.928   .     S
O915   Zn922   1.936   .     S
O916   Zn923   1.931   .     S
O917   Zn920   1.925   .     S
O918   Zn921   1.938   .     S
O919   Zn922   1.930   .     S
C924   O985    1.269   .     A
C924   O987    1.269   .     A
C924   C934    1.438   .     S
C925   C926    1.391   .     A
C925   O982    1.382   .     S
C925   C951    1.425   .     A
C926   H971    1.085   .     S
C926   C289    1.391   1_556 S
C927   O986    1.282   .     A
C927   O988    1.279   .     A
C927   C933    1.455   .     S
C928   C930    1.401   .     A
C928   C929    1.419   .     A
C929   C932    1.423   .     A
C929   C952    1.426   .     A
C930   H966    1.084   .     S
C930   C931    1.394   .     A
C931   C943    1.401   .     A
C931   O981    1.382   .     S
C932   C943    1.401   .     A
C932   O980    1.383   .     S
C933   C1005   1.335   .     S
C933   H1039   1.088   .     S
C935   C942    1.401   .     A
C935   C944    1.393   .     A
C935   H973    1.083   .     S
C936   C939    1.451   .     S
C936   C1150   1.332   .     S
C936   H1182   1.088   .     S
C937   C938    1.436   .     S
C938   O983    1.276   .     A
C938   O989    1.276   .     A
C939   O984    1.272   .     A
C939   O990    1.271   .     A
C940   O978    1.275   .     A
C940   C943    1.456   .     S
C940   O976    1.271   .     A
C941   O979    1.285   .     A
C941   O977    1.282   .     A
C941   C942    1.471   .     S
C942   C946    1.398   .     A
C944   H972    1.084   .     S
C944   C950    1.402   .     A
C945   H959    1.109   .     S
C945   O980    1.410   .     S
C945   H958    1.113   .     S
C945   H957    1.113   .     S
C946   C949    1.406   .     A
C946   H963    1.078   .     S
C947   H961    1.113   .     S
C947   H962    1.109   .     S
C947   H960    1.114   .     S
C947   O981    1.410   .     S
C948   H965    1.113   .     S
C948   H967    1.109   .     S
C948   H964    1.113   .     S
C948   O982    1.411   .     S
C949   C951    1.426   .     A
C949   C950    1.417   .     A
C950   C315    1.392   1_556 S
C951   C313    1.424   1_556 S
C952   C953    1.413   .     A
C953   H974    1.078   .     S
C953   C954    1.388   .     A
C954   H955    1.084   .     S
H956   C1005   1.086   .     S
H970   C1150   1.086   .     S
O975   Zn991   1.960   .     S
O975   Zn994   1.933   .     S
O975   Zn993   1.937   .     S
O975   Zn992   1.939   .     S
O976   Zn992   1.932   .     S
O977   Zn994   1.940   .     S
O978   Zn993   1.933   .     S
O979   Zn991   1.926   .     S
O983   Zn991   1.927   .     S
O984   Zn994   1.932   .     S
O985   Zn992   1.928   .     S
O986   Zn993   1.936   .     S
O987   Zn994   1.931   .     S
O988   Zn991   1.925   .     S
O989   Zn992   1.938   .     S
O990   Zn993   1.930   .     S
C995   O1056   1.269   .     A
C995   O1058   1.269   .     A
C995   C1005   1.438   .     S
C996   C997    1.391   .     A
C996   O1053   1.382   .     S
C996   C1022   1.425   .     A
C997   H1042   1.085   .     S
C997   C360    1.391   1_556 S
C998   O1057   1.282   .     A
C998   O1059   1.279   .     A
C998   C1004   1.455   .     S
C999   C1001   1.401   .     A
C999   C1000   1.419   .     A
C1000  C1003   1.423   .     A
C1000  C1023   1.426   .     A
C1001  H1037   1.084   .     S
C1001  C1002   1.394   .     A
C1002  C1014   1.401   .     A
C1002  O1052   1.382   .     S
C1003  C1014   1.401   .     A
C1003  O1051   1.383   .     S
C1004  C863    1.335   1_655 S
C1004  H897    1.088   1_655 S
C1006  C1013   1.401   .     A
C1006  C1015   1.393   .     A
C1006  H1044   1.083   .     S
C1007  C1010   1.451   .     S
C1007  C1221   1.332   .     S
C1007  H1253   1.088   .     S
C1008  C1009   1.436   .     S
C1009  O1054   1.276   .     A
C1009  O1060   1.276   .     A
C1010  O1055   1.272   .     A
C1010  O1061   1.271   .     A
C1011  O1049   1.275   .     A
C1011  C1014   1.456   .     S
C1011  O1047   1.271   .     A
C1012  O1050   1.285   .     A
C1012  O1048   1.282   .     A
C1012  C1013   1.471   .     S
C1013  C1017   1.398   .     A
C1015  H1043   1.084   .     S
C1015  C1021   1.402   .     A
C1016  H1030   1.109   .     S
C1016  O1051   1.410   .     S
C1016  H1029   1.113   .     S
C1016  H1028   1.113   .     S
C1017  C1020   1.406   .     A
C1017  H1034   1.078   .     S
C1018  H1032   1.113   .     S
C1018  H1033   1.109   .     S
C1018  H1031   1.114   .     S
C1018  O1052   1.410   .     S
C1019  H1036   1.113   .     S
C1019  H1038   1.109   .     S
C1019  H1035   1.113   .     S
C1019  O1053   1.411   .     S
C1020  C1022   1.426   .     A
C1020  C1021   1.417   .     A
C1021  C386    1.392   1_556 S
C1022  C384    1.424   1_556 S
C1023  C1024   1.413   .     A
C1024  H1045   1.078   .     S
C1024  C1025   1.388   .     A
C1025  H1026   1.084   .     S
H1027  C863    1.086   1_655 S
H1041  C1221   1.086   .     S
O1046  Zn1062  1.960   .     S
O1046  Zn1065  1.933   .     S
O1046  Zn1064  1.937   .     S
O1046  Zn1063  1.939   .     S
O1047  Zn1063  1.932   .     S
O1048  Zn1065  1.940   .     S
O1049  Zn1064  1.933   .     S
O1050  Zn1062  1.926   .     S
O1054  Zn1062  1.927   .     S
O1055  Zn1065  1.932   .     S
O1056  Zn1063  1.928   .     S
O1057  Zn1064  1.936   .     S
O1058  Zn1065  1.931   .     S
O1059  Zn1062  1.925   .     S
O1060  Zn1063  1.938   .     S
O1061  Zn1064  1.930   .     S
C1066  O1127   1.269   .     A
C1066  O1129   1.269   .     A
C1066  C1076   1.438   .     S
C1067  C1068   1.391   .     A
C1067  O1124   1.382   .     S
C1067  C1093   1.425   .     A
C1068  H1113   1.085   .     S
C1068  C431    1.391   1_556 S
C1069  O1128   1.282   .     A
C1069  O1130   1.279   .     A
C1069  C1075   1.455   .     S
C1070  C1072   1.401   .     A
C1070  C1071   1.419   .     A
C1071  C1074   1.423   .     A
C1071  C1094   1.426   .     A
C1072  H1108   1.084   .     S
C1072  C1073   1.394   .     A
C1073  C1085   1.401   .     A
C1073  O1123   1.382   .     S
C1074  C1085   1.401   .     A
C1074  O1122   1.383   .     S
C1075  C1147   1.335   .     S
C1075  H1181   1.088   .     S
C1076  C1217   1.335   1_455 S
C1076  H1240   1.086   1_455 S
C1077  C1084   1.401   .     A
C1077  C1086   1.393   .     A
C1077  H1115   1.083   .     S
C1078  C1081   1.451   .     S
C1078  C653    1.332   1_565 S
C1078  H685    1.088   1_565 S
C1079  C1080   1.436   .     S
C1080  O1125   1.276   .     A
C1080  O1131   1.276   .     A
C1081  O1126   1.272   .     A
C1081  O1132   1.271   .     A
C1082  O1120   1.275   .     A
C1082  C1085   1.456   .     S
C1082  O1118   1.271   .     A
C1083  O1121   1.285   .     A
C1083  O1119   1.282   .     A
C1083  C1084   1.471   .     S
C1084  C1088   1.398   .     A
C1086  H1114   1.084   .     S
C1086  C1092   1.402   .     A
C1087  H1101   1.109   .     S
C1087  O1122   1.410   .     S
C1087  H1100   1.113   .     S
C1087  H1099   1.113   .     S
C1088  C1091   1.406   .     A
C1088  H1105   1.078   .     S
C1089  H1103   1.113   .     S
C1089  H1104   1.109   .     S
C1089  H1102   1.114   .     S
C1089  O1123   1.410   .     S
C1090  H1107   1.113   .     S
C1090  H1109   1.109   .     S
C1090  H1106   1.113   .     S
C1090  O1124   1.411   .     S
C1091  C1093   1.426   .     A
C1091  C1092   1.417   .     A
C1092  C457    1.392   1_556 S
C1093  C455    1.424   1_556 S
C1094  C1095   1.413   .     A
C1095  H1116   1.078   .     S
C1095  C1096   1.388   .     A
C1096  H1097   1.084   .     S
H1098  C1147   1.086   .     S
H1110  C1217   1.088   1_455 S
H1112  C653    1.086   1_565 S
O1117  Zn1133  1.960   .     S
O1117  Zn1136  1.933   .     S
O1117  Zn1135  1.937   .     S
O1117  Zn1134  1.939   .     S
O1118  Zn1134  1.932   .     S
O1119  Zn1136  1.940   .     S
O1120  Zn1135  1.933   .     S
O1121  Zn1133  1.926   .     S
O1125  Zn1133  1.927   .     S
O1126  Zn1136  1.932   .     S
O1127  Zn1134  1.928   .     S
O1128  Zn1135  1.936   .     S
O1129  Zn1136  1.931   .     S
O1130  Zn1133  1.925   .     S
O1131  Zn1134  1.938   .     S
O1132  Zn1135  1.930   .     S
C1137  O1198   1.269   .     A
C1137  O1200   1.269   .     A
C1137  C1147   1.438   .     S
C1138  C1139   1.391   .     A
C1138  O1195   1.382   .     S
C1138  C1164   1.425   .     A
C1139  H1184   1.085   .     S
C1139  C502    1.391   1_556 S
C1140  O1199   1.282   .     A
C1140  O1201   1.279   .     A
C1140  C1146   1.455   .     S
C1141  C1143   1.401   .     A
C1141  C1142   1.419   .     A
C1142  C1145   1.423   .     A
C1142  C1165   1.426   .     A
C1143  H1179   1.084   .     S
C1143  C1144   1.394   .     A
C1144  C1156   1.401   .     A
C1144  O1194   1.382   .     S
C1145  C1156   1.401   .     A
C1145  O1193   1.383   .     S
C1146  C1218   1.335   .     S
C1146  H1252   1.088   .     S
C1148  C1155   1.401   .     A
C1148  C1157   1.393   .     A
C1148  H1186   1.083   .     S
C1149  C1152   1.451   .     S
C1149  C724    1.332   1_565 S
C1149  H756    1.088   1_565 S
C1150  C1151   1.436   .     S
C1151  O1196   1.276   .     A
C1151  O1202   1.276   .     A
C1152  O1197   1.272   .     A
C1152  O1203   1.271   .     A
C1153  O1191   1.275   .     A
C1153  C1156   1.456   .     S
C1153  O1189   1.271   .     A
C1154  O1192   1.285   .     A
C1154  O1190   1.282   .     A
C1154  C1155   1.471   .     S
C1155  C1159   1.398   .     A
C1157  H1185   1.084   .     S
C1157  C1163   1.402   .     A
C1158  H1172   1.109   .     S
C1158  O1193   1.410   .     S
C1158  H1171   1.113   .     S
C1158  H1170   1.113   .     S
C1159  C1162   1.406   .     A
C1159  H1176   1.078   .     S
C1160  H1174   1.113   .     S
C1160  H1175   1.109   .     S
C1160  H1173   1.114   .     S
C1160  O1194   1.410   .     S
C1161  H1178   1.113   .     S
C1161  H1180   1.109   .     S
C1161  H1177   1.113   .     S
C1161  O1195   1.411   .     S
C1162  C1164   1.426   .     A
C1162  C1163   1.417   .     A
C1163  C528    1.392   1_556 S
C1164  C526    1.424   1_556 S
C1165  C1166   1.413   .     A
C1166  H1187   1.078   .     S
C1166  C1167   1.388   .     A
C1167  H1168   1.084   .     S
H1169  C1218   1.086   .     S
H1183  C724    1.086   1_565 S
O1188  Zn1204  1.960   .     S
O1188  Zn1207  1.933   .     S
O1188  Zn1206  1.937   .     S
O1188  Zn1205  1.939   .     S
O1189  Zn1205  1.932   .     S
O1190  Zn1207  1.940   .     S
O1191  Zn1206  1.933   .     S
O1192  Zn1204  1.926   .     S
O1196  Zn1204  1.927   .     S
O1197  Zn1207  1.932   .     S
O1198  Zn1205  1.928   .     S
O1199  Zn1206  1.936   .     S
O1200  Zn1207  1.931   .     S
O1201  Zn1204  1.925   .     S
O1202  Zn1205  1.938   .     S
O1203  Zn1206  1.930   .     S
C1208  O1269   1.269   .     A
C1208  O1271   1.269   .     A
C1208  C1218   1.438   .     S
C1209  C1210   1.391   .     A
C1209  O1266   1.382   .     S
C1209  C1235   1.425   .     A
C1210  H1255   1.085   .     S
C1210  C573    1.391   1_556 S
C1211  O1270   1.282   .     A
C1211  O1272   1.279   .     A
C1211  C1217   1.455   .     S
C1212  C1214   1.401   .     A
C1212  C1213   1.419   .     A
C1213  C1216   1.423   .     A
C1213  C1236   1.426   .     A
C1214  H1250   1.084   .     S
C1214  C1215   1.394   .     A
C1215  C1227   1.401   .     A
C1215  O1265   1.382   .     S
C1216  C1227   1.401   .     A
C1216  O1264   1.383   .     S
C1217  C1076   1.335   1_655 S
C1217  H1110   1.088   1_655 S
C1219  C1226   1.401   .     A
C1219  C1228   1.393   .     A
C1219  H1257   1.083   .     S
C1220  C1223   1.451   .     S
C1220  C795    1.332   1_565 S
C1220  H827    1.088   1_565 S
C1221  C1222   1.436   .     S
C1222  O1267   1.276   .     A
C1222  O1273   1.276   .     A
C1223  O1268   1.272   .     A
C1223  O1274   1.271   .     A
C1224  O1262   1.275   .     A
C1224  C1227   1.456   .     S
C1224  O1260   1.271   .     A
C1225  O1263   1.285   .     A
C1225  O1261   1.282   .     A
C1225  C1226   1.471   .     S
C1226  C1230   1.398   .     A
C1228  H1256   1.084   .     S
C1228  C1234   1.402   .     A
C1229  H1243   1.109   .     S
C1229  O1264   1.410   .     S
C1229  H1242   1.113   .     S
C1229  H1241   1.113   .     S
C1230  C1233   1.406   .     A
C1230  H1247   1.078   .     S
C1231  H1245   1.113   .     S
C1231  H1246   1.109   .     S
C1231  H1244   1.114   .     S
C1231  O1265   1.410   .     S
C1232  H1249   1.113   .     S
C1232  H1251   1.109   .     S
C1232  H1248   1.113   .     S
C1232  O1266   1.411   .     S
C1233  C1235   1.426   .     A
C1233  C1234   1.417   .     A
C1234  C599    1.392   1_556 S
C1235  C597    1.424   1_556 S
C1236  C1237   1.413   .     A
C1237  H1258   1.078   .     S
C1237  C1238   1.388   .     A
C1238  H1239   1.084   .     S
H1240  C1076   1.086   1_655 S
H1254  C795    1.086   1_565 S
O1259  Zn1275  1.960   .     S
O1259  Zn1278  1.933   .     S
O1259  Zn1277  1.937   .     S
O1259  Zn1276  1.939   .     S
O1260  Zn1276  1.932   .     S
O1261  Zn1278  1.940   .     S
O1262  Zn1277  1.933   .     S
O1263  Zn1275  1.926   .     S
O1267  Zn1275  1.927   .     S
O1268  Zn1278  1.932   .     S
O1269  Zn1276  1.928   .     S
O1270  Zn1277  1.936   .     S
O1271  Zn1278  1.931   .     S
O1272  Zn1275  1.925   .     S
O1273  Zn1276  1.938   .     S
O1274  Zn1277  1.930   .     S
