data_str_m2_o10_o16_pcu_sym.135
_audit_creation_date              2020-01-03
_audit_creation_method            'Materials Studio'
_symmetry_space_group_name_H-M    'P1'
_symmetry_Int_Tables_number       1
_symmetry_cell_setting            triclinic
loop_
_symmetry_equiv_pos_as_xyz
  x,y,z
_cell_length_a                    22.2798
_cell_length_b                    26.0753
_cell_length_c                    26.7629
_cell_angle_alpha                 94.0154
_cell_angle_beta                  77.2883
_cell_angle_gamma                 103.1605
loop_
_atom_site_label
_atom_site_type_symbol
_atom_site_fract_x
_atom_site_fract_y
_atom_site_fract_z
_atom_site_U_iso_or_equiv
_atom_site_adp_type
_atom_site_occupancy
C1     C     0.18181   0.26674   0.25144   0.00000  Uiso   1.00
C2     C     0.14079   0.16626   0.48731   0.00000  Uiso   1.00
C3     C     0.15427   0.18372   0.43615   0.00000  Uiso   1.00
C4     C     0.18746   0.18283   0.01750   0.00000  Uiso   1.00
C5     C     0.24337   0.22023   0.49797   0.00000  Uiso   1.00
C6     C     0.25307   0.24029   0.44927   0.00000  Uiso   1.00
C7     C     0.20905   0.22279   0.41904   0.00000  Uiso   1.00
C8     C     0.18005   0.16384   0.06674   0.00000  Uiso   1.00
C9     C     0.27751   0.22369   0.07887   0.00000  Uiso   1.00
C10    C     0.11216   0.16217   0.40341   0.00000  Uiso   1.00
C11    C     0.19038   0.32269   0.25206   0.00000  Uiso   1.00
C12    C     0.13299   0.16522   0.34729   0.00000  Uiso   1.00
C13    C     0.14311   0.01063   0.24751   0.00000  Uiso   1.00
C14    C     0.15159   0.06659   0.24840   0.00000  Uiso   1.00
C15    C     0.20104   0.17272   0.15308   0.00000  Uiso   1.00
C16    C     0.28816   0.23917   0.02805   0.00000  Uiso   1.00
C17    C     0.22243   0.18522   0.09836   0.00000  Uiso   1.00
C18    C     0.05276   0.13119   0.42400   0.00000  Uiso   1.00
C19    C     0.03675   0.11831   0.47542   0.00000  Uiso   1.00
C20    C     0.08055   0.13414   0.00648   0.00000  Uiso   1.00
Cu21   Cu    0.10710   0.16105   0.24435   0.00000  Uiso   1.00
Cu22   Cu    0.22623   0.17228   0.25565   0.00000  Uiso   1.00
H23    H     0.09758   0.32014   0.24317   0.00000  Uiso   1.00
H24    H     0.00368   0.20602   0.28959   0.00000  Uiso   1.00
H25    H     0.32963   0.12730   0.21043   0.00000  Uiso   1.00
H26    H     0.29473   0.27015   0.43457   0.00000  Uiso   1.00
H27    H     0.33028   0.26834   0.01266   0.00000  Uiso   1.00
H28    H     0.14021   0.13321   0.08236   0.00000  Uiso   1.00
H29    H     0.01950   0.11515   0.39985   0.00000  Uiso   1.00
H30    H     0.06501   0.12190   0.04570   0.00000  Uiso   1.00
H31    H     0.32408   0.09427   0.49096   0.00000  Uiso   1.00
H32    H     0.21774   0.24158   0.38261   0.00000  Uiso   1.00
H33    H     0.23594   0.01317   0.25635   0.00000  Uiso   1.00
N34    N     0.31574   0.18074   0.26416   0.00000  Uiso   1.00
N35    N     0.01759   0.15259   0.23584   0.00000  Uiso   1.00
O36    O     0.12797   0.23807   0.24633   0.00000  Uiso   1.00
O37    O     0.22858   0.24755   0.25587   0.00000  Uiso   1.00
O38    O     0.09181   0.15960   0.31839   0.00000  Uiso   1.00
O39    O     0.19242   0.16908   0.32793   0.00000  Uiso   1.00
O40    O     0.10476   0.08578   0.24413   0.00000  Uiso   1.00
O41    O     0.20536   0.09526   0.25367   0.00000  Uiso   1.00
O42    O     0.14092   0.16425   0.17207   0.00000  Uiso   1.00
O43    O     0.24152   0.17373   0.18161   0.00000  Uiso   1.00
C44    C     0.32264   0.25275   0.11160   0.00000  Uiso   1.00
C45    C     0.04081   0.22327   0.11266   0.00000  Uiso   1.00
H46    H     0.06948   0.24288   0.14052   0.00000  Uiso   1.00
H47    H     0.02033   0.18176   0.12394   0.00000  Uiso   1.00
H48    H     0.07224   0.22394   0.07419   0.00000  Uiso   1.00
H49    H     0.01244   0.29257   0.09615   0.00000  Uiso   1.00
H50    H     0.29724   0.26021   0.15100   0.00000  Uiso   1.00
C51    C     0.51514   0.26674   0.25144   0.00000  Uiso   1.00
C52    C     0.47412   0.16626   0.48731   0.00000  Uiso   1.00
C53    C     0.48760   0.18372   0.43615   0.00000  Uiso   1.00
C54    C     0.52079   0.18283   0.01750   0.00000  Uiso   1.00
C55    C     0.57671   0.22023   0.49797   0.00000  Uiso   1.00
C56    C     0.58640   0.24029   0.44927   0.00000  Uiso   1.00
C57    C     0.54238   0.22279   0.41904   0.00000  Uiso   1.00
C58    C     0.51339   0.16384   0.06674   0.00000  Uiso   1.00
C59    C     0.61084   0.22369   0.07887   0.00000  Uiso   1.00
C60    C     0.44550   0.16217   0.40341   0.00000  Uiso   1.00
C61    C     0.52371   0.32269   0.25206   0.00000  Uiso   1.00
C62    C     0.46633   0.16522   0.34729   0.00000  Uiso   1.00
C63    C     0.47645   0.01063   0.24751   0.00000  Uiso   1.00
C64    C     0.48492   0.06659   0.24840   0.00000  Uiso   1.00
C65    C     0.53438   0.17272   0.15308   0.00000  Uiso   1.00
C66    C     0.62150   0.23917   0.02805   0.00000  Uiso   1.00
C67    C     0.55577   0.18522   0.09836   0.00000  Uiso   1.00
C68    C     0.38609   0.13119   0.42400   0.00000  Uiso   1.00
C69    C     0.37008   0.11831   0.47542   0.00000  Uiso   1.00
C70    C     0.41389   0.13414   0.00648   0.00000  Uiso   1.00
Cu71   Cu    0.44043   0.16105   0.24435   0.00000  Uiso   1.00
Cu72   Cu    0.55957   0.17228   0.25565   0.00000  Uiso   1.00
H73    H     0.43091   0.32014   0.24317   0.00000  Uiso   1.00
H74    H     0.33702   0.20602   0.28959   0.00000  Uiso   1.00
H75    H     0.66297   0.12730   0.21043   0.00000  Uiso   1.00
H76    H     0.62806   0.27015   0.43457   0.00000  Uiso   1.00
H77    H     0.66361   0.26834   0.01266   0.00000  Uiso   1.00
H78    H     0.47354   0.13321   0.08236   0.00000  Uiso   1.00
H79    H     0.35283   0.11515   0.39985   0.00000  Uiso   1.00
H80    H     0.39834   0.12190   0.04570   0.00000  Uiso   1.00
H81    H     0.65742   0.09427   0.49096   0.00000  Uiso   1.00
H82    H     0.55107   0.24158   0.38261   0.00000  Uiso   1.00
H83    H     0.56927   0.01317   0.25635   0.00000  Uiso   1.00
N84    N     0.64908   0.18074   0.26416   0.00000  Uiso   1.00
N85    N     0.35092   0.15259   0.23584   0.00000  Uiso   1.00
O86    O     0.46131   0.23807   0.24633   0.00000  Uiso   1.00
O87    O     0.56191   0.24755   0.25587   0.00000  Uiso   1.00
O88    O     0.42515   0.15960   0.31839   0.00000  Uiso   1.00
O89    O     0.52575   0.16908   0.32793   0.00000  Uiso   1.00
O90    O     0.43809   0.08578   0.24413   0.00000  Uiso   1.00
O91    O     0.53869   0.09526   0.25367   0.00000  Uiso   1.00
O92    O     0.47425   0.16425   0.17207   0.00000  Uiso   1.00
O93    O     0.57485   0.17373   0.18161   0.00000  Uiso   1.00
C94    C     0.65597   0.25275   0.11160   0.00000  Uiso   1.00
C95    C     0.37414   0.22327   0.11266   0.00000  Uiso   1.00
H96    H     0.40282   0.24288   0.14052   0.00000  Uiso   1.00
H97    H     0.35366   0.18176   0.12394   0.00000  Uiso   1.00
H98    H     0.40558   0.22394   0.07419   0.00000  Uiso   1.00
H99    H     0.34577   0.29257   0.09615   0.00000  Uiso   1.00
H100   H     0.63057   0.26021   0.15100   0.00000  Uiso   1.00
C101   C     0.84848   0.26674   0.25144   0.00000  Uiso   1.00
C102   C     0.80745   0.16626   0.48731   0.00000  Uiso   1.00
C103   C     0.82093   0.18372   0.43615   0.00000  Uiso   1.00
C104   C     0.85413   0.18283   0.01750   0.00000  Uiso   1.00
C105   C     0.91004   0.22023   0.49797   0.00000  Uiso   1.00
C106   C     0.91974   0.24029   0.44927   0.00000  Uiso   1.00
C107   C     0.87571   0.22279   0.41904   0.00000  Uiso   1.00
C108   C     0.84672   0.16384   0.06674   0.00000  Uiso   1.00
C109   C     0.94418   0.22369   0.07887   0.00000  Uiso   1.00
C110   C     0.77883   0.16217   0.40341   0.00000  Uiso   1.00
C111   C     0.85705   0.32269   0.25206   0.00000  Uiso   1.00
C112   C     0.79966   0.16522   0.34729   0.00000  Uiso   1.00
C113   C     0.80978   0.01063   0.24751   0.00000  Uiso   1.00
C114   C     0.81825   0.06659   0.24840   0.00000  Uiso   1.00
C115   C     0.86771   0.17272   0.15308   0.00000  Uiso   1.00
C116   C     0.95483   0.23917   0.02805   0.00000  Uiso   1.00
C117   C     0.88910   0.18522   0.09836   0.00000  Uiso   1.00
C118   C     0.71943   0.13119   0.42400   0.00000  Uiso   1.00
C119   C     0.70342   0.11831   0.47542   0.00000  Uiso   1.00
C120   C     0.74722   0.13414   0.00648   0.00000  Uiso   1.00
Cu121  Cu    0.77377   0.16105   0.24435   0.00000  Uiso   1.00
Cu122  Cu    0.89290   0.17228   0.25565   0.00000  Uiso   1.00
H123   H     0.76424   0.32014   0.24317   0.00000  Uiso   1.00
H124   H     0.67035   0.20602   0.28959   0.00000  Uiso   1.00
H125   H     0.99630   0.12730   0.21043   0.00000  Uiso   1.00
H126   H     0.96139   0.27015   0.43457   0.00000  Uiso   1.00
H127   H     0.99694   0.26834   0.01266   0.00000  Uiso   1.00
H128   H     0.80687   0.13321   0.08236   0.00000  Uiso   1.00
H129   H     0.68616   0.11515   0.39985   0.00000  Uiso   1.00
H130   H     0.73167   0.12190   0.04570   0.00000  Uiso   1.00
H131   H     0.99075   0.09427   0.49096   0.00000  Uiso   1.00
H132   H     0.88441   0.24158   0.38261   0.00000  Uiso   1.00
H133   H     0.90260   0.01317   0.25635   0.00000  Uiso   1.00
N134   N     0.98241   0.18074   0.26416   0.00000  Uiso   1.00
N135   N     0.68426   0.15259   0.23584   0.00000  Uiso   1.00
O136   O     0.79464   0.23807   0.24633   0.00000  Uiso   1.00
O137   O     0.89524   0.24755   0.25587   0.00000  Uiso   1.00
O138   O     0.75848   0.15960   0.31839   0.00000  Uiso   1.00
O139   O     0.85908   0.16908   0.32793   0.00000  Uiso   1.00
O140   O     0.77142   0.08578   0.24413   0.00000  Uiso   1.00
O141   O     0.87203   0.09526   0.25367   0.00000  Uiso   1.00
O142   O     0.80758   0.16425   0.17207   0.00000  Uiso   1.00
O143   O     0.90819   0.17373   0.18161   0.00000  Uiso   1.00
C144   C     0.98931   0.25275   0.11160   0.00000  Uiso   1.00
C145   C     0.70747   0.22327   0.11266   0.00000  Uiso   1.00
H146   H     0.73615   0.24288   0.14052   0.00000  Uiso   1.00
H147   H     0.68699   0.18176   0.12394   0.00000  Uiso   1.00
H148   H     0.73891   0.22394   0.07419   0.00000  Uiso   1.00
H149   H     0.67911   0.29257   0.09615   0.00000  Uiso   1.00
H150   H     0.96391   0.26021   0.15100   0.00000  Uiso   1.00
C151   C     0.18181   0.60007   0.25144   0.00000  Uiso   1.00
C152   C     0.14079   0.49959   0.48731   0.00000  Uiso   1.00
C153   C     0.15427   0.51705   0.43615   0.00000  Uiso   1.00
C154   C     0.18746   0.51616   0.01750   0.00000  Uiso   1.00
C155   C     0.24337   0.55357   0.49797   0.00000  Uiso   1.00
C156   C     0.25307   0.57362   0.44927   0.00000  Uiso   1.00
C157   C     0.20905   0.55613   0.41904   0.00000  Uiso   1.00
C158   C     0.18005   0.49717   0.06674   0.00000  Uiso   1.00
C159   C     0.27751   0.55702   0.07887   0.00000  Uiso   1.00
C160   C     0.11216   0.49550   0.40341   0.00000  Uiso   1.00
C161   C     0.19038   0.65603   0.25206   0.00000  Uiso   1.00
C162   C     0.13299   0.49856   0.34729   0.00000  Uiso   1.00
C163   C     0.14311   0.34396   0.24751   0.00000  Uiso   1.00
C164   C     0.15159   0.39992   0.24840   0.00000  Uiso   1.00
C165   C     0.20104   0.50605   0.15308   0.00000  Uiso   1.00
C166   C     0.28816   0.57250   0.02805   0.00000  Uiso   1.00
C167   C     0.22243   0.51855   0.09836   0.00000  Uiso   1.00
C168   C     0.05276   0.46452   0.42400   0.00000  Uiso   1.00
C169   C     0.03675   0.45165   0.47542   0.00000  Uiso   1.00
C170   C     0.08055   0.46748   0.00648   0.00000  Uiso   1.00
Cu171  Cu    0.10710   0.49439   0.24435   0.00000  Uiso   1.00
Cu172  Cu    0.22623   0.50561   0.25565   0.00000  Uiso   1.00
H173   H     0.09758   0.65348   0.24317   0.00000  Uiso   1.00
H174   H     0.00368   0.53935   0.28959   0.00000  Uiso   1.00
H175   H     0.32963   0.46064   0.21043   0.00000  Uiso   1.00
H176   H     0.29473   0.60349   0.43457   0.00000  Uiso   1.00
H177   H     0.33028   0.60167   0.01266   0.00000  Uiso   1.00
H178   H     0.14021   0.46654   0.08236   0.00000  Uiso   1.00
H179   H     0.01950   0.44848   0.39985   0.00000  Uiso   1.00
H180   H     0.06501   0.45523   0.04570   0.00000  Uiso   1.00
H181   H     0.32408   0.42761   0.49096   0.00000  Uiso   1.00
H182   H     0.21774   0.57491   0.38261   0.00000  Uiso   1.00
H183   H     0.23594   0.34650   0.25635   0.00000  Uiso   1.00
N184   N     0.31574   0.51407   0.26416   0.00000  Uiso   1.00
N185   N     0.01759   0.48593   0.23584   0.00000  Uiso   1.00
O186   O     0.12797   0.57141   0.24633   0.00000  Uiso   1.00
O187   O     0.22858   0.58089   0.25587   0.00000  Uiso   1.00
O188   O     0.09181   0.49293   0.31839   0.00000  Uiso   1.00
O189   O     0.19242   0.50241   0.32793   0.00000  Uiso   1.00
O190   O     0.10476   0.41911   0.24413   0.00000  Uiso   1.00
O191   O     0.20536   0.42859   0.25367   0.00000  Uiso   1.00
O192   O     0.14092   0.49759   0.17207   0.00000  Uiso   1.00
O193   O     0.24152   0.50707   0.18161   0.00000  Uiso   1.00
C194   C     0.32264   0.58608   0.11160   0.00000  Uiso   1.00
C195   C     0.04081   0.55660   0.11266   0.00000  Uiso   1.00
H196   H     0.06948   0.57622   0.14052   0.00000  Uiso   1.00
H197   H     0.02033   0.51509   0.12394   0.00000  Uiso   1.00
H198   H     0.07224   0.55727   0.07419   0.00000  Uiso   1.00
H199   H     0.01244   0.62590   0.09615   0.00000  Uiso   1.00
H200   H     0.29724   0.59355   0.15100   0.00000  Uiso   1.00
C201   C     0.51514   0.60007   0.25144   0.00000  Uiso   1.00
C202   C     0.47412   0.49959   0.48731   0.00000  Uiso   1.00
C203   C     0.48760   0.51705   0.43615   0.00000  Uiso   1.00
C204   C     0.52079   0.51616   0.01750   0.00000  Uiso   1.00
C205   C     0.57671   0.55357   0.49797   0.00000  Uiso   1.00
C206   C     0.58640   0.57362   0.44927   0.00000  Uiso   1.00
C207   C     0.54238   0.55613   0.41904   0.00000  Uiso   1.00
C208   C     0.51339   0.49717   0.06674   0.00000  Uiso   1.00
C209   C     0.61084   0.55702   0.07887   0.00000  Uiso   1.00
C210   C     0.44550   0.49550   0.40341   0.00000  Uiso   1.00
C211   C     0.52371   0.65603   0.25206   0.00000  Uiso   1.00
C212   C     0.46633   0.49856   0.34729   0.00000  Uiso   1.00
C213   C     0.47645   0.34396   0.24751   0.00000  Uiso   1.00
C214   C     0.48492   0.39992   0.24840   0.00000  Uiso   1.00
C215   C     0.53438   0.50605   0.15308   0.00000  Uiso   1.00
C216   C     0.62150   0.57250   0.02805   0.00000  Uiso   1.00
C217   C     0.55577   0.51855   0.09836   0.00000  Uiso   1.00
C218   C     0.38609   0.46452   0.42400   0.00000  Uiso   1.00
C219   C     0.37008   0.45165   0.47542   0.00000  Uiso   1.00
C220   C     0.41389   0.46748   0.00648   0.00000  Uiso   1.00
Cu221  Cu    0.44043   0.49439   0.24435   0.00000  Uiso   1.00
Cu222  Cu    0.55957   0.50561   0.25565   0.00000  Uiso   1.00
H223   H     0.43091   0.65348   0.24317   0.00000  Uiso   1.00
H224   H     0.33702   0.53935   0.28959   0.00000  Uiso   1.00
H225   H     0.66297   0.46064   0.21043   0.00000  Uiso   1.00
H226   H     0.62806   0.60349   0.43457   0.00000  Uiso   1.00
H227   H     0.66361   0.60167   0.01266   0.00000  Uiso   1.00
H228   H     0.47354   0.46654   0.08236   0.00000  Uiso   1.00
H229   H     0.35283   0.44848   0.39985   0.00000  Uiso   1.00
H230   H     0.39834   0.45523   0.04570   0.00000  Uiso   1.00
H231   H     0.65742   0.42761   0.49096   0.00000  Uiso   1.00
H232   H     0.55107   0.57491   0.38261   0.00000  Uiso   1.00
H233   H     0.56927   0.34650   0.25635   0.00000  Uiso   1.00
N234   N     0.64908   0.51407   0.26416   0.00000  Uiso   1.00
N235   N     0.35092   0.48593   0.23584   0.00000  Uiso   1.00
O236   O     0.46131   0.57141   0.24633   0.00000  Uiso   1.00
O237   O     0.56191   0.58089   0.25587   0.00000  Uiso   1.00
O238   O     0.42515   0.49293   0.31839   0.00000  Uiso   1.00
O239   O     0.52575   0.50241   0.32793   0.00000  Uiso   1.00
O240   O     0.43809   0.41911   0.24413   0.00000  Uiso   1.00
O241   O     0.53869   0.42859   0.25367   0.00000  Uiso   1.00
O242   O     0.47425   0.49759   0.17207   0.00000  Uiso   1.00
O243   O     0.57485   0.50707   0.18161   0.00000  Uiso   1.00
C244   C     0.65597   0.58608   0.11160   0.00000  Uiso   1.00
C245   C     0.37414   0.55660   0.11266   0.00000  Uiso   1.00
H246   H     0.40282   0.57622   0.14052   0.00000  Uiso   1.00
H247   H     0.35366   0.51509   0.12394   0.00000  Uiso   1.00
H248   H     0.40558   0.55727   0.07419   0.00000  Uiso   1.00
H249   H     0.34577   0.62590   0.09615   0.00000  Uiso   1.00
H250   H     0.63057   0.59355   0.15100   0.00000  Uiso   1.00
C251   C     0.84848   0.60007   0.25144   0.00000  Uiso   1.00
C252   C     0.80745   0.49959   0.48731   0.00000  Uiso   1.00
C253   C     0.82093   0.51705   0.43615   0.00000  Uiso   1.00
C254   C     0.85413   0.51616   0.01750   0.00000  Uiso   1.00
C255   C     0.91004   0.55357   0.49797   0.00000  Uiso   1.00
C256   C     0.91974   0.57362   0.44927   0.00000  Uiso   1.00
C257   C     0.87571   0.55613   0.41904   0.00000  Uiso   1.00
C258   C     0.84672   0.49717   0.06674   0.00000  Uiso   1.00
C259   C     0.94418   0.55702   0.07887   0.00000  Uiso   1.00
C260   C     0.77883   0.49550   0.40341   0.00000  Uiso   1.00
C261   C     0.85705   0.65603   0.25206   0.00000  Uiso   1.00
C262   C     0.79966   0.49856   0.34729   0.00000  Uiso   1.00
C263   C     0.80978   0.34396   0.24751   0.00000  Uiso   1.00
C264   C     0.81825   0.39992   0.24840   0.00000  Uiso   1.00
C265   C     0.86771   0.50605   0.15308   0.00000  Uiso   1.00
C266   C     0.95483   0.57250   0.02805   0.00000  Uiso   1.00
C267   C     0.88910   0.51855   0.09836   0.00000  Uiso   1.00
C268   C     0.71943   0.46452   0.42400   0.00000  Uiso   1.00
C269   C     0.70342   0.45165   0.47542   0.00000  Uiso   1.00
C270   C     0.74722   0.46748   0.00648   0.00000  Uiso   1.00
Cu271  Cu    0.77377   0.49439   0.24435   0.00000  Uiso   1.00
Cu272  Cu    0.89290   0.50561   0.25565   0.00000  Uiso   1.00
H273   H     0.76424   0.65348   0.24317   0.00000  Uiso   1.00
H274   H     0.67035   0.53935   0.28959   0.00000  Uiso   1.00
H275   H     0.99630   0.46064   0.21043   0.00000  Uiso   1.00
H276   H     0.96139   0.60349   0.43457   0.00000  Uiso   1.00
H277   H     0.99694   0.60167   0.01266   0.00000  Uiso   1.00
H278   H     0.80687   0.46654   0.08236   0.00000  Uiso   1.00
H279   H     0.68616   0.44848   0.39985   0.00000  Uiso   1.00
H280   H     0.73167   0.45523   0.04570   0.00000  Uiso   1.00
H281   H     0.99075   0.42761   0.49096   0.00000  Uiso   1.00
H282   H     0.88441   0.57491   0.38261   0.00000  Uiso   1.00
H283   H     0.90260   0.34650   0.25635   0.00000  Uiso   1.00
N284   N     0.98241   0.51407   0.26416   0.00000  Uiso   1.00
N285   N     0.68426   0.48593   0.23584   0.00000  Uiso   1.00
O286   O     0.79464   0.57141   0.24633   0.00000  Uiso   1.00
O287   O     0.89524   0.58089   0.25587   0.00000  Uiso   1.00
O288   O     0.75848   0.49293   0.31839   0.00000  Uiso   1.00
O289   O     0.85908   0.50241   0.32793   0.00000  Uiso   1.00
O290   O     0.77142   0.41911   0.24413   0.00000  Uiso   1.00
O291   O     0.87203   0.42859   0.25367   0.00000  Uiso   1.00
O292   O     0.80758   0.49759   0.17207   0.00000  Uiso   1.00
O293   O     0.90819   0.50707   0.18161   0.00000  Uiso   1.00
C294   C     0.98931   0.58608   0.11160   0.00000  Uiso   1.00
C295   C     0.70747   0.55660   0.11266   0.00000  Uiso   1.00
H296   H     0.73615   0.57622   0.14052   0.00000  Uiso   1.00
H297   H     0.68699   0.51509   0.12394   0.00000  Uiso   1.00
H298   H     0.73891   0.55727   0.07419   0.00000  Uiso   1.00
H299   H     0.67911   0.62590   0.09615   0.00000  Uiso   1.00
H300   H     0.96391   0.59355   0.15100   0.00000  Uiso   1.00
C301   C     0.18181   0.93341   0.25144   0.00000  Uiso   1.00
C302   C     0.14079   0.83292   0.48731   0.00000  Uiso   1.00
C303   C     0.15427   0.85039   0.43615   0.00000  Uiso   1.00
C304   C     0.18746   0.84949   0.01750   0.00000  Uiso   1.00
C305   C     0.24337   0.88690   0.49797   0.00000  Uiso   1.00
C306   C     0.25307   0.90696   0.44927   0.00000  Uiso   1.00
C307   C     0.20905   0.88946   0.41904   0.00000  Uiso   1.00
C308   C     0.18005   0.83050   0.06674   0.00000  Uiso   1.00
C309   C     0.27751   0.89035   0.07887   0.00000  Uiso   1.00
C310   C     0.11216   0.82883   0.40341   0.00000  Uiso   1.00
C311   C     0.19038   0.98936   0.25206   0.00000  Uiso   1.00
C312   C     0.13299   0.83189   0.34729   0.00000  Uiso   1.00
C313   C     0.14311   0.67729   0.24751   0.00000  Uiso   1.00
C314   C     0.15159   0.73326   0.24840   0.00000  Uiso   1.00
C315   C     0.20104   0.83939   0.15308   0.00000  Uiso   1.00
C316   C     0.28816   0.90584   0.02805   0.00000  Uiso   1.00
C317   C     0.22243   0.85188   0.09836   0.00000  Uiso   1.00
C318   C     0.05276   0.79786   0.42400   0.00000  Uiso   1.00
C319   C     0.03675   0.78498   0.47542   0.00000  Uiso   1.00
C320   C     0.08055   0.80081   0.00648   0.00000  Uiso   1.00
Cu321  Cu    0.10710   0.82772   0.24435   0.00000  Uiso   1.00
Cu322  Cu    0.22623   0.83895   0.25565   0.00000  Uiso   1.00
H323   H     0.09758   0.98681   0.24317   0.00000  Uiso   1.00
H324   H     0.00368   0.87268   0.28959   0.00000  Uiso   1.00
H325   H     0.32963   0.79397   0.21043   0.00000  Uiso   1.00
H326   H     0.29473   0.93682   0.43457   0.00000  Uiso   1.00
H327   H     0.33028   0.93500   0.01266   0.00000  Uiso   1.00
H328   H     0.14021   0.79987   0.08236   0.00000  Uiso   1.00
H329   H     0.01950   0.78182   0.39985   0.00000  Uiso   1.00
H330   H     0.06501   0.78856   0.04570   0.00000  Uiso   1.00
H331   H     0.32408   0.76094   0.49096   0.00000  Uiso   1.00
H332   H     0.21774   0.90825   0.38261   0.00000  Uiso   1.00
H333   H     0.23594   0.67984   0.25635   0.00000  Uiso   1.00
N334   N     0.31574   0.84741   0.26416   0.00000  Uiso   1.00
N335   N     0.01759   0.81926   0.23584   0.00000  Uiso   1.00
O336   O     0.12797   0.90474   0.24633   0.00000  Uiso   1.00
O337   O     0.22858   0.91422   0.25587   0.00000  Uiso   1.00
O338   O     0.09181   0.82627   0.31839   0.00000  Uiso   1.00
O339   O     0.19242   0.83575   0.32793   0.00000  Uiso   1.00
O340   O     0.10476   0.75245   0.24413   0.00000  Uiso   1.00
O341   O     0.20536   0.76193   0.25367   0.00000  Uiso   1.00
O342   O     0.14092   0.83092   0.17207   0.00000  Uiso   1.00
O343   O     0.24152   0.84040   0.18161   0.00000  Uiso   1.00
C344   C     0.32264   0.91942   0.11160   0.00000  Uiso   1.00
C345   C     0.04081   0.88994   0.11266   0.00000  Uiso   1.00
H346   H     0.06948   0.90955   0.14052   0.00000  Uiso   1.00
H347   H     0.02033   0.84842   0.12394   0.00000  Uiso   1.00
H348   H     0.07224   0.89060   0.07419   0.00000  Uiso   1.00
H349   H     0.01244   0.95924   0.09615   0.00000  Uiso   1.00
H350   H     0.29724   0.92688   0.15100   0.00000  Uiso   1.00
C351   C     0.51514   0.93341   0.25144   0.00000  Uiso   1.00
C352   C     0.47412   0.83292   0.48731   0.00000  Uiso   1.00
C353   C     0.48760   0.85039   0.43615   0.00000  Uiso   1.00
C354   C     0.52079   0.84949   0.01750   0.00000  Uiso   1.00
C355   C     0.57671   0.88690   0.49797   0.00000  Uiso   1.00
C356   C     0.58640   0.90696   0.44927   0.00000  Uiso   1.00
C357   C     0.54238   0.88946   0.41904   0.00000  Uiso   1.00
C358   C     0.51339   0.83050   0.06674   0.00000  Uiso   1.00
C359   C     0.61084   0.89035   0.07887   0.00000  Uiso   1.00
C360   C     0.44550   0.82883   0.40341   0.00000  Uiso   1.00
C361   C     0.52371   0.98936   0.25206   0.00000  Uiso   1.00
C362   C     0.46633   0.83189   0.34729   0.00000  Uiso   1.00
C363   C     0.47645   0.67729   0.24751   0.00000  Uiso   1.00
C364   C     0.48492   0.73326   0.24840   0.00000  Uiso   1.00
C365   C     0.53438   0.83939   0.15308   0.00000  Uiso   1.00
C366   C     0.62150   0.90584   0.02805   0.00000  Uiso   1.00
C367   C     0.55577   0.85188   0.09836   0.00000  Uiso   1.00
C368   C     0.38609   0.79786   0.42400   0.00000  Uiso   1.00
C369   C     0.37008   0.78498   0.47542   0.00000  Uiso   1.00
C370   C     0.41389   0.80081   0.00648   0.00000  Uiso   1.00
Cu371  Cu    0.44043   0.82772   0.24435   0.00000  Uiso   1.00
Cu372  Cu    0.55957   0.83895   0.25565   0.00000  Uiso   1.00
H373   H     0.43091   0.98681   0.24317   0.00000  Uiso   1.00
H374   H     0.33702   0.87268   0.28959   0.00000  Uiso   1.00
H375   H     0.66297   0.79397   0.21043   0.00000  Uiso   1.00
H376   H     0.62806   0.93682   0.43457   0.00000  Uiso   1.00
H377   H     0.66361   0.93500   0.01266   0.00000  Uiso   1.00
H378   H     0.47354   0.79987   0.08236   0.00000  Uiso   1.00
H379   H     0.35283   0.78182   0.39985   0.00000  Uiso   1.00
H380   H     0.39834   0.78856   0.04570   0.00000  Uiso   1.00
H381   H     0.65742   0.76094   0.49096   0.00000  Uiso   1.00
H382   H     0.55107   0.90825   0.38261   0.00000  Uiso   1.00
H383   H     0.56927   0.67984   0.25635   0.00000  Uiso   1.00
N384   N     0.64908   0.84741   0.26416   0.00000  Uiso   1.00
N385   N     0.35092   0.81926   0.23584   0.00000  Uiso   1.00
O386   O     0.46131   0.90474   0.24633   0.00000  Uiso   1.00
O387   O     0.56191   0.91422   0.25587   0.00000  Uiso   1.00
O388   O     0.42515   0.82627   0.31839   0.00000  Uiso   1.00
O389   O     0.52575   0.83575   0.32793   0.00000  Uiso   1.00
O390   O     0.43809   0.75245   0.24413   0.00000  Uiso   1.00
O391   O     0.53869   0.76193   0.25367   0.00000  Uiso   1.00
O392   O     0.47425   0.83092   0.17207   0.00000  Uiso   1.00
O393   O     0.57485   0.84040   0.18161   0.00000  Uiso   1.00
C394   C     0.65597   0.91942   0.11160   0.00000  Uiso   1.00
C395   C     0.37414   0.88994   0.11266   0.00000  Uiso   1.00
H396   H     0.40282   0.90955   0.14052   0.00000  Uiso   1.00
H397   H     0.35366   0.84842   0.12394   0.00000  Uiso   1.00
H398   H     0.40558   0.89060   0.07419   0.00000  Uiso   1.00
H399   H     0.34577   0.95924   0.09615   0.00000  Uiso   1.00
H400   H     0.63057   0.92688   0.15100   0.00000  Uiso   1.00
C401   C     0.84848   0.93341   0.25144   0.00000  Uiso   1.00
C402   C     0.80745   0.83292   0.48731   0.00000  Uiso   1.00
C403   C     0.82093   0.85039   0.43615   0.00000  Uiso   1.00
C404   C     0.85413   0.84949   0.01750   0.00000  Uiso   1.00
C405   C     0.91004   0.88690   0.49797   0.00000  Uiso   1.00
C406   C     0.91974   0.90696   0.44927   0.00000  Uiso   1.00
C407   C     0.87571   0.88946   0.41904   0.00000  Uiso   1.00
C408   C     0.84672   0.83050   0.06674   0.00000  Uiso   1.00
C409   C     0.94418   0.89035   0.07887   0.00000  Uiso   1.00
C410   C     0.77883   0.82883   0.40341   0.00000  Uiso   1.00
C411   C     0.85705   0.98936   0.25206   0.00000  Uiso   1.00
C412   C     0.79966   0.83189   0.34729   0.00000  Uiso   1.00
C413   C     0.80978   0.67729   0.24751   0.00000  Uiso   1.00
C414   C     0.81825   0.73326   0.24840   0.00000  Uiso   1.00
C415   C     0.86771   0.83939   0.15308   0.00000  Uiso   1.00
C416   C     0.95483   0.90584   0.02805   0.00000  Uiso   1.00
C417   C     0.88910   0.85188   0.09836   0.00000  Uiso   1.00
C418   C     0.71943   0.79786   0.42400   0.00000  Uiso   1.00
C419   C     0.70342   0.78498   0.47542   0.00000  Uiso   1.00
C420   C     0.74722   0.80081   0.00648   0.00000  Uiso   1.00
Cu421  Cu    0.77377   0.82772   0.24435   0.00000  Uiso   1.00
Cu422  Cu    0.89290   0.83895   0.25565   0.00000  Uiso   1.00
H423   H     0.76424   0.98681   0.24317   0.00000  Uiso   1.00
H424   H     0.67035   0.87268   0.28959   0.00000  Uiso   1.00
H425   H     0.99630   0.79397   0.21043   0.00000  Uiso   1.00
H426   H     0.96139   0.93682   0.43457   0.00000  Uiso   1.00
H427   H     0.99694   0.93500   0.01266   0.00000  Uiso   1.00
H428   H     0.80687   0.79987   0.08236   0.00000  Uiso   1.00
H429   H     0.68616   0.78182   0.39985   0.00000  Uiso   1.00
H430   H     0.73167   0.78856   0.04570   0.00000  Uiso   1.00
H431   H     0.99075   0.76094   0.49096   0.00000  Uiso   1.00
H432   H     0.88441   0.90825   0.38261   0.00000  Uiso   1.00
H433   H     0.90260   0.67984   0.25635   0.00000  Uiso   1.00
N434   N     0.98241   0.84741   0.26416   0.00000  Uiso   1.00
N435   N     0.68426   0.81926   0.23584   0.00000  Uiso   1.00
O436   O     0.79464   0.90474   0.24633   0.00000  Uiso   1.00
O437   O     0.89524   0.91422   0.25587   0.00000  Uiso   1.00
O438   O     0.75848   0.82627   0.31839   0.00000  Uiso   1.00
O439   O     0.85908   0.83575   0.32793   0.00000  Uiso   1.00
O440   O     0.77142   0.75245   0.24413   0.00000  Uiso   1.00
O441   O     0.87203   0.76193   0.25367   0.00000  Uiso   1.00
O442   O     0.80758   0.83092   0.17207   0.00000  Uiso   1.00
O443   O     0.90819   0.84040   0.18161   0.00000  Uiso   1.00
C444   C     0.98931   0.91942   0.11160   0.00000  Uiso   1.00
C445   C     0.70747   0.88994   0.11266   0.00000  Uiso   1.00
H446   H     0.73615   0.90955   0.14052   0.00000  Uiso   1.00
H447   H     0.68699   0.84842   0.12394   0.00000  Uiso   1.00
H448   H     0.73891   0.89060   0.07419   0.00000  Uiso   1.00
H449   H     0.67911   0.95924   0.09615   0.00000  Uiso   1.00
H450   H     0.96391   0.92688   0.15100   0.00000  Uiso   1.00
C451   C     0.18181   0.26674   0.75144   0.00000  Uiso   1.00
C452   C     0.14079   0.16626   0.98731   0.00000  Uiso   1.00
C453   C     0.15427   0.18372   0.93615   0.00000  Uiso   1.00
C454   C     0.18746   0.18283   0.51750   0.00000  Uiso   1.00
C455   C     0.24337   0.22023   0.99797   0.00000  Uiso   1.00
C456   C     0.25307   0.24029   0.94927   0.00000  Uiso   1.00
C457   C     0.20905   0.22279   0.91904   0.00000  Uiso   1.00
C458   C     0.18005   0.16384   0.56674   0.00000  Uiso   1.00
C459   C     0.27751   0.22369   0.57887   0.00000  Uiso   1.00
C460   C     0.11216   0.16217   0.90341   0.00000  Uiso   1.00
C461   C     0.19038   0.32269   0.75206   0.00000  Uiso   1.00
C462   C     0.13299   0.16522   0.84729   0.00000  Uiso   1.00
C463   C     0.14311   0.01063   0.74751   0.00000  Uiso   1.00
C464   C     0.15159   0.06659   0.74840   0.00000  Uiso   1.00
C465   C     0.20104   0.17272   0.65308   0.00000  Uiso   1.00
C466   C     0.28816   0.23917   0.52805   0.00000  Uiso   1.00
C467   C     0.22243   0.18522   0.59836   0.00000  Uiso   1.00
C468   C     0.05276   0.13119   0.92400   0.00000  Uiso   1.00
C469   C     0.03675   0.11831   0.97542   0.00000  Uiso   1.00
C470   C     0.08055   0.13414   0.50648   0.00000  Uiso   1.00
Cu471  Cu    0.10710   0.16105   0.74435   0.00000  Uiso   1.00
Cu472  Cu    0.22623   0.17228   0.75565   0.00000  Uiso   1.00
H473   H     0.09758   0.32014   0.74317   0.00000  Uiso   1.00
H474   H     0.00368   0.20602   0.78959   0.00000  Uiso   1.00
H475   H     0.32963   0.12730   0.71043   0.00000  Uiso   1.00
H476   H     0.29473   0.27015   0.93457   0.00000  Uiso   1.00
H477   H     0.33028   0.26834   0.51266   0.00000  Uiso   1.00
H478   H     0.14021   0.13321   0.58236   0.00000  Uiso   1.00
H479   H     0.01950   0.11515   0.89985   0.00000  Uiso   1.00
H480   H     0.06501   0.12190   0.54570   0.00000  Uiso   1.00
H481   H     0.32408   0.09427   0.99096   0.00000  Uiso   1.00
H482   H     0.21774   0.24158   0.88261   0.00000  Uiso   1.00
H483   H     0.23594   0.01317   0.75635   0.00000  Uiso   1.00
N484   N     0.31574   0.18074   0.76416   0.00000  Uiso   1.00
N485   N     0.01759   0.15259   0.73584   0.00000  Uiso   1.00
O486   O     0.12797   0.23807   0.74633   0.00000  Uiso   1.00
O487   O     0.22858   0.24755   0.75587   0.00000  Uiso   1.00
O488   O     0.09181   0.15960   0.81839   0.00000  Uiso   1.00
O489   O     0.19242   0.16908   0.82793   0.00000  Uiso   1.00
O490   O     0.10476   0.08578   0.74413   0.00000  Uiso   1.00
O491   O     0.20536   0.09526   0.75367   0.00000  Uiso   1.00
O492   O     0.14092   0.16425   0.67207   0.00000  Uiso   1.00
O493   O     0.24152   0.17373   0.68161   0.00000  Uiso   1.00
C494   C     0.32264   0.25275   0.61160   0.00000  Uiso   1.00
C495   C     0.04081   0.22327   0.61266   0.00000  Uiso   1.00
H496   H     0.06948   0.24288   0.64052   0.00000  Uiso   1.00
H497   H     0.02033   0.18176   0.62394   0.00000  Uiso   1.00
H498   H     0.07224   0.22394   0.57419   0.00000  Uiso   1.00
H499   H     0.01244   0.29257   0.59615   0.00000  Uiso   1.00
H500   H     0.29724   0.26021   0.65100   0.00000  Uiso   1.00
C501   C     0.51514   0.26674   0.75144   0.00000  Uiso   1.00
C502   C     0.47412   0.16626   0.98731   0.00000  Uiso   1.00
C503   C     0.48760   0.18372   0.93615   0.00000  Uiso   1.00
C504   C     0.52079   0.18283   0.51750   0.00000  Uiso   1.00
C505   C     0.57671   0.22023   0.99797   0.00000  Uiso   1.00
C506   C     0.58640   0.24029   0.94927   0.00000  Uiso   1.00
C507   C     0.54238   0.22279   0.91904   0.00000  Uiso   1.00
C508   C     0.51339   0.16384   0.56674   0.00000  Uiso   1.00
C509   C     0.61084   0.22369   0.57887   0.00000  Uiso   1.00
C510   C     0.44550   0.16217   0.90341   0.00000  Uiso   1.00
C511   C     0.52371   0.32269   0.75206   0.00000  Uiso   1.00
C512   C     0.46633   0.16522   0.84729   0.00000  Uiso   1.00
C513   C     0.47645   0.01063   0.74751   0.00000  Uiso   1.00
C514   C     0.48492   0.06659   0.74840   0.00000  Uiso   1.00
C515   C     0.53438   0.17272   0.65308   0.00000  Uiso   1.00
C516   C     0.62150   0.23917   0.52805   0.00000  Uiso   1.00
C517   C     0.55577   0.18522   0.59836   0.00000  Uiso   1.00
C518   C     0.38609   0.13119   0.92400   0.00000  Uiso   1.00
C519   C     0.37008   0.11831   0.97542   0.00000  Uiso   1.00
C520   C     0.41389   0.13414   0.50648   0.00000  Uiso   1.00
Cu521  Cu    0.44043   0.16105   0.74435   0.00000  Uiso   1.00
Cu522  Cu    0.55957   0.17228   0.75565   0.00000  Uiso   1.00
H523   H     0.43091   0.32014   0.74317   0.00000  Uiso   1.00
H524   H     0.33702   0.20602   0.78959   0.00000  Uiso   1.00
H525   H     0.66297   0.12730   0.71043   0.00000  Uiso   1.00
H526   H     0.62806   0.27015   0.93457   0.00000  Uiso   1.00
H527   H     0.66361   0.26834   0.51266   0.00000  Uiso   1.00
H528   H     0.47354   0.13321   0.58236   0.00000  Uiso   1.00
H529   H     0.35283   0.11515   0.89985   0.00000  Uiso   1.00
H530   H     0.39834   0.12190   0.54570   0.00000  Uiso   1.00
H531   H     0.65742   0.09427   0.99096   0.00000  Uiso   1.00
H532   H     0.55107   0.24158   0.88261   0.00000  Uiso   1.00
H533   H     0.56927   0.01317   0.75635   0.00000  Uiso   1.00
N534   N     0.64908   0.18074   0.76416   0.00000  Uiso   1.00
N535   N     0.35092   0.15259   0.73584   0.00000  Uiso   1.00
O536   O     0.46131   0.23807   0.74633   0.00000  Uiso   1.00
O537   O     0.56191   0.24755   0.75587   0.00000  Uiso   1.00
O538   O     0.42515   0.15960   0.81839   0.00000  Uiso   1.00
O539   O     0.52575   0.16908   0.82793   0.00000  Uiso   1.00
O540   O     0.43809   0.08578   0.74413   0.00000  Uiso   1.00
O541   O     0.53869   0.09526   0.75367   0.00000  Uiso   1.00
O542   O     0.47425   0.16425   0.67207   0.00000  Uiso   1.00
O543   O     0.57485   0.17373   0.68161   0.00000  Uiso   1.00
C544   C     0.65597   0.25275   0.61160   0.00000  Uiso   1.00
C545   C     0.37414   0.22327   0.61266   0.00000  Uiso   1.00
H546   H     0.40282   0.24288   0.64052   0.00000  Uiso   1.00
H547   H     0.35366   0.18176   0.62394   0.00000  Uiso   1.00
H548   H     0.40558   0.22394   0.57419   0.00000  Uiso   1.00
H549   H     0.34577   0.29257   0.59615   0.00000  Uiso   1.00
H550   H     0.63057   0.26021   0.65100   0.00000  Uiso   1.00
C551   C     0.84848   0.26674   0.75144   0.00000  Uiso   1.00
C552   C     0.80745   0.16626   0.98731   0.00000  Uiso   1.00
C553   C     0.82093   0.18372   0.93615   0.00000  Uiso   1.00
C554   C     0.85413   0.18283   0.51750   0.00000  Uiso   1.00
C555   C     0.91004   0.22023   0.99797   0.00000  Uiso   1.00
C556   C     0.91974   0.24029   0.94927   0.00000  Uiso   1.00
C557   C     0.87571   0.22279   0.91904   0.00000  Uiso   1.00
C558   C     0.84672   0.16384   0.56674   0.00000  Uiso   1.00
C559   C     0.94418   0.22369   0.57887   0.00000  Uiso   1.00
C560   C     0.77883   0.16217   0.90341   0.00000  Uiso   1.00
C561   C     0.85705   0.32269   0.75206   0.00000  Uiso   1.00
C562   C     0.79966   0.16522   0.84729   0.00000  Uiso   1.00
C563   C     0.80978   0.01063   0.74751   0.00000  Uiso   1.00
C564   C     0.81825   0.06659   0.74840   0.00000  Uiso   1.00
C565   C     0.86771   0.17272   0.65308   0.00000  Uiso   1.00
C566   C     0.95483   0.23917   0.52805   0.00000  Uiso   1.00
C567   C     0.88910   0.18522   0.59836   0.00000  Uiso   1.00
C568   C     0.71943   0.13119   0.92400   0.00000  Uiso   1.00
C569   C     0.70342   0.11831   0.97542   0.00000  Uiso   1.00
C570   C     0.74722   0.13414   0.50648   0.00000  Uiso   1.00
Cu571  Cu    0.77377   0.16105   0.74435   0.00000  Uiso   1.00
Cu572  Cu    0.89290   0.17228   0.75565   0.00000  Uiso   1.00
H573   H     0.76424   0.32014   0.74317   0.00000  Uiso   1.00
H574   H     0.67035   0.20602   0.78959   0.00000  Uiso   1.00
H575   H     0.99630   0.12730   0.71043   0.00000  Uiso   1.00
H576   H     0.96139   0.27015   0.93457   0.00000  Uiso   1.00
H577   H     0.99694   0.26834   0.51266   0.00000  Uiso   1.00
H578   H     0.80687   0.13321   0.58236   0.00000  Uiso   1.00
H579   H     0.68616   0.11515   0.89985   0.00000  Uiso   1.00
H580   H     0.73167   0.12190   0.54570   0.00000  Uiso   1.00
H581   H     0.99075   0.09427   0.99096   0.00000  Uiso   1.00
H582   H     0.88441   0.24158   0.88261   0.00000  Uiso   1.00
H583   H     0.90260   0.01317   0.75635   0.00000  Uiso   1.00
N584   N     0.98241   0.18074   0.76416   0.00000  Uiso   1.00
N585   N     0.68426   0.15259   0.73584   0.00000  Uiso   1.00
O586   O     0.79464   0.23807   0.74633   0.00000  Uiso   1.00
O587   O     0.89524   0.24755   0.75587   0.00000  Uiso   1.00
O588   O     0.75848   0.15960   0.81839   0.00000  Uiso   1.00
O589   O     0.85908   0.16908   0.82793   0.00000  Uiso   1.00
O590   O     0.77142   0.08578   0.74413   0.00000  Uiso   1.00
O591   O     0.87203   0.09526   0.75367   0.00000  Uiso   1.00
O592   O     0.80758   0.16425   0.67207   0.00000  Uiso   1.00
O593   O     0.90819   0.17373   0.68161   0.00000  Uiso   1.00
C594   C     0.98931   0.25275   0.61160   0.00000  Uiso   1.00
C595   C     0.70747   0.22327   0.61266   0.00000  Uiso   1.00
H596   H     0.73615   0.24288   0.64052   0.00000  Uiso   1.00
H597   H     0.68699   0.18176   0.62394   0.00000  Uiso   1.00
H598   H     0.73891   0.22394   0.57419   0.00000  Uiso   1.00
H599   H     0.67911   0.29257   0.59615   0.00000  Uiso   1.00
H600   H     0.96391   0.26021   0.65100   0.00000  Uiso   1.00
C601   C     0.18181   0.60007   0.75144   0.00000  Uiso   1.00
C602   C     0.14079   0.49959   0.98731   0.00000  Uiso   1.00
C603   C     0.15427   0.51705   0.93615   0.00000  Uiso   1.00
C604   C     0.18746   0.51616   0.51750   0.00000  Uiso   1.00
C605   C     0.24337   0.55357   0.99797   0.00000  Uiso   1.00
C606   C     0.25307   0.57362   0.94927   0.00000  Uiso   1.00
C607   C     0.20905   0.55613   0.91904   0.00000  Uiso   1.00
C608   C     0.18005   0.49717   0.56674   0.00000  Uiso   1.00
C609   C     0.27751   0.55702   0.57887   0.00000  Uiso   1.00
C610   C     0.11216   0.49550   0.90341   0.00000  Uiso   1.00
C611   C     0.19038   0.65603   0.75206   0.00000  Uiso   1.00
C612   C     0.13299   0.49856   0.84729   0.00000  Uiso   1.00
C613   C     0.14311   0.34396   0.74751   0.00000  Uiso   1.00
C614   C     0.15159   0.39992   0.74840   0.00000  Uiso   1.00
C615   C     0.20104   0.50605   0.65308   0.00000  Uiso   1.00
C616   C     0.28816   0.57250   0.52805   0.00000  Uiso   1.00
C617   C     0.22243   0.51855   0.59836   0.00000  Uiso   1.00
C618   C     0.05276   0.46452   0.92400   0.00000  Uiso   1.00
C619   C     0.03675   0.45165   0.97542   0.00000  Uiso   1.00
C620   C     0.08055   0.46748   0.50648   0.00000  Uiso   1.00
Cu621  Cu    0.10710   0.49439   0.74435   0.00000  Uiso   1.00
Cu622  Cu    0.22623   0.50561   0.75565   0.00000  Uiso   1.00
H623   H     0.09758   0.65348   0.74317   0.00000  Uiso   1.00
H624   H     0.00368   0.53935   0.78959   0.00000  Uiso   1.00
H625   H     0.32963   0.46064   0.71043   0.00000  Uiso   1.00
H626   H     0.29473   0.60349   0.93457   0.00000  Uiso   1.00
H627   H     0.33028   0.60167   0.51266   0.00000  Uiso   1.00
H628   H     0.14021   0.46654   0.58236   0.00000  Uiso   1.00
H629   H     0.01950   0.44848   0.89985   0.00000  Uiso   1.00
H630   H     0.06501   0.45523   0.54570   0.00000  Uiso   1.00
H631   H     0.32408   0.42761   0.99096   0.00000  Uiso   1.00
H632   H     0.21774   0.57491   0.88261   0.00000  Uiso   1.00
H633   H     0.23594   0.34650   0.75635   0.00000  Uiso   1.00
N634   N     0.31574   0.51407   0.76416   0.00000  Uiso   1.00
N635   N     0.01759   0.48593   0.73584   0.00000  Uiso   1.00
O636   O     0.12797   0.57141   0.74633   0.00000  Uiso   1.00
O637   O     0.22858   0.58089   0.75587   0.00000  Uiso   1.00
O638   O     0.09181   0.49293   0.81839   0.00000  Uiso   1.00
O639   O     0.19242   0.50241   0.82793   0.00000  Uiso   1.00
O640   O     0.10476   0.41911   0.74413   0.00000  Uiso   1.00
O641   O     0.20536   0.42859   0.75367   0.00000  Uiso   1.00
O642   O     0.14092   0.49759   0.67207   0.00000  Uiso   1.00
O643   O     0.24152   0.50707   0.68161   0.00000  Uiso   1.00
C644   C     0.32264   0.58608   0.61160   0.00000  Uiso   1.00
C645   C     0.04081   0.55660   0.61266   0.00000  Uiso   1.00
H646   H     0.06948   0.57622   0.64052   0.00000  Uiso   1.00
H647   H     0.02033   0.51509   0.62394   0.00000  Uiso   1.00
H648   H     0.07224   0.55727   0.57419   0.00000  Uiso   1.00
H649   H     0.01244   0.62590   0.59615   0.00000  Uiso   1.00
H650   H     0.29724   0.59355   0.65100   0.00000  Uiso   1.00
C651   C     0.51514   0.60007   0.75144   0.00000  Uiso   1.00
C652   C     0.47412   0.49959   0.98731   0.00000  Uiso   1.00
C653   C     0.48760   0.51705   0.93615   0.00000  Uiso   1.00
C654   C     0.52079   0.51616   0.51750   0.00000  Uiso   1.00
C655   C     0.57671   0.55357   0.99797   0.00000  Uiso   1.00
C656   C     0.58640   0.57362   0.94927   0.00000  Uiso   1.00
C657   C     0.54238   0.55613   0.91904   0.00000  Uiso   1.00
C658   C     0.51339   0.49717   0.56674   0.00000  Uiso   1.00
C659   C     0.61084   0.55702   0.57887   0.00000  Uiso   1.00
C660   C     0.44550   0.49550   0.90341   0.00000  Uiso   1.00
C661   C     0.52371   0.65603   0.75206   0.00000  Uiso   1.00
C662   C     0.46633   0.49856   0.84729   0.00000  Uiso   1.00
C663   C     0.47645   0.34396   0.74751   0.00000  Uiso   1.00
C664   C     0.48492   0.39992   0.74840   0.00000  Uiso   1.00
C665   C     0.53438   0.50605   0.65308   0.00000  Uiso   1.00
C666   C     0.62150   0.57250   0.52805   0.00000  Uiso   1.00
C667   C     0.55577   0.51855   0.59836   0.00000  Uiso   1.00
C668   C     0.38609   0.46452   0.92400   0.00000  Uiso   1.00
C669   C     0.37008   0.45165   0.97542   0.00000  Uiso   1.00
C670   C     0.41389   0.46748   0.50648   0.00000  Uiso   1.00
Cu671  Cu    0.44043   0.49439   0.74435   0.00000  Uiso   1.00
Cu672  Cu    0.55957   0.50561   0.75565   0.00000  Uiso   1.00
H673   H     0.43091   0.65348   0.74317   0.00000  Uiso   1.00
H674   H     0.33702   0.53935   0.78959   0.00000  Uiso   1.00
H675   H     0.66297   0.46064   0.71043   0.00000  Uiso   1.00
H676   H     0.62806   0.60349   0.93457   0.00000  Uiso   1.00
H677   H     0.66361   0.60167   0.51266   0.00000  Uiso   1.00
H678   H     0.47354   0.46654   0.58236   0.00000  Uiso   1.00
H679   H     0.35283   0.44848   0.89985   0.00000  Uiso   1.00
H680   H     0.39834   0.45523   0.54570   0.00000  Uiso   1.00
H681   H     0.65742   0.42761   0.99096   0.00000  Uiso   1.00
H682   H     0.55107   0.57491   0.88261   0.00000  Uiso   1.00
H683   H     0.56927   0.34650   0.75635   0.00000  Uiso   1.00
N684   N     0.64908   0.51407   0.76416   0.00000  Uiso   1.00
N685   N     0.35092   0.48593   0.73584   0.00000  Uiso   1.00
O686   O     0.46131   0.57141   0.74633   0.00000  Uiso   1.00
O687   O     0.56191   0.58089   0.75587   0.00000  Uiso   1.00
O688   O     0.42515   0.49293   0.81839   0.00000  Uiso   1.00
O689   O     0.52575   0.50241   0.82793   0.00000  Uiso   1.00
O690   O     0.43809   0.41911   0.74413   0.00000  Uiso   1.00
O691   O     0.53869   0.42859   0.75367   0.00000  Uiso   1.00
O692   O     0.47425   0.49759   0.67207   0.00000  Uiso   1.00
O693   O     0.57485   0.50707   0.68161   0.00000  Uiso   1.00
C694   C     0.65597   0.58608   0.61160   0.00000  Uiso   1.00
C695   C     0.37414   0.55660   0.61266   0.00000  Uiso   1.00
H696   H     0.40282   0.57622   0.64052   0.00000  Uiso   1.00
H697   H     0.35366   0.51509   0.62394   0.00000  Uiso   1.00
H698   H     0.40558   0.55727   0.57419   0.00000  Uiso   1.00
H699   H     0.34577   0.62590   0.59615   0.00000  Uiso   1.00
H700   H     0.63057   0.59355   0.65100   0.00000  Uiso   1.00
C701   C     0.84848   0.60007   0.75144   0.00000  Uiso   1.00
C702   C     0.80745   0.49959   0.98731   0.00000  Uiso   1.00
C703   C     0.82093   0.51705   0.93615   0.00000  Uiso   1.00
C704   C     0.85413   0.51616   0.51750   0.00000  Uiso   1.00
C705   C     0.91004   0.55357   0.99797   0.00000  Uiso   1.00
C706   C     0.91974   0.57362   0.94927   0.00000  Uiso   1.00
C707   C     0.87571   0.55613   0.91904   0.00000  Uiso   1.00
C708   C     0.84672   0.49717   0.56674   0.00000  Uiso   1.00
C709   C     0.94418   0.55702   0.57887   0.00000  Uiso   1.00
C710   C     0.77883   0.49550   0.90341   0.00000  Uiso   1.00
C711   C     0.85705   0.65603   0.75206   0.00000  Uiso   1.00
C712   C     0.79966   0.49856   0.84729   0.00000  Uiso   1.00
C713   C     0.80978   0.34396   0.74751   0.00000  Uiso   1.00
C714   C     0.81825   0.39992   0.74840   0.00000  Uiso   1.00
C715   C     0.86771   0.50605   0.65308   0.00000  Uiso   1.00
C716   C     0.95483   0.57250   0.52805   0.00000  Uiso   1.00
C717   C     0.88910   0.51855   0.59836   0.00000  Uiso   1.00
C718   C     0.71943   0.46452   0.92400   0.00000  Uiso   1.00
C719   C     0.70342   0.45165   0.97542   0.00000  Uiso   1.00
C720   C     0.74722   0.46748   0.50648   0.00000  Uiso   1.00
Cu721  Cu    0.77377   0.49439   0.74435   0.00000  Uiso   1.00
Cu722  Cu    0.89290   0.50561   0.75565   0.00000  Uiso   1.00
H723   H     0.76424   0.65348   0.74317   0.00000  Uiso   1.00
H724   H     0.67035   0.53935   0.78959   0.00000  Uiso   1.00
H725   H     0.99630   0.46064   0.71043   0.00000  Uiso   1.00
H726   H     0.96139   0.60349   0.93457   0.00000  Uiso   1.00
H727   H     0.99694   0.60167   0.51266   0.00000  Uiso   1.00
H728   H     0.80687   0.46654   0.58236   0.00000  Uiso   1.00
H729   H     0.68616   0.44848   0.89985   0.00000  Uiso   1.00
H730   H     0.73167   0.45523   0.54570   0.00000  Uiso   1.00
H731   H     0.99075   0.42761   0.99096   0.00000  Uiso   1.00
H732   H     0.88441   0.57491   0.88261   0.00000  Uiso   1.00
H733   H     0.90260   0.34650   0.75635   0.00000  Uiso   1.00
N734   N     0.98241   0.51407   0.76416   0.00000  Uiso   1.00
N735   N     0.68426   0.48593   0.73584   0.00000  Uiso   1.00
O736   O     0.79464   0.57141   0.74633   0.00000  Uiso   1.00
O737   O     0.89524   0.58089   0.75587   0.00000  Uiso   1.00
O738   O     0.75848   0.49293   0.81839   0.00000  Uiso   1.00
O739   O     0.85908   0.50241   0.82793   0.00000  Uiso   1.00
O740   O     0.77142   0.41911   0.74413   0.00000  Uiso   1.00
O741   O     0.87203   0.42859   0.75367   0.00000  Uiso   1.00
O742   O     0.80758   0.49759   0.67207   0.00000  Uiso   1.00
O743   O     0.90819   0.50707   0.68161   0.00000  Uiso   1.00
C744   C     0.98931   0.58608   0.61160   0.00000  Uiso   1.00
C745   C     0.70747   0.55660   0.61266   0.00000  Uiso   1.00
H746   H     0.73615   0.57622   0.64052   0.00000  Uiso   1.00
H747   H     0.68699   0.51509   0.62394   0.00000  Uiso   1.00
H748   H     0.73891   0.55727   0.57419   0.00000  Uiso   1.00
H749   H     0.67911   0.62590   0.59615   0.00000  Uiso   1.00
H750   H     0.96391   0.59355   0.65100   0.00000  Uiso   1.00
C751   C     0.18181   0.93341   0.75144   0.00000  Uiso   1.00
C752   C     0.14079   0.83292   0.98731   0.00000  Uiso   1.00
C753   C     0.15427   0.85039   0.93615   0.00000  Uiso   1.00
C754   C     0.18746   0.84949   0.51750   0.00000  Uiso   1.00
C755   C     0.24337   0.88690   0.99797   0.00000  Uiso   1.00
C756   C     0.25307   0.90696   0.94927   0.00000  Uiso   1.00
C757   C     0.20905   0.88946   0.91904   0.00000  Uiso   1.00
C758   C     0.18005   0.83050   0.56674   0.00000  Uiso   1.00
C759   C     0.27751   0.89035   0.57887   0.00000  Uiso   1.00
C760   C     0.11216   0.82883   0.90341   0.00000  Uiso   1.00
C761   C     0.19038   0.98936   0.75206   0.00000  Uiso   1.00
C762   C     0.13299   0.83189   0.84729   0.00000  Uiso   1.00
C763   C     0.14311   0.67729   0.74751   0.00000  Uiso   1.00
C764   C     0.15159   0.73326   0.74840   0.00000  Uiso   1.00
C765   C     0.20104   0.83939   0.65308   0.00000  Uiso   1.00
C766   C     0.28816   0.90584   0.52805   0.00000  Uiso   1.00
C767   C     0.22243   0.85188   0.59836   0.00000  Uiso   1.00
C768   C     0.05276   0.79786   0.92400   0.00000  Uiso   1.00
C769   C     0.03675   0.78498   0.97542   0.00000  Uiso   1.00
C770   C     0.08055   0.80081   0.50648   0.00000  Uiso   1.00
Cu771  Cu    0.10710   0.82772   0.74435   0.00000  Uiso   1.00
Cu772  Cu    0.22623   0.83895   0.75565   0.00000  Uiso   1.00
H773   H     0.09758   0.98681   0.74317   0.00000  Uiso   1.00
H774   H     0.00368   0.87268   0.78959   0.00000  Uiso   1.00
H775   H     0.32963   0.79397   0.71043   0.00000  Uiso   1.00
H776   H     0.29473   0.93682   0.93457   0.00000  Uiso   1.00
H777   H     0.33028   0.93500   0.51266   0.00000  Uiso   1.00
H778   H     0.14021   0.79987   0.58236   0.00000  Uiso   1.00
H779   H     0.01950   0.78182   0.89985   0.00000  Uiso   1.00
H780   H     0.06501   0.78856   0.54570   0.00000  Uiso   1.00
H781   H     0.32408   0.76094   0.99096   0.00000  Uiso   1.00
H782   H     0.21774   0.90825   0.88261   0.00000  Uiso   1.00
H783   H     0.23594   0.67984   0.75635   0.00000  Uiso   1.00
N784   N     0.31574   0.84741   0.76416   0.00000  Uiso   1.00
N785   N     0.01759   0.81926   0.73584   0.00000  Uiso   1.00
O786   O     0.12797   0.90474   0.74633   0.00000  Uiso   1.00
O787   O     0.22858   0.91422   0.75587   0.00000  Uiso   1.00
O788   O     0.09181   0.82627   0.81839   0.00000  Uiso   1.00
O789   O     0.19242   0.83575   0.82793   0.00000  Uiso   1.00
O790   O     0.10476   0.75245   0.74413   0.00000  Uiso   1.00
O791   O     0.20536   0.76193   0.75367   0.00000  Uiso   1.00
O792   O     0.14092   0.83092   0.67207   0.00000  Uiso   1.00
O793   O     0.24152   0.84040   0.68161   0.00000  Uiso   1.00
C794   C     0.32264   0.91942   0.61160   0.00000  Uiso   1.00
C795   C     0.04081   0.88994   0.61266   0.00000  Uiso   1.00
H796   H     0.06948   0.90955   0.64052   0.00000  Uiso   1.00
H797   H     0.02033   0.84842   0.62394   0.00000  Uiso   1.00
H798   H     0.07224   0.89060   0.57419   0.00000  Uiso   1.00
H799   H     0.01244   0.95924   0.59615   0.00000  Uiso   1.00
H800   H     0.29724   0.92688   0.65100   0.00000  Uiso   1.00
C801   C     0.51514   0.93341   0.75144   0.00000  Uiso   1.00
C802   C     0.47412   0.83292   0.98731   0.00000  Uiso   1.00
C803   C     0.48760   0.85039   0.93615   0.00000  Uiso   1.00
C804   C     0.52079   0.84949   0.51750   0.00000  Uiso   1.00
C805   C     0.57671   0.88690   0.99797   0.00000  Uiso   1.00
C806   C     0.58640   0.90696   0.94927   0.00000  Uiso   1.00
C807   C     0.54238   0.88946   0.91904   0.00000  Uiso   1.00
C808   C     0.51339   0.83050   0.56674   0.00000  Uiso   1.00
C809   C     0.61084   0.89035   0.57887   0.00000  Uiso   1.00
C810   C     0.44550   0.82883   0.90341   0.00000  Uiso   1.00
C811   C     0.52371   0.98936   0.75206   0.00000  Uiso   1.00
C812   C     0.46633   0.83189   0.84729   0.00000  Uiso   1.00
C813   C     0.47645   0.67729   0.74751   0.00000  Uiso   1.00
C814   C     0.48492   0.73326   0.74840   0.00000  Uiso   1.00
C815   C     0.53438   0.83939   0.65308   0.00000  Uiso   1.00
C816   C     0.62150   0.90584   0.52805   0.00000  Uiso   1.00
C817   C     0.55577   0.85188   0.59836   0.00000  Uiso   1.00
C818   C     0.38609   0.79786   0.92400   0.00000  Uiso   1.00
C819   C     0.37008   0.78498   0.97542   0.00000  Uiso   1.00
C820   C     0.41389   0.80081   0.50648   0.00000  Uiso   1.00
Cu821  Cu    0.44043   0.82772   0.74435   0.00000  Uiso   1.00
Cu822  Cu    0.55957   0.83895   0.75565   0.00000  Uiso   1.00
H823   H     0.43091   0.98681   0.74317   0.00000  Uiso   1.00
H824   H     0.33702   0.87268   0.78959   0.00000  Uiso   1.00
H825   H     0.66297   0.79397   0.71043   0.00000  Uiso   1.00
H826   H     0.62806   0.93682   0.93457   0.00000  Uiso   1.00
H827   H     0.66361   0.93500   0.51266   0.00000  Uiso   1.00
H828   H     0.47354   0.79987   0.58236   0.00000  Uiso   1.00
H829   H     0.35283   0.78182   0.89985   0.00000  Uiso   1.00
H830   H     0.39834   0.78856   0.54570   0.00000  Uiso   1.00
H831   H     0.65742   0.76094   0.99096   0.00000  Uiso   1.00
H832   H     0.55107   0.90825   0.88261   0.00000  Uiso   1.00
H833   H     0.56927   0.67984   0.75635   0.00000  Uiso   1.00
N834   N     0.64908   0.84741   0.76416   0.00000  Uiso   1.00
N835   N     0.35092   0.81926   0.73584   0.00000  Uiso   1.00
O836   O     0.46131   0.90474   0.74633   0.00000  Uiso   1.00
O837   O     0.56191   0.91422   0.75587   0.00000  Uiso   1.00
O838   O     0.42515   0.82627   0.81839   0.00000  Uiso   1.00
O839   O     0.52575   0.83575   0.82793   0.00000  Uiso   1.00
O840   O     0.43809   0.75245   0.74413   0.00000  Uiso   1.00
O841   O     0.53869   0.76193   0.75367   0.00000  Uiso   1.00
O842   O     0.47425   0.83092   0.67207   0.00000  Uiso   1.00
O843   O     0.57485   0.84040   0.68161   0.00000  Uiso   1.00
C844   C     0.65597   0.91942   0.61160   0.00000  Uiso   1.00
C845   C     0.37414   0.88994   0.61266   0.00000  Uiso   1.00
H846   H     0.40282   0.90955   0.64052   0.00000  Uiso   1.00
H847   H     0.35366   0.84842   0.62394   0.00000  Uiso   1.00
H848   H     0.40558   0.89060   0.57419   0.00000  Uiso   1.00
H849   H     0.34577   0.95924   0.59615   0.00000  Uiso   1.00
H850   H     0.63057   0.92688   0.65100   0.00000  Uiso   1.00
C851   C     0.84848   0.93341   0.75144   0.00000  Uiso   1.00
C852   C     0.80745   0.83292   0.98731   0.00000  Uiso   1.00
C853   C     0.82093   0.85039   0.93615   0.00000  Uiso   1.00
C854   C     0.85413   0.84949   0.51750   0.00000  Uiso   1.00
C855   C     0.91004   0.88690   0.99797   0.00000  Uiso   1.00
C856   C     0.91974   0.90696   0.94927   0.00000  Uiso   1.00
C857   C     0.87571   0.88946   0.91904   0.00000  Uiso   1.00
C858   C     0.84672   0.83050   0.56674   0.00000  Uiso   1.00
C859   C     0.94418   0.89035   0.57887   0.00000  Uiso   1.00
C860   C     0.77883   0.82883   0.90341   0.00000  Uiso   1.00
C861   C     0.85705   0.98936   0.75206   0.00000  Uiso   1.00
C862   C     0.79966   0.83189   0.84729   0.00000  Uiso   1.00
C863   C     0.80978   0.67729   0.74751   0.00000  Uiso   1.00
C864   C     0.81825   0.73326   0.74840   0.00000  Uiso   1.00
C865   C     0.86771   0.83939   0.65308   0.00000  Uiso   1.00
C866   C     0.95483   0.90584   0.52805   0.00000  Uiso   1.00
C867   C     0.88910   0.85188   0.59836   0.00000  Uiso   1.00
C868   C     0.71943   0.79786   0.92400   0.00000  Uiso   1.00
C869   C     0.70342   0.78498   0.97542   0.00000  Uiso   1.00
C870   C     0.74722   0.80081   0.50648   0.00000  Uiso   1.00
Cu871  Cu    0.77377   0.82772   0.74435   0.00000  Uiso   1.00
Cu872  Cu    0.89290   0.83895   0.75565   0.00000  Uiso   1.00
H873   H     0.76424   0.98681   0.74317   0.00000  Uiso   1.00
H874   H     0.67035   0.87268   0.78959   0.00000  Uiso   1.00
H875   H     0.99630   0.79397   0.71043   0.00000  Uiso   1.00
H876   H     0.96139   0.93682   0.93457   0.00000  Uiso   1.00
H877   H     0.99694   0.93500   0.51266   0.00000  Uiso   1.00
H878   H     0.80687   0.79987   0.58236   0.00000  Uiso   1.00
H879   H     0.68616   0.78182   0.89985   0.00000  Uiso   1.00
H880   H     0.73167   0.78856   0.54570   0.00000  Uiso   1.00
H881   H     0.99075   0.76094   0.99096   0.00000  Uiso   1.00
H882   H     0.88441   0.90825   0.88261   0.00000  Uiso   1.00
H883   H     0.90260   0.67984   0.75635   0.00000  Uiso   1.00
N884   N     0.98241   0.84741   0.76416   0.00000  Uiso   1.00
N885   N     0.68426   0.81926   0.73584   0.00000  Uiso   1.00
O886   O     0.79464   0.90474   0.74633   0.00000  Uiso   1.00
O887   O     0.89524   0.91422   0.75587   0.00000  Uiso   1.00
O888   O     0.75848   0.82627   0.81839   0.00000  Uiso   1.00
O889   O     0.85908   0.83575   0.82793   0.00000  Uiso   1.00
O890   O     0.77142   0.75245   0.74413   0.00000  Uiso   1.00
O891   O     0.87203   0.76193   0.75367   0.00000  Uiso   1.00
O892   O     0.80758   0.83092   0.67207   0.00000  Uiso   1.00
O893   O     0.90819   0.84040   0.68161   0.00000  Uiso   1.00
C894   C     0.98931   0.91942   0.61160   0.00000  Uiso   1.00
C895   C     0.70747   0.88994   0.61266   0.00000  Uiso   1.00
H896   H     0.73615   0.90955   0.64052   0.00000  Uiso   1.00
H897   H     0.68699   0.84842   0.62394   0.00000  Uiso   1.00
H898   H     0.73891   0.89060   0.57419   0.00000  Uiso   1.00
H899   H     0.67911   0.95924   0.59615   0.00000  Uiso   1.00
H900   H     0.96391   0.92688   0.65100   0.00000  Uiso   1.00
loop_
_geom_bond_atom_site_label_1
_geom_bond_atom_site_label_2
_geom_bond_distance
_geom_bond_site_symmetry_2
_ccdc_geom_bond_type
C1     C11     1.427   .     S
C1     O37     1.285   .     A
C1     O36     1.291   .     A
C2     C3      1.420   .     A
C2     C454    1.427   .     S
C2     C470    1.418   .     S
C3     C10     1.420   .     A
C3     C7      1.411   .     A
C4     C8      1.403   .     A
C4     C452    1.427   1_554 S
C4     C455    1.417   1_554 S
C5     C6      1.392   .     A
C5     C454    1.417   .     S
C5     C466    1.400   .     S
C6     C7      1.385   .     A
C6     H26     1.084   .     S
C7     H32     1.081   .     S
C8     H28     1.078   .     S
C8     C17     1.401   .     A
C9     C17     1.420   .     A
C9     C16     1.400   .     A
C9     C44     1.517   .     S
C10    C12     1.473   .     S
C10    C18     1.401   .     A
C11    C163    1.328   .     S
C11    H183    1.088   .     S
C12    O39     1.295   .     A
C12    O38     1.302   .     A
C13    C14     1.427   .     S
C13    C311    1.328   1_545 S
C13    H323    1.088   1_545 S
C14    O41     1.291   .     A
C14    O40     1.285   .     A
C15    O42     1.297   .     A
C15    O43     1.298   .     A
C15    C17     1.472   .     S
C16    H27     1.085   .     S
C16    C455    1.400   1_554 S
C18    H29     1.083   .     S
C18    C19     1.389   .     A
C19    C470    1.393   .     S
C19    H131    1.083   1_455 S
C20    H30     1.077   .     S
C20    C452    1.418   1_554 S
C20    C469    1.393   1_554 S
Cu21   N35     2.018   .     S
Cu21   Cu22    2.685   .     S
Cu21   O40     1.951   .     S
Cu21   O42     1.916   .     S
Cu21   O36     1.955   .     S
Cu21   O38     1.937   .     S
Cu22   O39     1.916   .     S
Cu22   N34     2.018   .     S
Cu22   O41     1.955   .     S
Cu22   O37     1.951   .     S
Cu22   O43     1.937   .     S
H23    C163    1.088   .     S
H24    N134    1.029   1_455 S
H25    N85     1.029   .     S
H31    C69     1.083   .     S
H33    C311    1.088   1_545 S
N34    H74     1.029   .     S
N34    N85     1.285   .     S
N35    N134    1.285   1_455 S
N35    H125    1.029   1_455 S
C44    H50     1.109   .     S
C44    C95     1.525   .     S
C44    H99     1.112   .     S
C45    H47     1.110   .     S
C45    H48     1.109   .     S
C45    H46     1.111   .     S
C45    C144    1.525   1_455 S
H49    C144    1.112   1_455 S
C51    C61     1.427   .     S
C51    O87     1.285   .     A
C51    O86     1.291   .     A
C52    C53     1.420   .     A
C52    C504    1.427   .     S
C52    C520    1.418   .     S
C53    C60     1.420   .     A
C53    C57     1.411   .     A
C54    C58     1.403   .     A
C54    C502    1.427   1_554 S
C54    C505    1.417   1_554 S
C55    C56     1.392   .     A
C55    C504    1.417   .     S
C55    C516    1.400   .     S
C56    C57     1.385   .     A
C56    H76     1.084   .     S
C57    H82     1.081   .     S
C58    H78     1.078   .     S
C58    C67     1.401   .     A
C59    C67     1.420   .     A
C59    C66     1.400   .     A
C59    C94     1.517   .     S
C60    C62     1.473   .     S
C60    C68     1.401   .     A
C61    C213    1.328   .     S
C61    H233    1.088   .     S
C62    O89     1.295   .     A
C62    O88     1.302   .     A
C63    C64     1.427   .     S
C63    C361    1.328   1_545 S
C63    H373    1.088   1_545 S
C64    O91     1.291   .     A
C64    O90     1.285   .     A
C65    O92     1.297   .     A
C65    O93     1.298   .     A
C65    C67     1.472   .     S
C66    H77     1.085   .     S
C66    C505    1.400   1_554 S
C68    H79     1.083   .     S
C68    C69     1.389   .     A
C69    C520    1.393   .     S
C70    H80     1.077   .     S
C70    C502    1.418   1_554 S
C70    C519    1.393   1_554 S
Cu71   N85     2.018   .     S
Cu71   Cu72    2.685   .     S
Cu71   O90     1.951   .     S
Cu71   O92     1.916   .     S
Cu71   O86     1.955   .     S
Cu71   O88     1.937   .     S
Cu72   O89     1.916   .     S
Cu72   N84     2.018   .     S
Cu72   O91     1.955   .     S
Cu72   O87     1.951   .     S
Cu72   O93     1.937   .     S
H73    C213    1.088   .     S
H75    N135    1.029   .     S
H81    C119    1.083   .     S
H83    C361    1.088   1_545 S
N84    H124    1.029   .     S
N84    N135    1.285   .     S
C94    H100    1.109   .     S
C94    C145    1.525   .     S
C94    H149    1.112   .     S
C95    H97     1.110   .     S
C95    H98     1.109   .     S
C95    H96     1.111   .     S
C101   C111    1.427   .     S
C101   O137    1.285   .     A
C101   O136    1.291   .     A
C102   C103    1.420   .     A
C102   C554    1.427   .     S
C102   C570    1.418   .     S
C103   C110    1.420   .     A
C103   C107    1.411   .     A
C104   C108    1.403   .     A
C104   C552    1.427   1_554 S
C104   C555    1.417   1_554 S
C105   C106    1.392   .     A
C105   C554    1.417   .     S
C105   C566    1.400   .     S
C106   C107    1.385   .     A
C106   H126    1.084   .     S
C107   H132    1.081   .     S
C108   H128    1.078   .     S
C108   C117    1.401   .     A
C109   C117    1.420   .     A
C109   C116    1.400   .     A
C109   C144    1.517   .     S
C110   C112    1.473   .     S
C110   C118    1.401   .     A
C111   C263    1.328   .     S
C111   H283    1.088   .     S
C112   O139    1.295   .     A
C112   O138    1.302   .     A
C113   C114    1.427   .     S
C113   C411    1.328   1_545 S
C113   H423    1.088   1_545 S
C114   O141    1.291   .     A
C114   O140    1.285   .     A
C115   O142    1.297   .     A
C115   O143    1.298   .     A
C115   C117    1.472   .     S
C116   H127    1.085   .     S
C116   C555    1.400   1_554 S
C118   H129    1.083   .     S
C118   C119    1.389   .     A
C119   C570    1.393   .     S
C120   H130    1.077   .     S
C120   C552    1.418   1_554 S
C120   C569    1.393   1_554 S
Cu121  N135    2.018   .     S
Cu121  Cu122   2.685   .     S
Cu121  O140    1.951   .     S
Cu121  O142    1.916   .     S
Cu121  O136    1.955   .     S
Cu121  O138    1.937   .     S
Cu122  O139    1.916   .     S
Cu122  N134    2.018   .     S
Cu122  O141    1.955   .     S
Cu122  O137    1.951   .     S
Cu122  O143    1.937   .     S
H123   C263    1.088   .     S
H125   N35     1.029   1_655 S
H131   C19     1.083   1_655 S
H133   C411    1.088   1_545 S
N134   H24     1.029   1_655 S
N134   N35     1.285   1_655 S
C144   H150    1.109   .     S
C144   C45     1.525   1_655 S
C144   H49     1.112   1_655 S
C145   H147    1.110   .     S
C145   H148    1.109   .     S
C145   H146    1.111   .     S
C151   C161    1.427   .     S
C151   O187    1.285   .     A
C151   O186    1.291   .     A
C152   C153    1.420   .     A
C152   C604    1.427   .     S
C152   C620    1.418   .     S
C153   C160    1.420   .     A
C153   C157    1.411   .     A
C154   C158    1.403   .     A
C154   C602    1.427   1_554 S
C154   C605    1.417   1_554 S
C155   C156    1.392   .     A
C155   C604    1.417   .     S
C155   C616    1.400   .     S
C156   C157    1.385   .     A
C156   H176    1.084   .     S
C157   H182    1.081   .     S
C158   H178    1.078   .     S
C158   C167    1.401   .     A
C159   C167    1.420   .     A
C159   C166    1.400   .     A
C159   C194    1.517   .     S
C160   C162    1.473   .     S
C160   C168    1.401   .     A
C161   C313    1.328   .     S
C161   H333    1.088   .     S
C162   O189    1.295   .     A
C162   O188    1.302   .     A
C163   C164    1.427   .     S
C164   O191    1.291   .     A
C164   O190    1.285   .     A
C165   O192    1.297   .     A
C165   O193    1.298   .     A
C165   C167    1.472   .     S
C166   H177    1.085   .     S
C166   C605    1.400   1_554 S
C168   H179    1.083   .     S
C168   C169    1.389   .     A
C169   C620    1.393   .     S
C169   H281    1.083   1_455 S
C170   H180    1.077   .     S
C170   C602    1.418   1_554 S
C170   C619    1.393   1_554 S
Cu171  N185    2.018   .     S
Cu171  Cu172   2.685   .     S
Cu171  O190    1.951   .     S
Cu171  O192    1.916   .     S
Cu171  O186    1.955   .     S
Cu171  O188    1.937   .     S
Cu172  O189    1.916   .     S
Cu172  N184    2.018   .     S
Cu172  O191    1.955   .     S
Cu172  O187    1.951   .     S
Cu172  O193    1.937   .     S
H173   C313    1.088   .     S
H174   N284    1.029   1_455 S
H175   N235    1.029   .     S
H181   C219    1.083   .     S
N184   H224    1.029   .     S
N184   N235    1.285   .     S
N185   N284    1.285   1_455 S
N185   H275    1.029   1_455 S
C194   H200    1.109   .     S
C194   C245    1.525   .     S
C194   H249    1.112   .     S
C195   H197    1.110   .     S
C195   H198    1.109   .     S
C195   H196    1.111   .     S
C195   C294    1.525   1_455 S
H199   C294    1.112   1_455 S
C201   C211    1.427   .     S
C201   O237    1.285   .     A
C201   O236    1.291   .     A
C202   C203    1.420   .     A
C202   C654    1.427   .     S
C202   C670    1.418   .     S
C203   C210    1.420   .     A
C203   C207    1.411   .     A
C204   C208    1.403   .     A
C204   C652    1.427   1_554 S
C204   C655    1.417   1_554 S
C205   C206    1.392   .     A
C205   C654    1.417   .     S
C205   C666    1.400   .     S
C206   C207    1.385   .     A
C206   H226    1.084   .     S
C207   H232    1.081   .     S
C208   H228    1.078   .     S
C208   C217    1.401   .     A
C209   C217    1.420   .     A
C209   C216    1.400   .     A
C209   C244    1.517   .     S
C210   C212    1.473   .     S
C210   C218    1.401   .     A
C211   C363    1.328   .     S
C211   H383    1.088   .     S
C212   O239    1.295   .     A
C212   O238    1.302   .     A
C213   C214    1.427   .     S
C214   O241    1.291   .     A
C214   O240    1.285   .     A
C215   O242    1.297   .     A
C215   O243    1.298   .     A
C215   C217    1.472   .     S
C216   H227    1.085   .     S
C216   C655    1.400   1_554 S
C218   H229    1.083   .     S
C218   C219    1.389   .     A
C219   C670    1.393   .     S
C220   H230    1.077   .     S
C220   C652    1.418   1_554 S
C220   C669    1.393   1_554 S
Cu221  N235    2.018   .     S
Cu221  Cu222   2.685   .     S
Cu221  O240    1.951   .     S
Cu221  O242    1.916   .     S
Cu221  O236    1.955   .     S
Cu221  O238    1.937   .     S
Cu222  O239    1.916   .     S
Cu222  N234    2.018   .     S
Cu222  O241    1.955   .     S
Cu222  O237    1.951   .     S
Cu222  O243    1.937   .     S
H223   C363    1.088   .     S
H225   N285    1.029   .     S
H231   C269    1.083   .     S
N234   H274    1.029   .     S
N234   N285    1.285   .     S
C244   H250    1.109   .     S
C244   C295    1.525   .     S
C244   H299    1.112   .     S
C245   H247    1.110   .     S
C245   H248    1.109   .     S
C245   H246    1.111   .     S
C251   C261    1.427   .     S
C251   O287    1.285   .     A
C251   O286    1.291   .     A
C252   C253    1.420   .     A
C252   C704    1.427   .     S
C252   C720    1.418   .     S
C253   C260    1.420   .     A
C253   C257    1.411   .     A
C254   C258    1.403   .     A
C254   C702    1.427   1_554 S
C254   C705    1.417   1_554 S
C255   C256    1.392   .     A
C255   C704    1.417   .     S
C255   C716    1.400   .     S
C256   C257    1.385   .     A
C256   H276    1.084   .     S
C257   H282    1.081   .     S
C258   H278    1.078   .     S
C258   C267    1.401   .     A
C259   C267    1.420   .     A
C259   C266    1.400   .     A
C259   C294    1.517   .     S
C260   C262    1.473   .     S
C260   C268    1.401   .     A
C261   C413    1.328   .     S
C261   H433    1.088   .     S
C262   O289    1.295   .     A
C262   O288    1.302   .     A
C263   C264    1.427   .     S
C264   O291    1.291   .     A
C264   O290    1.285   .     A
C265   O292    1.297   .     A
C265   O293    1.298   .     A
C265   C267    1.472   .     S
C266   H277    1.085   .     S
C266   C705    1.400   1_554 S
C268   H279    1.083   .     S
C268   C269    1.389   .     A
C269   C720    1.393   .     S
C270   H280    1.077   .     S
C270   C702    1.418   1_554 S
C270   C719    1.393   1_554 S
Cu271  N285    2.018   .     S
Cu271  Cu272   2.685   .     S
Cu271  O290    1.951   .     S
Cu271  O292    1.916   .     S
Cu271  O286    1.955   .     S
Cu271  O288    1.937   .     S
Cu272  O289    1.916   .     S
Cu272  N284    2.018   .     S
Cu272  O291    1.955   .     S
Cu272  O287    1.951   .     S
Cu272  O293    1.937   .     S
H273   C413    1.088   .     S
H275   N185    1.029   1_655 S
H281   C169    1.083   1_655 S
N284   H174    1.029   1_655 S
N284   N185    1.285   1_655 S
C294   H300    1.109   .     S
C294   C195    1.525   1_655 S
C294   H199    1.112   1_655 S
C295   H297    1.110   .     S
C295   H298    1.109   .     S
C295   H296    1.111   .     S
C301   C311    1.427   .     S
C301   O337    1.285   .     A
C301   O336    1.291   .     A
C302   C303    1.420   .     A
C302   C754    1.427   .     S
C302   C770    1.418   .     S
C303   C310    1.420   .     A
C303   C307    1.411   .     A
C304   C308    1.403   .     A
C304   C752    1.427   1_554 S
C304   C755    1.417   1_554 S
C305   C306    1.392   .     A
C305   C754    1.417   .     S
C305   C766    1.400   .     S
C306   C307    1.385   .     A
C306   H326    1.084   .     S
C307   H332    1.081   .     S
C308   H328    1.078   .     S
C308   C317    1.401   .     A
C309   C317    1.420   .     A
C309   C316    1.400   .     A
C309   C344    1.517   .     S
C310   C312    1.473   .     S
C310   C318    1.401   .     A
C311   C13     1.328   1_565 S
C311   H33     1.088   1_565 S
C312   O339    1.295   .     A
C312   O338    1.302   .     A
C313   C314    1.427   .     S
C314   O341    1.291   .     A
C314   O340    1.285   .     A
C315   O342    1.297   .     A
C315   O343    1.298   .     A
C315   C317    1.472   .     S
C316   H327    1.085   .     S
C316   C755    1.400   1_554 S
C318   H329    1.083   .     S
C318   C319    1.389   .     A
C319   C770    1.393   .     S
C319   H431    1.083   1_455 S
C320   H330    1.077   .     S
C320   C752    1.418   1_554 S
C320   C769    1.393   1_554 S
Cu321  N335    2.018   .     S
Cu321  Cu322   2.685   .     S
Cu321  O340    1.951   .     S
Cu321  O342    1.916   .     S
Cu321  O336    1.955   .     S
Cu321  O338    1.937   .     S
Cu322  O339    1.916   .     S
Cu322  N334    2.018   .     S
Cu322  O341    1.955   .     S
Cu322  O337    1.951   .     S
Cu322  O343    1.937   .     S
H323   C13     1.088   1_565 S
H324   N434    1.029   1_455 S
H325   N385    1.029   .     S
H331   C369    1.083   .     S
N334   H374    1.029   .     S
N334   N385    1.285   .     S
N335   N434    1.285   1_455 S
N335   H425    1.029   1_455 S
C344   H350    1.109   .     S
C344   C395    1.525   .     S
C344   H399    1.112   .     S
C345   H347    1.110   .     S
C345   H348    1.109   .     S
C345   H346    1.111   .     S
C345   C444    1.525   1_455 S
H349   C444    1.112   1_455 S
C351   C361    1.427   .     S
C351   O387    1.285   .     A
C351   O386    1.291   .     A
C352   C353    1.420   .     A
C352   C804    1.427   .     S
C352   C820    1.418   .     S
C353   C360    1.420   .     A
C353   C357    1.411   .     A
C354   C358    1.403   .     A
C354   C802    1.427   1_554 S
C354   C805    1.417   1_554 S
C355   C356    1.392   .     A
C355   C804    1.417   .     S
C355   C816    1.400   .     S
C356   C357    1.385   .     A
C356   H376    1.084   .     S
C357   H382    1.081   .     S
C358   H378    1.078   .     S
C358   C367    1.401   .     A
C359   C367    1.420   .     A
C359   C366    1.400   .     A
C359   C394    1.517   .     S
C360   C362    1.473   .     S
C360   C368    1.401   .     A
C361   C63     1.328   1_565 S
C361   H83     1.088   1_565 S
C362   O389    1.295   .     A
C362   O388    1.302   .     A
C363   C364    1.427   .     S
C364   O391    1.291   .     A
C364   O390    1.285   .     A
C365   O392    1.297   .     A
C365   O393    1.298   .     A
C365   C367    1.472   .     S
C366   H377    1.085   .     S
C366   C805    1.400   1_554 S
C368   H379    1.083   .     S
C368   C369    1.389   .     A
C369   C820    1.393   .     S
C370   H380    1.077   .     S
C370   C802    1.418   1_554 S
C370   C819    1.393   1_554 S
Cu371  N385    2.018   .     S
Cu371  Cu372   2.685   .     S
Cu371  O390    1.951   .     S
Cu371  O392    1.916   .     S
Cu371  O386    1.955   .     S
Cu371  O388    1.937   .     S
Cu372  O389    1.916   .     S
Cu372  N384    2.018   .     S
Cu372  O391    1.955   .     S
Cu372  O387    1.951   .     S
Cu372  O393    1.937   .     S
H373   C63     1.088   1_565 S
H375   N435    1.029   .     S
H381   C419    1.083   .     S
N384   H424    1.029   .     S
N384   N435    1.285   .     S
C394   H400    1.109   .     S
C394   C445    1.525   .     S
C394   H449    1.112   .     S
C395   H397    1.110   .     S
C395   H398    1.109   .     S
C395   H396    1.111   .     S
C401   C411    1.427   .     S
C401   O437    1.285   .     A
C401   O436    1.291   .     A
C402   C403    1.420   .     A
C402   C854    1.427   .     S
C402   C870    1.418   .     S
C403   C410    1.420   .     A
C403   C407    1.411   .     A
C404   C408    1.403   .     A
C404   C852    1.427   1_554 S
C404   C855    1.417   1_554 S
C405   C406    1.392   .     A
C405   C854    1.417   .     S
C405   C866    1.400   .     S
C406   C407    1.385   .     A
C406   H426    1.084   .     S
C407   H432    1.081   .     S
C408   H428    1.078   .     S
C408   C417    1.401   .     A
C409   C417    1.420   .     A
C409   C416    1.400   .     A
C409   C444    1.517   .     S
C410   C412    1.473   .     S
C410   C418    1.401   .     A
C411   C113    1.328   1_565 S
C411   H133    1.088   1_565 S
C412   O439    1.295   .     A
C412   O438    1.302   .     A
C413   C414    1.427   .     S
C414   O441    1.291   .     A
C414   O440    1.285   .     A
C415   O442    1.297   .     A
C415   O443    1.298   .     A
C415   C417    1.472   .     S
C416   H427    1.085   .     S
C416   C855    1.400   1_554 S
C418   H429    1.083   .     S
C418   C419    1.389   .     A
C419   C870    1.393   .     S
C420   H430    1.077   .     S
C420   C852    1.418   1_554 S
C420   C869    1.393   1_554 S
Cu421  N435    2.018   .     S
Cu421  Cu422   2.685   .     S
Cu421  O440    1.951   .     S
Cu421  O442    1.916   .     S
Cu421  O436    1.955   .     S
Cu421  O438    1.937   .     S
Cu422  O439    1.916   .     S
Cu422  N434    2.018   .     S
Cu422  O441    1.955   .     S
Cu422  O437    1.951   .     S
Cu422  O443    1.937   .     S
H423   C113    1.088   1_565 S
H425   N335    1.029   1_655 S
H431   C319    1.083   1_655 S
N434   H324    1.029   1_655 S
N434   N335    1.285   1_655 S
C444   H450    1.109   .     S
C444   C345    1.525   1_655 S
C444   H349    1.112   1_655 S
C445   H447    1.110   .     S
C445   H448    1.109   .     S
C445   H446    1.111   .     S
C451   C461    1.427   .     S
C451   O487    1.285   .     A
C451   O486    1.291   .     A
C452   C453    1.420   .     A
C452   C4      1.427   1_556 S
C452   C20     1.418   1_556 S
C453   C460    1.420   .     A
C453   C457    1.411   .     A
C454   C458    1.403   .     A
C455   C456    1.392   .     A
C455   C4      1.417   1_556 S
C455   C16     1.400   1_556 S
C456   C457    1.385   .     A
C456   H476    1.084   .     S
C457   H482    1.081   .     S
C458   H478    1.078   .     S
C458   C467    1.401   .     A
C459   C467    1.420   .     A
C459   C466    1.400   .     A
C459   C494    1.517   .     S
C460   C462    1.473   .     S
C460   C468    1.401   .     A
C461   C613    1.328   .     S
C461   H633    1.088   .     S
C462   O489    1.295   .     A
C462   O488    1.302   .     A
C463   C464    1.427   .     S
C463   C761    1.328   1_545 S
C463   H773    1.088   1_545 S
C464   O491    1.291   .     A
C464   O490    1.285   .     A
C465   O492    1.297   .     A
C465   O493    1.298   .     A
C465   C467    1.472   .     S
C466   H477    1.085   .     S
C468   H479    1.083   .     S
C468   C469    1.389   .     A
C469   C20     1.393   1_556 S
C469   H581    1.083   1_455 S
C470   H480    1.077   .     S
Cu471  N485    2.018   .     S
Cu471  Cu472   2.685   .     S
Cu471  O490    1.951   .     S
Cu471  O492    1.916   .     S
Cu471  O486    1.955   .     S
Cu471  O488    1.937   .     S
Cu472  O489    1.916   .     S
Cu472  N484    2.018   .     S
Cu472  O491    1.955   .     S
Cu472  O487    1.951   .     S
Cu472  O493    1.937   .     S
H473   C613    1.088   .     S
H474   N584    1.029   1_455 S
H475   N535    1.029   .     S
H481   C519    1.083   .     S
H483   C761    1.088   1_545 S
N484   H524    1.029   .     S
N484   N535    1.285   .     S
N485   N584    1.285   1_455 S
N485   H575    1.029   1_455 S
C494   H500    1.109   .     S
C494   C545    1.525   .     S
C494   H549    1.112   .     S
C495   H497    1.110   .     S
C495   H498    1.109   .     S
C495   H496    1.111   .     S
C495   C594    1.525   1_455 S
H499   C594    1.112   1_455 S
C501   C511    1.427   .     S
C501   O537    1.285   .     A
C501   O536    1.291   .     A
C502   C503    1.420   .     A
C502   C54     1.427   1_556 S
C502   C70     1.418   1_556 S
C503   C510    1.420   .     A
C503   C507    1.411   .     A
C504   C508    1.403   .     A
C505   C506    1.392   .     A
C505   C54     1.417   1_556 S
C505   C66     1.400   1_556 S
C506   C507    1.385   .     A
C506   H526    1.084   .     S
C507   H532    1.081   .     S
C508   H528    1.078   .     S
C508   C517    1.401   .     A
C509   C517    1.420   .     A
C509   C516    1.400   .     A
C509   C544    1.517   .     S
C510   C512    1.473   .     S
C510   C518    1.401   .     A
C511   C663    1.328   .     S
C511   H683    1.088   .     S
C512   O539    1.295   .     A
C512   O538    1.302   .     A
C513   C514    1.427   .     S
C513   C811    1.328   1_545 S
C513   H823    1.088   1_545 S
C514   O541    1.291   .     A
C514   O540    1.285   .     A
C515   O542    1.297   .     A
C515   O543    1.298   .     A
C515   C517    1.472   .     S
C516   H527    1.085   .     S
C518   H529    1.083   .     S
C518   C519    1.389   .     A
C519   C70     1.393   1_556 S
C520   H530    1.077   .     S
Cu521  N535    2.018   .     S
Cu521  Cu522   2.685   .     S
Cu521  O540    1.951   .     S
Cu521  O542    1.916   .     S
Cu521  O536    1.955   .     S
Cu521  O538    1.937   .     S
Cu522  O539    1.916   .     S
Cu522  N534    2.018   .     S
Cu522  O541    1.955   .     S
Cu522  O537    1.951   .     S
Cu522  O543    1.937   .     S
H523   C663    1.088   .     S
H525   N585    1.029   .     S
H531   C569    1.083   .     S
H533   C811    1.088   1_545 S
N534   H574    1.029   .     S
N534   N585    1.285   .     S
C544   H550    1.109   .     S
C544   C595    1.525   .     S
C544   H599    1.112   .     S
C545   H547    1.110   .     S
C545   H548    1.109   .     S
C545   H546    1.111   .     S
C551   C561    1.427   .     S
C551   O587    1.285   .     A
C551   O586    1.291   .     A
C552   C553    1.420   .     A
C552   C104    1.427   1_556 S
C552   C120    1.418   1_556 S
C553   C560    1.420   .     A
C553   C557    1.411   .     A
C554   C558    1.403   .     A
C555   C556    1.392   .     A
C555   C104    1.417   1_556 S
C555   C116    1.400   1_556 S
C556   C557    1.385   .     A
C556   H576    1.084   .     S
C557   H582    1.081   .     S
C558   H578    1.078   .     S
C558   C567    1.401   .     A
C559   C567    1.420   .     A
C559   C566    1.400   .     A
C559   C594    1.517   .     S
C560   C562    1.473   .     S
C560   C568    1.401   .     A
C561   C713    1.328   .     S
C561   H733    1.088   .     S
C562   O589    1.295   .     A
C562   O588    1.302   .     A
C563   C564    1.427   .     S
C563   C861    1.328   1_545 S
C563   H873    1.088   1_545 S
C564   O591    1.291   .     A
C564   O590    1.285   .     A
C565   O592    1.297   .     A
C565   O593    1.298   .     A
C565   C567    1.472   .     S
C566   H577    1.085   .     S
C568   H579    1.083   .     S
C568   C569    1.389   .     A
C569   C120    1.393   1_556 S
C570   H580    1.077   .     S
Cu571  N585    2.018   .     S
Cu571  Cu572   2.685   .     S
Cu571  O590    1.951   .     S
Cu571  O592    1.916   .     S
Cu571  O586    1.955   .     S
Cu571  O588    1.937   .     S
Cu572  O589    1.916   .     S
Cu572  N584    2.018   .     S
Cu572  O591    1.955   .     S
Cu572  O587    1.951   .     S
Cu572  O593    1.937   .     S
H573   C713    1.088   .     S
H575   N485    1.029   1_655 S
H581   C469    1.083   1_655 S
H583   C861    1.088   1_545 S
N584   H474    1.029   1_655 S
N584   N485    1.285   1_655 S
C594   H600    1.109   .     S
C594   C495    1.525   1_655 S
C594   H499    1.112   1_655 S
C595   H597    1.110   .     S
C595   H598    1.109   .     S
C595   H596    1.111   .     S
C601   C611    1.427   .     S
C601   O637    1.285   .     A
C601   O636    1.291   .     A
C602   C603    1.420   .     A
C602   C154    1.427   1_556 S
C602   C170    1.418   1_556 S
C603   C610    1.420   .     A
C603   C607    1.411   .     A
C604   C608    1.403   .     A
C605   C606    1.392   .     A
C605   C154    1.417   1_556 S
C605   C166    1.400   1_556 S
C606   C607    1.385   .     A
C606   H626    1.084   .     S
C607   H632    1.081   .     S
C608   H628    1.078   .     S
C608   C617    1.401   .     A
C609   C617    1.420   .     A
C609   C616    1.400   .     A
C609   C644    1.517   .     S
C610   C612    1.473   .     S
C610   C618    1.401   .     A
C611   C763    1.328   .     S
C611   H783    1.088   .     S
C612   O639    1.295   .     A
C612   O638    1.302   .     A
C613   C614    1.427   .     S
C614   O641    1.291   .     A
C614   O640    1.285   .     A
C615   O642    1.297   .     A
C615   O643    1.298   .     A
C615   C617    1.472   .     S
C616   H627    1.085   .     S
C618   H629    1.083   .     S
C618   C619    1.389   .     A
C619   C170    1.393   1_556 S
C619   H731    1.083   1_455 S
C620   H630    1.077   .     S
Cu621  N635    2.018   .     S
Cu621  Cu622   2.685   .     S
Cu621  O640    1.951   .     S
Cu621  O642    1.916   .     S
Cu621  O636    1.955   .     S
Cu621  O638    1.937   .     S
Cu622  O639    1.916   .     S
Cu622  N634    2.018   .     S
Cu622  O641    1.955   .     S
Cu622  O637    1.951   .     S
Cu622  O643    1.937   .     S
H623   C763    1.088   .     S
H624   N734    1.029   1_455 S
H625   N685    1.029   .     S
H631   C669    1.083   .     S
N634   H674    1.029   .     S
N634   N685    1.285   .     S
N635   N734    1.285   1_455 S
N635   H725    1.029   1_455 S
C644   H650    1.109   .     S
C644   C695    1.525   .     S
C644   H699    1.112   .     S
C645   H647    1.110   .     S
C645   H648    1.109   .     S
C645   H646    1.111   .     S
C645   C744    1.525   1_455 S
H649   C744    1.112   1_455 S
C651   C661    1.427   .     S
C651   O687    1.285   .     A
C651   O686    1.291   .     A
C652   C653    1.420   .     A
C652   C204    1.427   1_556 S
C652   C220    1.418   1_556 S
C653   C660    1.420   .     A
C653   C657    1.411   .     A
C654   C658    1.403   .     A
C655   C656    1.392   .     A
C655   C204    1.417   1_556 S
C655   C216    1.400   1_556 S
C656   C657    1.385   .     A
C656   H676    1.084   .     S
C657   H682    1.081   .     S
C658   H678    1.078   .     S
C658   C667    1.401   .     A
C659   C667    1.420   .     A
C659   C666    1.400   .     A
C659   C694    1.517   .     S
C660   C662    1.473   .     S
C660   C668    1.401   .     A
C661   C813    1.328   .     S
C661   H833    1.088   .     S
C662   O689    1.295   .     A
C662   O688    1.302   .     A
C663   C664    1.427   .     S
C664   O691    1.291   .     A
C664   O690    1.285   .     A
C665   O692    1.297   .     A
C665   O693    1.298   .     A
C665   C667    1.472   .     S
C666   H677    1.085   .     S
C668   H679    1.083   .     S
C668   C669    1.389   .     A
C669   C220    1.393   1_556 S
C670   H680    1.077   .     S
Cu671  N685    2.018   .     S
Cu671  Cu672   2.685   .     S
Cu671  O690    1.951   .     S
Cu671  O692    1.916   .     S
Cu671  O686    1.955   .     S
Cu671  O688    1.937   .     S
Cu672  O689    1.916   .     S
Cu672  N684    2.018   .     S
Cu672  O691    1.955   .     S
Cu672  O687    1.951   .     S
Cu672  O693    1.937   .     S
H673   C813    1.088   .     S
H675   N735    1.029   .     S
H681   C719    1.083   .     S
N684   H724    1.029   .     S
N684   N735    1.285   .     S
C694   H700    1.109   .     S
C694   C745    1.525   .     S
C694   H749    1.112   .     S
C695   H697    1.110   .     S
C695   H698    1.109   .     S
C695   H696    1.111   .     S
C701   C711    1.427   .     S
C701   O737    1.285   .     A
C701   O736    1.291   .     A
C702   C703    1.420   .     A
C702   C254    1.427   1_556 S
C702   C270    1.418   1_556 S
C703   C710    1.420   .     A
C703   C707    1.411   .     A
C704   C708    1.403   .     A
C705   C706    1.392   .     A
C705   C254    1.417   1_556 S
C705   C266    1.400   1_556 S
C706   C707    1.385   .     A
C706   H726    1.084   .     S
C707   H732    1.081   .     S
C708   H728    1.078   .     S
C708   C717    1.401   .     A
C709   C717    1.420   .     A
C709   C716    1.400   .     A
C709   C744    1.517   .     S
C710   C712    1.473   .     S
C710   C718    1.401   .     A
C711   C863    1.328   .     S
C711   H883    1.088   .     S
C712   O739    1.295   .     A
C712   O738    1.302   .     A
C713   C714    1.427   .     S
C714   O741    1.291   .     A
C714   O740    1.285   .     A
C715   O742    1.297   .     A
C715   O743    1.298   .     A
C715   C717    1.472   .     S
C716   H727    1.085   .     S
C718   H729    1.083   .     S
C718   C719    1.389   .     A
C719   C270    1.393   1_556 S
C720   H730    1.077   .     S
Cu721  N735    2.018   .     S
Cu721  Cu722   2.685   .     S
Cu721  O740    1.951   .     S
Cu721  O742    1.916   .     S
Cu721  O736    1.955   .     S
Cu721  O738    1.937   .     S
Cu722  O739    1.916   .     S
Cu722  N734    2.018   .     S
Cu722  O741    1.955   .     S
Cu722  O737    1.951   .     S
Cu722  O743    1.937   .     S
H723   C863    1.088   .     S
H725   N635    1.029   1_655 S
H731   C619    1.083   1_655 S
N734   H624    1.029   1_655 S
N734   N635    1.285   1_655 S
C744   H750    1.109   .     S
C744   C645    1.525   1_655 S
C744   H649    1.112   1_655 S
C745   H747    1.110   .     S
C745   H748    1.109   .     S
C745   H746    1.111   .     S
C751   C761    1.427   .     S
C751   O787    1.285   .     A
C751   O786    1.291   .     A
C752   C753    1.420   .     A
C752   C304    1.427   1_556 S
C752   C320    1.418   1_556 S
C753   C760    1.420   .     A
C753   C757    1.411   .     A
C754   C758    1.403   .     A
C755   C756    1.392   .     A
C755   C304    1.417   1_556 S
C755   C316    1.400   1_556 S
C756   C757    1.385   .     A
C756   H776    1.084   .     S
C757   H782    1.081   .     S
C758   H778    1.078   .     S
C758   C767    1.401   .     A
C759   C767    1.420   .     A
C759   C766    1.400   .     A
C759   C794    1.517   .     S
C760   C762    1.473   .     S
C760   C768    1.401   .     A
C761   C463    1.328   1_565 S
C761   H483    1.088   1_565 S
C762   O789    1.295   .     A
C762   O788    1.302   .     A
C763   C764    1.427   .     S
C764   O791    1.291   .     A
C764   O790    1.285   .     A
C765   O792    1.297   .     A
C765   O793    1.298   .     A
C765   C767    1.472   .     S
C766   H777    1.085   .     S
C768   H779    1.083   .     S
C768   C769    1.389   .     A
C769   C320    1.393   1_556 S
C769   H881    1.083   1_455 S
C770   H780    1.077   .     S
Cu771  N785    2.018   .     S
Cu771  Cu772   2.685   .     S
Cu771  O790    1.951   .     S
Cu771  O792    1.916   .     S
Cu771  O786    1.955   .     S
Cu771  O788    1.937   .     S
Cu772  O789    1.916   .     S
Cu772  N784    2.018   .     S
Cu772  O791    1.955   .     S
Cu772  O787    1.951   .     S
Cu772  O793    1.937   .     S
H773   C463    1.088   1_565 S
H774   N884    1.029   1_455 S
H775   N835    1.029   .     S
H781   C819    1.083   .     S
N784   H824    1.029   .     S
N784   N835    1.285   .     S
N785   N884    1.285   1_455 S
N785   H875    1.029   1_455 S
C794   H800    1.109   .     S
C794   C845    1.525   .     S
C794   H849    1.112   .     S
C795   H797    1.110   .     S
C795   H798    1.109   .     S
C795   H796    1.111   .     S
C795   C894    1.525   1_455 S
H799   C894    1.112   1_455 S
C801   C811    1.427   .     S
C801   O837    1.285   .     A
C801   O836    1.291   .     A
C802   C803    1.420   .     A
C802   C354    1.427   1_556 S
C802   C370    1.418   1_556 S
C803   C810    1.420   .     A
C803   C807    1.411   .     A
C804   C808    1.403   .     A
C805   C806    1.392   .     A
C805   C354    1.417   1_556 S
C805   C366    1.400   1_556 S
C806   C807    1.385   .     A
C806   H826    1.084   .     S
C807   H832    1.081   .     S
C808   H828    1.078   .     S
C808   C817    1.401   .     A
C809   C817    1.420   .     A
C809   C816    1.400   .     A
C809   C844    1.517   .     S
C810   C812    1.473   .     S
C810   C818    1.401   .     A
C811   C513    1.328   1_565 S
C811   H533    1.088   1_565 S
C812   O839    1.295   .     A
C812   O838    1.302   .     A
C813   C814    1.427   .     S
C814   O841    1.291   .     A
C814   O840    1.285   .     A
C815   O842    1.297   .     A
C815   O843    1.298   .     A
C815   C817    1.472   .     S
C816   H827    1.085   .     S
C818   H829    1.083   .     S
C818   C819    1.389   .     A
C819   C370    1.393   1_556 S
C820   H830    1.077   .     S
Cu821  N835    2.018   .     S
Cu821  Cu822   2.685   .     S
Cu821  O840    1.951   .     S
Cu821  O842    1.916   .     S
Cu821  O836    1.955   .     S
Cu821  O838    1.937   .     S
Cu822  O839    1.916   .     S
Cu822  N834    2.018   .     S
Cu822  O841    1.955   .     S
Cu822  O837    1.951   .     S
Cu822  O843    1.937   .     S
H823   C513    1.088   1_565 S
H825   N885    1.029   .     S
H831   C869    1.083   .     S
N834   H874    1.029   .     S
N834   N885    1.285   .     S
C844   H850    1.109   .     S
C844   C895    1.525   .     S
C844   H899    1.112   .     S
C845   H847    1.110   .     S
C845   H848    1.109   .     S
C845   H846    1.111   .     S
C851   C861    1.427   .     S
C851   O887    1.285   .     A
C851   O886    1.291   .     A
C852   C853    1.420   .     A
C852   C404    1.427   1_556 S
C852   C420    1.418   1_556 S
C853   C860    1.420   .     A
C853   C857    1.411   .     A
C854   C858    1.403   .     A
C855   C856    1.392   .     A
C855   C404    1.417   1_556 S
C855   C416    1.400   1_556 S
C856   C857    1.385   .     A
C856   H876    1.084   .     S
C857   H882    1.081   .     S
C858   H878    1.078   .     S
C858   C867    1.401   .     A
C859   C867    1.420   .     A
C859   C866    1.400   .     A
C859   C894    1.517   .     S
C860   C862    1.473   .     S
C860   C868    1.401   .     A
C861   C563    1.328   1_565 S
C861   H583    1.088   1_565 S
C862   O889    1.295   .     A
C862   O888    1.302   .     A
C863   C864    1.427   .     S
C864   O891    1.291   .     A
C864   O890    1.285   .     A
C865   O892    1.297   .     A
C865   O893    1.298   .     A
C865   C867    1.472   .     S
C866   H877    1.085   .     S
C868   H879    1.083   .     S
C868   C869    1.389   .     A
C869   C420    1.393   1_556 S
C870   H880    1.077   .     S
Cu871  N885    2.018   .     S
Cu871  Cu872   2.685   .     S
Cu871  O890    1.951   .     S
Cu871  O892    1.916   .     S
Cu871  O886    1.955   .     S
Cu871  O888    1.937   .     S
Cu872  O889    1.916   .     S
Cu872  N884    2.018   .     S
Cu872  O891    1.955   .     S
Cu872  O887    1.951   .     S
Cu872  O893    1.937   .     S
H873   C563    1.088   1_565 S
H875   N785    1.029   1_655 S
H881   C769    1.083   1_655 S
N884   H774    1.029   1_655 S
N884   N785    1.285   1_655 S
C894   H900    1.109   .     S
C894   C795    1.525   1_655 S
C894   H799    1.112   1_655 S
C895   H897    1.110   .     S
C895   H898    1.109   .     S
C895   H896    1.111   .     S
