data_str_m1_o10_o18_pcu_sym.14
_audit_creation_date              2020-01-03
_audit_creation_method            'Materials Studio'
_symmetry_space_group_name_H-M    'P1'
_symmetry_Int_Tables_number       1
_symmetry_cell_setting            triclinic
loop_
_symmetry_equiv_pos_as_xyz
  x,y,z
_cell_length_a                    32.5495
_cell_length_b                    32.4910
_cell_length_c                    35.7989
_cell_angle_alpha                 98.3655
_cell_angle_beta                  73.0672
_cell_angle_gamma                 98.6691
loop_
_atom_site_label
_atom_site_type_symbol
_atom_site_fract_x
_atom_site_fract_y
_atom_site_fract_z
_atom_site_U_iso_or_equiv
_atom_site_adp_type
_atom_site_occupancy
C1     C     0.05248   0.15995   0.25868   0.00000  Uiso   1.00
C2     C     0.18559   0.11675   0.46148   0.00000  Uiso   1.00
C3     C     0.20698   0.09941   0.48290   0.00000  Uiso   1.00
C4     C     0.28104   0.17355   0.24118   0.00000  Uiso   1.00
C5     C     0.20255   0.11256   0.02243   0.00000  Uiso   1.00
C6     C     0.17542   0.14382   0.04236   0.00000  Uiso   1.00
C7     C     0.22392   0.09308   0.04251   0.00000  Uiso   1.00
C8     C     0.21872   0.10404   0.08230   0.00000  Uiso   1.00
C9     C     0.17525   0.15890   0.08195   0.00000  Uiso   1.00
C10    C     0.32705   0.17611   0.23751   0.00000  Uiso   1.00
C11    C     0.00710   0.15757   0.26208   0.00000  Uiso   1.00
C12    C     0.09642   0.21281   0.42066   0.00000  Uiso   1.00
C13    C     0.18066   0.32210   0.23797   0.00000  Uiso   1.00
C14    C     0.15125   0.01201   0.26186   0.00000  Uiso   1.00
C15    C     0.15581   0.05611   0.25887   0.00000  Uiso   1.00
C16    C     0.17677   0.27764   0.24130   0.00000  Uiso   1.00
C17    C     0.18806   0.14521   0.14414   0.00000  Uiso   1.00
C18    C     0.14539   0.18771   0.35614   0.00000  Uiso   1.00
C19    C     0.13268   0.19276   0.39932   0.00000  Uiso   1.00
C20    C     0.19498   0.13685   0.10191   0.00000  Uiso   1.00
C21    C     0.08250   0.21387   0.46140   0.00000  Uiso   1.00
C22    C     0.16181   0.20072   0.10056   0.00000  Uiso   1.00
C23    C     0.15501   0.17426   0.41924   0.00000  Uiso   1.00
C24    C     0.18345   0.23697   0.08328   0.00000  Uiso   1.00
C25    C     0.17228   0.27650   0.10112   0.00000  Uiso   1.00
C26    C     0.13949   0.28017   0.13633   0.00000  Uiso   1.00
C27    C     0.11754   0.24431   0.15361   0.00000  Uiso   1.00
C28    C     0.12847   0.20473   0.13582   0.00000  Uiso   1.00
C29    C     0.18570   0.09367   0.42250   0.00000  Uiso   1.00
C30    C     0.14681   0.07442   0.41499   0.00000  Uiso   1.00
C31    C     0.14743   0.04945   0.37959   0.00000  Uiso   1.00
C32    C     0.18677   0.04335   0.35164   0.00000  Uiso   1.00
C33    C     0.22550   0.06295   0.35856   0.00000  Uiso   1.00
C34    C     0.13925   0.17153   0.45987   0.00000  Uiso   1.00
C35    C     0.22506   0.08789   0.39389   0.00000  Uiso   1.00
C36    C     0.10375   0.19366   0.48114   0.00000  Uiso   1.00
C37    C     0.15891   0.14913   0.48025   0.00000  Uiso   1.00
C38    C     0.14974   0.15830   0.02184   0.00000  Uiso   1.00
C39    C     0.11254   0.17816   0.04191   0.00000  Uiso   1.00
C40    C     0.08972   0.19519   0.02187   0.00000  Uiso   1.00
H41    H     0.31800   0.14061   0.28518   0.00000  Uiso   1.00
H42    H     0.18920   0.30431   0.08774   0.00000  Uiso   1.00
H43    H     0.13104   0.31081   0.15019   0.00000  Uiso   1.00
H44    H     0.09201   0.24717   0.18079   0.00000  Uiso   1.00
H45    H     0.11072   0.17724   0.14930   0.00000  Uiso   1.00
H46    H     0.23378   0.08723   0.09782   0.00000  Uiso   1.00
H47    H     0.22624   0.07401   0.46879   0.00000  Uiso   1.00
H48    H     0.18519   0.16281   0.40264   0.00000  Uiso   1.00
H49    H     0.09908   0.17884   0.07323   0.00000  Uiso   1.00
H50    H     0.11620   0.07805   0.43685   0.00000  Uiso   1.00
H51    H     0.11747   0.03430   0.37407   0.00000  Uiso   1.00
H52    H     0.05483   0.23014   0.47746   0.00000  Uiso   1.00
H53    H     0.18736   0.02324   0.32471   0.00000  Uiso   1.00
H54    H     0.25590   0.05835   0.33676   0.00000  Uiso   1.00
H55    H     0.25537   0.10233   0.39919   0.00000  Uiso   1.00
H56    H     0.07864   0.22739   0.40589   0.00000  Uiso   1.00
H57    H     0.06150   0.21045   0.03843   0.00000  Uiso   1.00
H58    H     0.24364   0.06830   0.02764   0.00000  Uiso   1.00
H59    H     0.01681   0.19311   0.21474   0.00000  Uiso   1.00
H60    H     0.20778   0.00273   0.21597   0.00000  Uiso   1.00
H61    H     0.12379   0.33218   0.28398   0.00000  Uiso   1.00
H62    H     0.20921   0.23460   0.05620   0.00000  Uiso   1.00
O63    O     0.16667   0.16667   0.25000   0.00000  Uiso   1.00
O64    O     0.15693   0.12393   0.16625   0.00000  Uiso   1.00
O65    O     0.12687   0.20646   0.33749   0.00000  Uiso   1.00
O66    O     0.21088   0.17493   0.15877   0.00000  Uiso   1.00
O67    O     0.17198   0.16135   0.33749   0.00000  Uiso   1.00
O68    O     0.17849   0.08101   0.27820   0.00000  Uiso   1.00
O69    O     0.14581   0.26136   0.26767   0.00000  Uiso   1.00
O70    O     0.07452   0.13251   0.23607   0.00000  Uiso   1.00
O71    O     0.26785   0.19179   0.21806   0.00000  Uiso   1.00
O72    O     0.06990   0.18960   0.27820   0.00000  Uiso   1.00
O73    O     0.25440   0.15277   0.26768   0.00000  Uiso   1.00
O74    O     0.13800   0.06903   0.23607   0.00000  Uiso   1.00
O75    O     0.20437   0.25527   0.21806   0.00000  Uiso   1.00
Zn76   Zn    0.19244   0.14090   0.28278   0.00000  Uiso   1.00
Zn77   Zn    0.13459   0.12378   0.22258   0.00000  Uiso   1.00
Zn78   Zn    0.21166   0.19664   0.21188   0.00000  Uiso   1.00
Zn79   Zn    0.12798   0.20535   0.28277   0.00000  Uiso   1.00
C80    C     0.38581   0.15995   0.25868   0.00000  Uiso   1.00
C81    C     0.51892   0.11675   0.46148   0.00000  Uiso   1.00
C82    C     0.54032   0.09941   0.48290   0.00000  Uiso   1.00
C83    C     0.61437   0.17355   0.24118   0.00000  Uiso   1.00
C84    C     0.53589   0.11256   0.02243   0.00000  Uiso   1.00
C85    C     0.50876   0.14382   0.04236   0.00000  Uiso   1.00
C86    C     0.55725   0.09308   0.04251   0.00000  Uiso   1.00
C87    C     0.55205   0.10404   0.08230   0.00000  Uiso   1.00
C88    C     0.50858   0.15890   0.08195   0.00000  Uiso   1.00
C89    C     0.66039   0.17611   0.23751   0.00000  Uiso   1.00
C90    C     0.34043   0.15757   0.26208   0.00000  Uiso   1.00
C91    C     0.42975   0.21281   0.42066   0.00000  Uiso   1.00
C92    C     0.51400   0.32210   0.23797   0.00000  Uiso   1.00
C93    C     0.48459   0.01201   0.26186   0.00000  Uiso   1.00
C94    C     0.48915   0.05611   0.25887   0.00000  Uiso   1.00
C95    C     0.51010   0.27764   0.24130   0.00000  Uiso   1.00
C96    C     0.52139   0.14521   0.14414   0.00000  Uiso   1.00
C97    C     0.47872   0.18771   0.35614   0.00000  Uiso   1.00
C98    C     0.46602   0.19276   0.39932   0.00000  Uiso   1.00
C99    C     0.52832   0.13685   0.10191   0.00000  Uiso   1.00
C100   C     0.41584   0.21387   0.46140   0.00000  Uiso   1.00
C101   C     0.49514   0.20072   0.10056   0.00000  Uiso   1.00
C102   C     0.48834   0.17426   0.41924   0.00000  Uiso   1.00
C103   C     0.51678   0.23697   0.08328   0.00000  Uiso   1.00
C104   C     0.50561   0.27650   0.10112   0.00000  Uiso   1.00
C105   C     0.47282   0.28017   0.13633   0.00000  Uiso   1.00
C106   C     0.45087   0.24431   0.15361   0.00000  Uiso   1.00
C107   C     0.46180   0.20473   0.13582   0.00000  Uiso   1.00
C108   C     0.51903   0.09367   0.42250   0.00000  Uiso   1.00
C109   C     0.48014   0.07442   0.41499   0.00000  Uiso   1.00
C110   C     0.48076   0.04945   0.37959   0.00000  Uiso   1.00
C111   C     0.52011   0.04335   0.35164   0.00000  Uiso   1.00
C112   C     0.55883   0.06295   0.35856   0.00000  Uiso   1.00
C113   C     0.47258   0.17153   0.45987   0.00000  Uiso   1.00
C114   C     0.55840   0.08789   0.39389   0.00000  Uiso   1.00
C115   C     0.43709   0.19366   0.48114   0.00000  Uiso   1.00
C116   C     0.49225   0.14913   0.48025   0.00000  Uiso   1.00
C117   C     0.48308   0.15830   0.02184   0.00000  Uiso   1.00
C118   C     0.44587   0.17816   0.04191   0.00000  Uiso   1.00
C119   C     0.42305   0.19519   0.02187   0.00000  Uiso   1.00
H120   H     0.65133   0.14061   0.28518   0.00000  Uiso   1.00
H121   H     0.52253   0.30431   0.08774   0.00000  Uiso   1.00
H122   H     0.46437   0.31081   0.15019   0.00000  Uiso   1.00
H123   H     0.42535   0.24717   0.18079   0.00000  Uiso   1.00
H124   H     0.44406   0.17724   0.14930   0.00000  Uiso   1.00
H125   H     0.56712   0.08723   0.09782   0.00000  Uiso   1.00
H126   H     0.55958   0.07401   0.46879   0.00000  Uiso   1.00
H127   H     0.51853   0.16281   0.40264   0.00000  Uiso   1.00
H128   H     0.43241   0.17884   0.07323   0.00000  Uiso   1.00
H129   H     0.44954   0.07805   0.43685   0.00000  Uiso   1.00
H130   H     0.45081   0.03430   0.37407   0.00000  Uiso   1.00
H131   H     0.38816   0.23014   0.47746   0.00000  Uiso   1.00
H132   H     0.52069   0.02324   0.32471   0.00000  Uiso   1.00
H133   H     0.58923   0.05835   0.33676   0.00000  Uiso   1.00
H134   H     0.58871   0.10233   0.39919   0.00000  Uiso   1.00
H135   H     0.41197   0.22739   0.40589   0.00000  Uiso   1.00
H136   H     0.39484   0.21045   0.03843   0.00000  Uiso   1.00
H137   H     0.57697   0.06830   0.02764   0.00000  Uiso   1.00
H138   H     0.35014   0.19311   0.21474   0.00000  Uiso   1.00
H139   H     0.54112   0.00273   0.21597   0.00000  Uiso   1.00
H140   H     0.45712   0.33218   0.28398   0.00000  Uiso   1.00
H141   H     0.54255   0.23460   0.05620   0.00000  Uiso   1.00
O142   O     0.50000   0.16667   0.25000   0.00000  Uiso   1.00
O143   O     0.49027   0.12393   0.16625   0.00000  Uiso   1.00
O144   O     0.46020   0.20646   0.33749   0.00000  Uiso   1.00
O145   O     0.54421   0.17493   0.15877   0.00000  Uiso   1.00
O146   O     0.50532   0.16135   0.33749   0.00000  Uiso   1.00
O147   O     0.51182   0.08101   0.27820   0.00000  Uiso   1.00
O148   O     0.47914   0.26136   0.26767   0.00000  Uiso   1.00
O149   O     0.40785   0.13251   0.23607   0.00000  Uiso   1.00
O150   O     0.60119   0.19179   0.21806   0.00000  Uiso   1.00
O151   O     0.40323   0.18960   0.27820   0.00000  Uiso   1.00
O152   O     0.58773   0.15277   0.26768   0.00000  Uiso   1.00
O153   O     0.47133   0.06903   0.23607   0.00000  Uiso   1.00
O154   O     0.53771   0.25527   0.21806   0.00000  Uiso   1.00
Zn155  Zn    0.52577   0.14090   0.28278   0.00000  Uiso   1.00
Zn156  Zn    0.46792   0.12378   0.22258   0.00000  Uiso   1.00
Zn157  Zn    0.54500   0.19664   0.21188   0.00000  Uiso   1.00
Zn158  Zn    0.46131   0.20535   0.28277   0.00000  Uiso   1.00
C159   C     0.71915   0.15995   0.25868   0.00000  Uiso   1.00
C160   C     0.85226   0.11675   0.46148   0.00000  Uiso   1.00
C161   C     0.87365   0.09941   0.48290   0.00000  Uiso   1.00
C162   C     0.94770   0.17355   0.24118   0.00000  Uiso   1.00
C163   C     0.86922   0.11256   0.02243   0.00000  Uiso   1.00
C164   C     0.84209   0.14382   0.04236   0.00000  Uiso   1.00
C165   C     0.89059   0.09308   0.04251   0.00000  Uiso   1.00
C166   C     0.88539   0.10404   0.08230   0.00000  Uiso   1.00
C167   C     0.84191   0.15890   0.08195   0.00000  Uiso   1.00
C168   C     0.99372   0.17611   0.23751   0.00000  Uiso   1.00
C169   C     0.67376   0.15757   0.26208   0.00000  Uiso   1.00
C170   C     0.76309   0.21281   0.42066   0.00000  Uiso   1.00
C171   C     0.84733   0.32210   0.23797   0.00000  Uiso   1.00
C172   C     0.81792   0.01201   0.26186   0.00000  Uiso   1.00
C173   C     0.82248   0.05611   0.25887   0.00000  Uiso   1.00
C174   C     0.84344   0.27764   0.24130   0.00000  Uiso   1.00
C175   C     0.85473   0.14521   0.14414   0.00000  Uiso   1.00
C176   C     0.81206   0.18771   0.35614   0.00000  Uiso   1.00
C177   C     0.79935   0.19276   0.39932   0.00000  Uiso   1.00
C178   C     0.86165   0.13685   0.10191   0.00000  Uiso   1.00
C179   C     0.74917   0.21387   0.46140   0.00000  Uiso   1.00
C180   C     0.82847   0.20072   0.10056   0.00000  Uiso   1.00
C181   C     0.82168   0.17426   0.41924   0.00000  Uiso   1.00
C182   C     0.85012   0.23697   0.08328   0.00000  Uiso   1.00
C183   C     0.83894   0.27650   0.10112   0.00000  Uiso   1.00
C184   C     0.80616   0.28017   0.13633   0.00000  Uiso   1.00
C185   C     0.78420   0.24431   0.15361   0.00000  Uiso   1.00
C186   C     0.79513   0.20473   0.13582   0.00000  Uiso   1.00
C187   C     0.85236   0.09367   0.42250   0.00000  Uiso   1.00
C188   C     0.81347   0.07442   0.41499   0.00000  Uiso   1.00
C189   C     0.81410   0.04945   0.37959   0.00000  Uiso   1.00
C190   C     0.85344   0.04335   0.35164   0.00000  Uiso   1.00
C191   C     0.89216   0.06295   0.35856   0.00000  Uiso   1.00
C192   C     0.80592   0.17153   0.45987   0.00000  Uiso   1.00
C193   C     0.89173   0.08789   0.39389   0.00000  Uiso   1.00
C194   C     0.77042   0.19366   0.48114   0.00000  Uiso   1.00
C195   C     0.82558   0.14913   0.48025   0.00000  Uiso   1.00
C196   C     0.81641   0.15830   0.02184   0.00000  Uiso   1.00
C197   C     0.77921   0.17816   0.04191   0.00000  Uiso   1.00
C198   C     0.75638   0.19519   0.02187   0.00000  Uiso   1.00
H199   H     0.98467   0.14061   0.28518   0.00000  Uiso   1.00
H200   H     0.85586   0.30431   0.08774   0.00000  Uiso   1.00
H201   H     0.79771   0.31081   0.15019   0.00000  Uiso   1.00
H202   H     0.75868   0.24717   0.18079   0.00000  Uiso   1.00
H203   H     0.77739   0.17724   0.14930   0.00000  Uiso   1.00
H204   H     0.90045   0.08723   0.09782   0.00000  Uiso   1.00
H205   H     0.89291   0.07401   0.46879   0.00000  Uiso   1.00
H206   H     0.85186   0.16281   0.40264   0.00000  Uiso   1.00
H207   H     0.76574   0.17884   0.07323   0.00000  Uiso   1.00
H208   H     0.78287   0.07805   0.43685   0.00000  Uiso   1.00
H209   H     0.78414   0.03430   0.37407   0.00000  Uiso   1.00
H210   H     0.72149   0.23014   0.47746   0.00000  Uiso   1.00
H211   H     0.85402   0.02324   0.32471   0.00000  Uiso   1.00
H212   H     0.92257   0.05835   0.33676   0.00000  Uiso   1.00
H213   H     0.92204   0.10233   0.39919   0.00000  Uiso   1.00
H214   H     0.74530   0.22739   0.40589   0.00000  Uiso   1.00
H215   H     0.72817   0.21045   0.03843   0.00000  Uiso   1.00
H216   H     0.91031   0.06830   0.02764   0.00000  Uiso   1.00
H217   H     0.68347   0.19311   0.21474   0.00000  Uiso   1.00
H218   H     0.87445   0.00273   0.21597   0.00000  Uiso   1.00
H219   H     0.79046   0.33218   0.28398   0.00000  Uiso   1.00
H220   H     0.87588   0.23460   0.05620   0.00000  Uiso   1.00
O221   O     0.83333   0.16667   0.25000   0.00000  Uiso   1.00
O222   O     0.82360   0.12393   0.16625   0.00000  Uiso   1.00
O223   O     0.79354   0.20646   0.33749   0.00000  Uiso   1.00
O224   O     0.87755   0.17493   0.15877   0.00000  Uiso   1.00
O225   O     0.83865   0.16135   0.33749   0.00000  Uiso   1.00
O226   O     0.84515   0.08101   0.27820   0.00000  Uiso   1.00
O227   O     0.81247   0.26136   0.26767   0.00000  Uiso   1.00
O228   O     0.74119   0.13251   0.23607   0.00000  Uiso   1.00
O229   O     0.93452   0.19179   0.21806   0.00000  Uiso   1.00
O230   O     0.73656   0.18960   0.27820   0.00000  Uiso   1.00
O231   O     0.92106   0.15277   0.26768   0.00000  Uiso   1.00
O232   O     0.80467   0.06903   0.23607   0.00000  Uiso   1.00
O233   O     0.87104   0.25527   0.21806   0.00000  Uiso   1.00
Zn234  Zn    0.85910   0.14090   0.28278   0.00000  Uiso   1.00
Zn235  Zn    0.80125   0.12378   0.22258   0.00000  Uiso   1.00
Zn236  Zn    0.87833   0.19664   0.21188   0.00000  Uiso   1.00
Zn237  Zn    0.79465   0.20535   0.28277   0.00000  Uiso   1.00
C238   C     0.05248   0.49328   0.25868   0.00000  Uiso   1.00
C239   C     0.18559   0.45008   0.46148   0.00000  Uiso   1.00
C240   C     0.20698   0.43275   0.48290   0.00000  Uiso   1.00
C241   C     0.28104   0.50688   0.24118   0.00000  Uiso   1.00
C242   C     0.20255   0.44589   0.02243   0.00000  Uiso   1.00
C243   C     0.17542   0.47716   0.04236   0.00000  Uiso   1.00
C244   C     0.22392   0.42641   0.04251   0.00000  Uiso   1.00
C245   C     0.21872   0.43737   0.08230   0.00000  Uiso   1.00
C246   C     0.17525   0.49224   0.08195   0.00000  Uiso   1.00
C247   C     0.32705   0.50944   0.23751   0.00000  Uiso   1.00
C248   C     0.00710   0.49090   0.26208   0.00000  Uiso   1.00
C249   C     0.09642   0.54614   0.42066   0.00000  Uiso   1.00
C250   C     0.18066   0.65544   0.23797   0.00000  Uiso   1.00
C251   C     0.15125   0.34534   0.26186   0.00000  Uiso   1.00
C252   C     0.15581   0.38944   0.25887   0.00000  Uiso   1.00
C253   C     0.17677   0.61098   0.24130   0.00000  Uiso   1.00
C254   C     0.18806   0.47854   0.14414   0.00000  Uiso   1.00
C255   C     0.14539   0.52105   0.35614   0.00000  Uiso   1.00
C256   C     0.13268   0.52609   0.39932   0.00000  Uiso   1.00
C257   C     0.19498   0.47018   0.10191   0.00000  Uiso   1.00
C258   C     0.08250   0.54721   0.46140   0.00000  Uiso   1.00
C259   C     0.16181   0.53405   0.10056   0.00000  Uiso   1.00
C260   C     0.15501   0.50759   0.41924   0.00000  Uiso   1.00
C261   C     0.18345   0.57031   0.08328   0.00000  Uiso   1.00
C262   C     0.17228   0.60983   0.10112   0.00000  Uiso   1.00
C263   C     0.13949   0.61351   0.13633   0.00000  Uiso   1.00
C264   C     0.11754   0.57764   0.15361   0.00000  Uiso   1.00
C265   C     0.12847   0.53806   0.13582   0.00000  Uiso   1.00
C266   C     0.18570   0.42700   0.42250   0.00000  Uiso   1.00
C267   C     0.14681   0.40775   0.41499   0.00000  Uiso   1.00
C268   C     0.14743   0.38278   0.37959   0.00000  Uiso   1.00
C269   C     0.18677   0.37668   0.35164   0.00000  Uiso   1.00
C270   C     0.22550   0.39628   0.35856   0.00000  Uiso   1.00
C271   C     0.13925   0.50486   0.45987   0.00000  Uiso   1.00
C272   C     0.22506   0.42122   0.39389   0.00000  Uiso   1.00
C273   C     0.10375   0.52699   0.48114   0.00000  Uiso   1.00
C274   C     0.15891   0.48247   0.48025   0.00000  Uiso   1.00
C275   C     0.14974   0.49163   0.02184   0.00000  Uiso   1.00
C276   C     0.11254   0.51149   0.04191   0.00000  Uiso   1.00
C277   C     0.08972   0.52852   0.02187   0.00000  Uiso   1.00
H278   H     0.31800   0.47395   0.28518   0.00000  Uiso   1.00
H279   H     0.18920   0.63764   0.08774   0.00000  Uiso   1.00
H280   H     0.13104   0.64414   0.15019   0.00000  Uiso   1.00
H281   H     0.09201   0.58051   0.18079   0.00000  Uiso   1.00
H282   H     0.11072   0.51058   0.14930   0.00000  Uiso   1.00
H283   H     0.23378   0.42056   0.09782   0.00000  Uiso   1.00
H284   H     0.22624   0.40734   0.46879   0.00000  Uiso   1.00
H285   H     0.18519   0.49614   0.40264   0.00000  Uiso   1.00
H286   H     0.09908   0.51217   0.07323   0.00000  Uiso   1.00
H287   H     0.11620   0.41138   0.43685   0.00000  Uiso   1.00
H288   H     0.11747   0.36764   0.37407   0.00000  Uiso   1.00
H289   H     0.05483   0.56348   0.47746   0.00000  Uiso   1.00
H290   H     0.18736   0.35657   0.32471   0.00000  Uiso   1.00
H291   H     0.25590   0.39168   0.33676   0.00000  Uiso   1.00
H292   H     0.25537   0.43566   0.39919   0.00000  Uiso   1.00
H293   H     0.07864   0.56072   0.40589   0.00000  Uiso   1.00
H294   H     0.06150   0.54378   0.03843   0.00000  Uiso   1.00
H295   H     0.24364   0.40163   0.02764   0.00000  Uiso   1.00
H296   H     0.01681   0.52644   0.21474   0.00000  Uiso   1.00
H297   H     0.20778   0.33606   0.21597   0.00000  Uiso   1.00
H298   H     0.12379   0.66551   0.28398   0.00000  Uiso   1.00
H299   H     0.20921   0.56793   0.05620   0.00000  Uiso   1.00
O300   O     0.16667   0.50000   0.25000   0.00000  Uiso   1.00
O301   O     0.15693   0.45726   0.16625   0.00000  Uiso   1.00
O302   O     0.12687   0.53979   0.33749   0.00000  Uiso   1.00
O303   O     0.21088   0.50826   0.15877   0.00000  Uiso   1.00
O304   O     0.17198   0.49468   0.33749   0.00000  Uiso   1.00
O305   O     0.17849   0.41434   0.27820   0.00000  Uiso   1.00
O306   O     0.14581   0.59469   0.26767   0.00000  Uiso   1.00
O307   O     0.07452   0.46584   0.23607   0.00000  Uiso   1.00
O308   O     0.26785   0.52512   0.21806   0.00000  Uiso   1.00
O309   O     0.06990   0.52293   0.27820   0.00000  Uiso   1.00
O310   O     0.25440   0.48610   0.26768   0.00000  Uiso   1.00
O311   O     0.13800   0.40236   0.23607   0.00000  Uiso   1.00
O312   O     0.20437   0.58860   0.21806   0.00000  Uiso   1.00
Zn313  Zn    0.19244   0.47423   0.28278   0.00000  Uiso   1.00
Zn314  Zn    0.13459   0.45711   0.22258   0.00000  Uiso   1.00
Zn315  Zn    0.21166   0.52997   0.21188   0.00000  Uiso   1.00
Zn316  Zn    0.12798   0.53868   0.28277   0.00000  Uiso   1.00
C317   C     0.38581   0.49328   0.25868   0.00000  Uiso   1.00
C318   C     0.51892   0.45008   0.46148   0.00000  Uiso   1.00
C319   C     0.54032   0.43275   0.48290   0.00000  Uiso   1.00
C320   C     0.61437   0.50688   0.24118   0.00000  Uiso   1.00
C321   C     0.53589   0.44589   0.02243   0.00000  Uiso   1.00
C322   C     0.50876   0.47716   0.04236   0.00000  Uiso   1.00
C323   C     0.55725   0.42641   0.04251   0.00000  Uiso   1.00
C324   C     0.55205   0.43737   0.08230   0.00000  Uiso   1.00
C325   C     0.50858   0.49224   0.08195   0.00000  Uiso   1.00
C326   C     0.66039   0.50944   0.23751   0.00000  Uiso   1.00
C327   C     0.34043   0.49090   0.26208   0.00000  Uiso   1.00
C328   C     0.42975   0.54614   0.42066   0.00000  Uiso   1.00
C329   C     0.51400   0.65544   0.23797   0.00000  Uiso   1.00
C330   C     0.48459   0.34534   0.26186   0.00000  Uiso   1.00
C331   C     0.48915   0.38944   0.25887   0.00000  Uiso   1.00
C332   C     0.51010   0.61098   0.24130   0.00000  Uiso   1.00
C333   C     0.52139   0.47854   0.14414   0.00000  Uiso   1.00
C334   C     0.47872   0.52105   0.35614   0.00000  Uiso   1.00
C335   C     0.46602   0.52609   0.39932   0.00000  Uiso   1.00
C336   C     0.52832   0.47018   0.10191   0.00000  Uiso   1.00
C337   C     0.41584   0.54721   0.46140   0.00000  Uiso   1.00
C338   C     0.49514   0.53405   0.10056   0.00000  Uiso   1.00
C339   C     0.48834   0.50759   0.41924   0.00000  Uiso   1.00
C340   C     0.51678   0.57031   0.08328   0.00000  Uiso   1.00
C341   C     0.50561   0.60983   0.10112   0.00000  Uiso   1.00
C342   C     0.47282   0.61351   0.13633   0.00000  Uiso   1.00
C343   C     0.45087   0.57764   0.15361   0.00000  Uiso   1.00
C344   C     0.46180   0.53806   0.13582   0.00000  Uiso   1.00
C345   C     0.51903   0.42700   0.42250   0.00000  Uiso   1.00
C346   C     0.48014   0.40775   0.41499   0.00000  Uiso   1.00
C347   C     0.48076   0.38278   0.37959   0.00000  Uiso   1.00
C348   C     0.52011   0.37668   0.35164   0.00000  Uiso   1.00
C349   C     0.55883   0.39628   0.35856   0.00000  Uiso   1.00
C350   C     0.47258   0.50486   0.45987   0.00000  Uiso   1.00
C351   C     0.55840   0.42122   0.39389   0.00000  Uiso   1.00
C352   C     0.43709   0.52699   0.48114   0.00000  Uiso   1.00
C353   C     0.49225   0.48247   0.48025   0.00000  Uiso   1.00
C354   C     0.48308   0.49163   0.02184   0.00000  Uiso   1.00
C355   C     0.44587   0.51149   0.04191   0.00000  Uiso   1.00
C356   C     0.42305   0.52852   0.02187   0.00000  Uiso   1.00
H357   H     0.65133   0.47395   0.28518   0.00000  Uiso   1.00
H358   H     0.52253   0.63764   0.08774   0.00000  Uiso   1.00
H359   H     0.46437   0.64414   0.15019   0.00000  Uiso   1.00
H360   H     0.42535   0.58051   0.18079   0.00000  Uiso   1.00
H361   H     0.44406   0.51058   0.14930   0.00000  Uiso   1.00
H362   H     0.56712   0.42056   0.09782   0.00000  Uiso   1.00
H363   H     0.55958   0.40734   0.46879   0.00000  Uiso   1.00
H364   H     0.51853   0.49614   0.40264   0.00000  Uiso   1.00
H365   H     0.43241   0.51217   0.07323   0.00000  Uiso   1.00
H366   H     0.44954   0.41138   0.43685   0.00000  Uiso   1.00
H367   H     0.45081   0.36764   0.37407   0.00000  Uiso   1.00
H368   H     0.38816   0.56348   0.47746   0.00000  Uiso   1.00
H369   H     0.52069   0.35657   0.32471   0.00000  Uiso   1.00
H370   H     0.58923   0.39168   0.33676   0.00000  Uiso   1.00
H371   H     0.58871   0.43566   0.39919   0.00000  Uiso   1.00
H372   H     0.41197   0.56072   0.40589   0.00000  Uiso   1.00
H373   H     0.39484   0.54378   0.03843   0.00000  Uiso   1.00
H374   H     0.57697   0.40163   0.02764   0.00000  Uiso   1.00
H375   H     0.35014   0.52644   0.21474   0.00000  Uiso   1.00
H376   H     0.54112   0.33606   0.21597   0.00000  Uiso   1.00
H377   H     0.45712   0.66551   0.28398   0.00000  Uiso   1.00
H378   H     0.54255   0.56793   0.05620   0.00000  Uiso   1.00
O379   O     0.50000   0.50000   0.25000   0.00000  Uiso   1.00
O380   O     0.49027   0.45726   0.16625   0.00000  Uiso   1.00
O381   O     0.46020   0.53979   0.33749   0.00000  Uiso   1.00
O382   O     0.54421   0.50826   0.15877   0.00000  Uiso   1.00
O383   O     0.50532   0.49468   0.33749   0.00000  Uiso   1.00
O384   O     0.51182   0.41434   0.27820   0.00000  Uiso   1.00
O385   O     0.47914   0.59469   0.26767   0.00000  Uiso   1.00
O386   O     0.40785   0.46584   0.23607   0.00000  Uiso   1.00
O387   O     0.60119   0.52512   0.21806   0.00000  Uiso   1.00
O388   O     0.40323   0.52293   0.27820   0.00000  Uiso   1.00
O389   O     0.58773   0.48610   0.26768   0.00000  Uiso   1.00
O390   O     0.47133   0.40236   0.23607   0.00000  Uiso   1.00
O391   O     0.53771   0.58860   0.21806   0.00000  Uiso   1.00
Zn392  Zn    0.52577   0.47423   0.28278   0.00000  Uiso   1.00
Zn393  Zn    0.46792   0.45711   0.22258   0.00000  Uiso   1.00
Zn394  Zn    0.54500   0.52997   0.21188   0.00000  Uiso   1.00
Zn395  Zn    0.46131   0.53868   0.28277   0.00000  Uiso   1.00
C396   C     0.71915   0.49328   0.25868   0.00000  Uiso   1.00
C397   C     0.85226   0.45008   0.46148   0.00000  Uiso   1.00
C398   C     0.87365   0.43275   0.48290   0.00000  Uiso   1.00
C399   C     0.94770   0.50688   0.24118   0.00000  Uiso   1.00
C400   C     0.86922   0.44589   0.02243   0.00000  Uiso   1.00
C401   C     0.84209   0.47716   0.04236   0.00000  Uiso   1.00
C402   C     0.89059   0.42641   0.04251   0.00000  Uiso   1.00
C403   C     0.88539   0.43737   0.08230   0.00000  Uiso   1.00
C404   C     0.84191   0.49224   0.08195   0.00000  Uiso   1.00
C405   C     0.99372   0.50944   0.23751   0.00000  Uiso   1.00
C406   C     0.67376   0.49090   0.26208   0.00000  Uiso   1.00
C407   C     0.76309   0.54614   0.42066   0.00000  Uiso   1.00
C408   C     0.84733   0.65544   0.23797   0.00000  Uiso   1.00
C409   C     0.81792   0.34534   0.26186   0.00000  Uiso   1.00
C410   C     0.82248   0.38944   0.25887   0.00000  Uiso   1.00
C411   C     0.84344   0.61098   0.24130   0.00000  Uiso   1.00
C412   C     0.85473   0.47854   0.14414   0.00000  Uiso   1.00
C413   C     0.81206   0.52105   0.35614   0.00000  Uiso   1.00
C414   C     0.79935   0.52609   0.39932   0.00000  Uiso   1.00
C415   C     0.86165   0.47018   0.10191   0.00000  Uiso   1.00
C416   C     0.74917   0.54721   0.46140   0.00000  Uiso   1.00
C417   C     0.82847   0.53405   0.10056   0.00000  Uiso   1.00
C418   C     0.82168   0.50759   0.41924   0.00000  Uiso   1.00
C419   C     0.85012   0.57031   0.08328   0.00000  Uiso   1.00
C420   C     0.83894   0.60983   0.10112   0.00000  Uiso   1.00
C421   C     0.80616   0.61351   0.13633   0.00000  Uiso   1.00
C422   C     0.78420   0.57764   0.15361   0.00000  Uiso   1.00
C423   C     0.79513   0.53806   0.13582   0.00000  Uiso   1.00
C424   C     0.85236   0.42700   0.42250   0.00000  Uiso   1.00
C425   C     0.81347   0.40775   0.41499   0.00000  Uiso   1.00
C426   C     0.81410   0.38278   0.37959   0.00000  Uiso   1.00
C427   C     0.85344   0.37668   0.35164   0.00000  Uiso   1.00
C428   C     0.89216   0.39628   0.35856   0.00000  Uiso   1.00
C429   C     0.80592   0.50486   0.45987   0.00000  Uiso   1.00
C430   C     0.89173   0.42122   0.39389   0.00000  Uiso   1.00
C431   C     0.77042   0.52699   0.48114   0.00000  Uiso   1.00
C432   C     0.82558   0.48247   0.48025   0.00000  Uiso   1.00
C433   C     0.81641   0.49163   0.02184   0.00000  Uiso   1.00
C434   C     0.77921   0.51149   0.04191   0.00000  Uiso   1.00
C435   C     0.75638   0.52852   0.02187   0.00000  Uiso   1.00
H436   H     0.98467   0.47395   0.28518   0.00000  Uiso   1.00
H437   H     0.85586   0.63764   0.08774   0.00000  Uiso   1.00
H438   H     0.79771   0.64414   0.15019   0.00000  Uiso   1.00
H439   H     0.75868   0.58051   0.18079   0.00000  Uiso   1.00
H440   H     0.77739   0.51058   0.14930   0.00000  Uiso   1.00
H441   H     0.90045   0.42056   0.09782   0.00000  Uiso   1.00
H442   H     0.89291   0.40734   0.46879   0.00000  Uiso   1.00
H443   H     0.85186   0.49614   0.40264   0.00000  Uiso   1.00
H444   H     0.76574   0.51217   0.07323   0.00000  Uiso   1.00
H445   H     0.78287   0.41138   0.43685   0.00000  Uiso   1.00
H446   H     0.78414   0.36764   0.37407   0.00000  Uiso   1.00
H447   H     0.72149   0.56348   0.47746   0.00000  Uiso   1.00
H448   H     0.85402   0.35657   0.32471   0.00000  Uiso   1.00
H449   H     0.92257   0.39168   0.33676   0.00000  Uiso   1.00
H450   H     0.92204   0.43566   0.39919   0.00000  Uiso   1.00
H451   H     0.74530   0.56072   0.40589   0.00000  Uiso   1.00
H452   H     0.72817   0.54378   0.03843   0.00000  Uiso   1.00
H453   H     0.91031   0.40163   0.02764   0.00000  Uiso   1.00
H454   H     0.68347   0.52644   0.21474   0.00000  Uiso   1.00
H455   H     0.87445   0.33606   0.21597   0.00000  Uiso   1.00
H456   H     0.79046   0.66551   0.28398   0.00000  Uiso   1.00
H457   H     0.87588   0.56793   0.05620   0.00000  Uiso   1.00
O458   O     0.83333   0.50000   0.25000   0.00000  Uiso   1.00
O459   O     0.82360   0.45726   0.16625   0.00000  Uiso   1.00
O460   O     0.79354   0.53979   0.33749   0.00000  Uiso   1.00
O461   O     0.87755   0.50826   0.15877   0.00000  Uiso   1.00
O462   O     0.83865   0.49468   0.33749   0.00000  Uiso   1.00
O463   O     0.84515   0.41434   0.27820   0.00000  Uiso   1.00
O464   O     0.81247   0.59469   0.26767   0.00000  Uiso   1.00
O465   O     0.74119   0.46584   0.23607   0.00000  Uiso   1.00
O466   O     0.93452   0.52512   0.21806   0.00000  Uiso   1.00
O467   O     0.73656   0.52293   0.27820   0.00000  Uiso   1.00
O468   O     0.92106   0.48610   0.26768   0.00000  Uiso   1.00
O469   O     0.80467   0.40236   0.23607   0.00000  Uiso   1.00
O470   O     0.87104   0.58860   0.21806   0.00000  Uiso   1.00
Zn471  Zn    0.85910   0.47423   0.28278   0.00000  Uiso   1.00
Zn472  Zn    0.80125   0.45711   0.22258   0.00000  Uiso   1.00
Zn473  Zn    0.87833   0.52997   0.21188   0.00000  Uiso   1.00
Zn474  Zn    0.79465   0.53868   0.28277   0.00000  Uiso   1.00
C475   C     0.05248   0.82661   0.25868   0.00000  Uiso   1.00
C476   C     0.18559   0.78342   0.46148   0.00000  Uiso   1.00
C477   C     0.20698   0.76608   0.48290   0.00000  Uiso   1.00
C478   C     0.28104   0.84022   0.24118   0.00000  Uiso   1.00
C479   C     0.20255   0.77923   0.02243   0.00000  Uiso   1.00
C480   C     0.17542   0.81049   0.04236   0.00000  Uiso   1.00
C481   C     0.22392   0.75974   0.04251   0.00000  Uiso   1.00
C482   C     0.21872   0.77070   0.08230   0.00000  Uiso   1.00
C483   C     0.17525   0.82557   0.08195   0.00000  Uiso   1.00
C484   C     0.32705   0.84278   0.23751   0.00000  Uiso   1.00
C485   C     0.00710   0.82424   0.26208   0.00000  Uiso   1.00
C486   C     0.09642   0.87947   0.42066   0.00000  Uiso   1.00
C487   C     0.18066   0.98877   0.23797   0.00000  Uiso   1.00
C488   C     0.15125   0.67868   0.26186   0.00000  Uiso   1.00
C489   C     0.15581   0.72277   0.25887   0.00000  Uiso   1.00
C490   C     0.17677   0.94431   0.24130   0.00000  Uiso   1.00
C491   C     0.18806   0.81188   0.14414   0.00000  Uiso   1.00
C492   C     0.14539   0.85438   0.35614   0.00000  Uiso   1.00
C493   C     0.13268   0.85942   0.39932   0.00000  Uiso   1.00
C494   C     0.19498   0.80351   0.10191   0.00000  Uiso   1.00
C495   C     0.08250   0.88054   0.46140   0.00000  Uiso   1.00
C496   C     0.16181   0.86738   0.10056   0.00000  Uiso   1.00
C497   C     0.15501   0.84093   0.41924   0.00000  Uiso   1.00
C498   C     0.18345   0.90364   0.08328   0.00000  Uiso   1.00
C499   C     0.17228   0.94316   0.10112   0.00000  Uiso   1.00
C500   C     0.13949   0.94684   0.13633   0.00000  Uiso   1.00
C501   C     0.11754   0.91098   0.15361   0.00000  Uiso   1.00
C502   C     0.12847   0.87139   0.13582   0.00000  Uiso   1.00
C503   C     0.18570   0.76033   0.42250   0.00000  Uiso   1.00
C504   C     0.14681   0.74108   0.41499   0.00000  Uiso   1.00
C505   C     0.14743   0.71611   0.37959   0.00000  Uiso   1.00
C506   C     0.18677   0.71002   0.35164   0.00000  Uiso   1.00
C507   C     0.22550   0.72961   0.35856   0.00000  Uiso   1.00
C508   C     0.13925   0.83820   0.45987   0.00000  Uiso   1.00
C509   C     0.22506   0.75455   0.39389   0.00000  Uiso   1.00
C510   C     0.10375   0.86032   0.48114   0.00000  Uiso   1.00
C511   C     0.15891   0.81580   0.48025   0.00000  Uiso   1.00
C512   C     0.14974   0.82496   0.02184   0.00000  Uiso   1.00
C513   C     0.11254   0.84483   0.04191   0.00000  Uiso   1.00
C514   C     0.08972   0.86185   0.02187   0.00000  Uiso   1.00
H515   H     0.31800   0.80728   0.28518   0.00000  Uiso   1.00
H516   H     0.18920   0.97098   0.08774   0.00000  Uiso   1.00
H517   H     0.13104   0.97747   0.15019   0.00000  Uiso   1.00
H518   H     0.09201   0.91384   0.18079   0.00000  Uiso   1.00
H519   H     0.11072   0.84391   0.14930   0.00000  Uiso   1.00
H520   H     0.23378   0.75390   0.09782   0.00000  Uiso   1.00
H521   H     0.22624   0.74068   0.46879   0.00000  Uiso   1.00
H522   H     0.18519   0.82948   0.40264   0.00000  Uiso   1.00
H523   H     0.09908   0.84550   0.07323   0.00000  Uiso   1.00
H524   H     0.11620   0.74472   0.43685   0.00000  Uiso   1.00
H525   H     0.11747   0.70097   0.37407   0.00000  Uiso   1.00
H526   H     0.05483   0.89681   0.47746   0.00000  Uiso   1.00
H527   H     0.18736   0.68990   0.32471   0.00000  Uiso   1.00
H528   H     0.25590   0.72501   0.33676   0.00000  Uiso   1.00
H529   H     0.25537   0.76899   0.39919   0.00000  Uiso   1.00
H530   H     0.07864   0.89406   0.40589   0.00000  Uiso   1.00
H531   H     0.06150   0.87712   0.03843   0.00000  Uiso   1.00
H532   H     0.24364   0.73497   0.02764   0.00000  Uiso   1.00
H533   H     0.01681   0.85977   0.21474   0.00000  Uiso   1.00
H534   H     0.20778   0.66940   0.21597   0.00000  Uiso   1.00
H535   H     0.12379   0.99885   0.28398   0.00000  Uiso   1.00
H536   H     0.20921   0.90127   0.05620   0.00000  Uiso   1.00
O537   O     0.16667   0.83333   0.25000   0.00000  Uiso   1.00
O538   O     0.15693   0.79060   0.16625   0.00000  Uiso   1.00
O539   O     0.12687   0.87313   0.33749   0.00000  Uiso   1.00
O540   O     0.21088   0.84159   0.15877   0.00000  Uiso   1.00
O541   O     0.17198   0.82802   0.33749   0.00000  Uiso   1.00
O542   O     0.17849   0.74768   0.27820   0.00000  Uiso   1.00
O543   O     0.14581   0.92803   0.26767   0.00000  Uiso   1.00
O544   O     0.07452   0.79917   0.23607   0.00000  Uiso   1.00
O545   O     0.26785   0.85845   0.21806   0.00000  Uiso   1.00
O546   O     0.06990   0.85627   0.27820   0.00000  Uiso   1.00
O547   O     0.25440   0.81944   0.26768   0.00000  Uiso   1.00
O548   O     0.13800   0.73570   0.23607   0.00000  Uiso   1.00
O549   O     0.20437   0.92193   0.21806   0.00000  Uiso   1.00
Zn550  Zn    0.19244   0.80756   0.28278   0.00000  Uiso   1.00
Zn551  Zn    0.13459   0.79044   0.22258   0.00000  Uiso   1.00
Zn552  Zn    0.21166   0.86331   0.21188   0.00000  Uiso   1.00
Zn553  Zn    0.12798   0.87202   0.28277   0.00000  Uiso   1.00
C554   C     0.38581   0.82661   0.25868   0.00000  Uiso   1.00
C555   C     0.51892   0.78342   0.46148   0.00000  Uiso   1.00
C556   C     0.54032   0.76608   0.48290   0.00000  Uiso   1.00
C557   C     0.61437   0.84022   0.24118   0.00000  Uiso   1.00
C558   C     0.53589   0.77923   0.02243   0.00000  Uiso   1.00
C559   C     0.50876   0.81049   0.04236   0.00000  Uiso   1.00
C560   C     0.55725   0.75974   0.04251   0.00000  Uiso   1.00
C561   C     0.55205   0.77070   0.08230   0.00000  Uiso   1.00
C562   C     0.50858   0.82557   0.08195   0.00000  Uiso   1.00
C563   C     0.66039   0.84278   0.23751   0.00000  Uiso   1.00
C564   C     0.34043   0.82424   0.26208   0.00000  Uiso   1.00
C565   C     0.42975   0.87947   0.42066   0.00000  Uiso   1.00
C566   C     0.51400   0.98877   0.23797   0.00000  Uiso   1.00
C567   C     0.48459   0.67868   0.26186   0.00000  Uiso   1.00
C568   C     0.48915   0.72277   0.25887   0.00000  Uiso   1.00
C569   C     0.51010   0.94431   0.24130   0.00000  Uiso   1.00
C570   C     0.52139   0.81188   0.14414   0.00000  Uiso   1.00
C571   C     0.47872   0.85438   0.35614   0.00000  Uiso   1.00
C572   C     0.46602   0.85942   0.39932   0.00000  Uiso   1.00
C573   C     0.52832   0.80351   0.10191   0.00000  Uiso   1.00
C574   C     0.41584   0.88054   0.46140   0.00000  Uiso   1.00
C575   C     0.49514   0.86738   0.10056   0.00000  Uiso   1.00
C576   C     0.48834   0.84093   0.41924   0.00000  Uiso   1.00
C577   C     0.51678   0.90364   0.08328   0.00000  Uiso   1.00
C578   C     0.50561   0.94316   0.10112   0.00000  Uiso   1.00
C579   C     0.47282   0.94684   0.13633   0.00000  Uiso   1.00
C580   C     0.45087   0.91098   0.15361   0.00000  Uiso   1.00
C581   C     0.46180   0.87139   0.13582   0.00000  Uiso   1.00
C582   C     0.51903   0.76033   0.42250   0.00000  Uiso   1.00
C583   C     0.48014   0.74108   0.41499   0.00000  Uiso   1.00
C584   C     0.48076   0.71611   0.37959   0.00000  Uiso   1.00
C585   C     0.52011   0.71002   0.35164   0.00000  Uiso   1.00
C586   C     0.55883   0.72961   0.35856   0.00000  Uiso   1.00
C587   C     0.47258   0.83820   0.45987   0.00000  Uiso   1.00
C588   C     0.55840   0.75455   0.39389   0.00000  Uiso   1.00
C589   C     0.43709   0.86032   0.48114   0.00000  Uiso   1.00
C590   C     0.49225   0.81580   0.48025   0.00000  Uiso   1.00
C591   C     0.48308   0.82496   0.02184   0.00000  Uiso   1.00
C592   C     0.44587   0.84483   0.04191   0.00000  Uiso   1.00
C593   C     0.42305   0.86185   0.02187   0.00000  Uiso   1.00
H594   H     0.65133   0.80728   0.28518   0.00000  Uiso   1.00
H595   H     0.52253   0.97098   0.08774   0.00000  Uiso   1.00
H596   H     0.46437   0.97747   0.15019   0.00000  Uiso   1.00
H597   H     0.42535   0.91384   0.18079   0.00000  Uiso   1.00
H598   H     0.44406   0.84391   0.14930   0.00000  Uiso   1.00
H599   H     0.56712   0.75390   0.09782   0.00000  Uiso   1.00
H600   H     0.55958   0.74068   0.46879   0.00000  Uiso   1.00
H601   H     0.51853   0.82948   0.40264   0.00000  Uiso   1.00
H602   H     0.43241   0.84550   0.07323   0.00000  Uiso   1.00
H603   H     0.44954   0.74472   0.43685   0.00000  Uiso   1.00
H604   H     0.45081   0.70097   0.37407   0.00000  Uiso   1.00
H605   H     0.38816   0.89681   0.47746   0.00000  Uiso   1.00
H606   H     0.52069   0.68990   0.32471   0.00000  Uiso   1.00
H607   H     0.58923   0.72501   0.33676   0.00000  Uiso   1.00
H608   H     0.58871   0.76899   0.39919   0.00000  Uiso   1.00
H609   H     0.41197   0.89406   0.40589   0.00000  Uiso   1.00
H610   H     0.39484   0.87712   0.03843   0.00000  Uiso   1.00
H611   H     0.57697   0.73497   0.02764   0.00000  Uiso   1.00
H612   H     0.35014   0.85977   0.21474   0.00000  Uiso   1.00
H613   H     0.54112   0.66940   0.21597   0.00000  Uiso   1.00
H614   H     0.45712   0.99885   0.28398   0.00000  Uiso   1.00
H615   H     0.54255   0.90127   0.05620   0.00000  Uiso   1.00
O616   O     0.50000   0.83333   0.25000   0.00000  Uiso   1.00
O617   O     0.49027   0.79060   0.16625   0.00000  Uiso   1.00
O618   O     0.46020   0.87313   0.33749   0.00000  Uiso   1.00
O619   O     0.54421   0.84159   0.15877   0.00000  Uiso   1.00
O620   O     0.50532   0.82802   0.33749   0.00000  Uiso   1.00
O621   O     0.51182   0.74768   0.27820   0.00000  Uiso   1.00
O622   O     0.47914   0.92803   0.26767   0.00000  Uiso   1.00
O623   O     0.40785   0.79917   0.23607   0.00000  Uiso   1.00
O624   O     0.60119   0.85845   0.21806   0.00000  Uiso   1.00
O625   O     0.40323   0.85627   0.27820   0.00000  Uiso   1.00
O626   O     0.58773   0.81944   0.26768   0.00000  Uiso   1.00
O627   O     0.47133   0.73570   0.23607   0.00000  Uiso   1.00
O628   O     0.53771   0.92193   0.21806   0.00000  Uiso   1.00
Zn629  Zn    0.52577   0.80756   0.28278   0.00000  Uiso   1.00
Zn630  Zn    0.46792   0.79044   0.22258   0.00000  Uiso   1.00
Zn631  Zn    0.54500   0.86331   0.21188   0.00000  Uiso   1.00
Zn632  Zn    0.46131   0.87202   0.28277   0.00000  Uiso   1.00
C633   C     0.71915   0.82661   0.25868   0.00000  Uiso   1.00
C634   C     0.85226   0.78342   0.46148   0.00000  Uiso   1.00
C635   C     0.87365   0.76608   0.48290   0.00000  Uiso   1.00
C636   C     0.94770   0.84022   0.24118   0.00000  Uiso   1.00
C637   C     0.86922   0.77923   0.02243   0.00000  Uiso   1.00
C638   C     0.84209   0.81049   0.04236   0.00000  Uiso   1.00
C639   C     0.89059   0.75974   0.04251   0.00000  Uiso   1.00
C640   C     0.88539   0.77070   0.08230   0.00000  Uiso   1.00
C641   C     0.84191   0.82557   0.08195   0.00000  Uiso   1.00
C642   C     0.99372   0.84278   0.23751   0.00000  Uiso   1.00
C643   C     0.67376   0.82424   0.26208   0.00000  Uiso   1.00
C644   C     0.76309   0.87947   0.42066   0.00000  Uiso   1.00
C645   C     0.84733   0.98877   0.23797   0.00000  Uiso   1.00
C646   C     0.81792   0.67868   0.26186   0.00000  Uiso   1.00
C647   C     0.82248   0.72277   0.25887   0.00000  Uiso   1.00
C648   C     0.84344   0.94431   0.24130   0.00000  Uiso   1.00
C649   C     0.85473   0.81188   0.14414   0.00000  Uiso   1.00
C650   C     0.81206   0.85438   0.35614   0.00000  Uiso   1.00
C651   C     0.79935   0.85942   0.39932   0.00000  Uiso   1.00
C652   C     0.86165   0.80351   0.10191   0.00000  Uiso   1.00
C653   C     0.74917   0.88054   0.46140   0.00000  Uiso   1.00
C654   C     0.82847   0.86738   0.10056   0.00000  Uiso   1.00
C655   C     0.82168   0.84093   0.41924   0.00000  Uiso   1.00
C656   C     0.85012   0.90364   0.08328   0.00000  Uiso   1.00
C657   C     0.83894   0.94316   0.10112   0.00000  Uiso   1.00
C658   C     0.80616   0.94684   0.13633   0.00000  Uiso   1.00
C659   C     0.78420   0.91098   0.15361   0.00000  Uiso   1.00
C660   C     0.79513   0.87139   0.13582   0.00000  Uiso   1.00
C661   C     0.85236   0.76033   0.42250   0.00000  Uiso   1.00
C662   C     0.81347   0.74108   0.41499   0.00000  Uiso   1.00
C663   C     0.81410   0.71611   0.37959   0.00000  Uiso   1.00
C664   C     0.85344   0.71002   0.35164   0.00000  Uiso   1.00
C665   C     0.89216   0.72961   0.35856   0.00000  Uiso   1.00
C666   C     0.80592   0.83820   0.45987   0.00000  Uiso   1.00
C667   C     0.89173   0.75455   0.39389   0.00000  Uiso   1.00
C668   C     0.77042   0.86032   0.48114   0.00000  Uiso   1.00
C669   C     0.82558   0.81580   0.48025   0.00000  Uiso   1.00
C670   C     0.81641   0.82496   0.02184   0.00000  Uiso   1.00
C671   C     0.77921   0.84483   0.04191   0.00000  Uiso   1.00
C672   C     0.75638   0.86185   0.02187   0.00000  Uiso   1.00
H673   H     0.98467   0.80728   0.28518   0.00000  Uiso   1.00
H674   H     0.85586   0.97098   0.08774   0.00000  Uiso   1.00
H675   H     0.79771   0.97747   0.15019   0.00000  Uiso   1.00
H676   H     0.75868   0.91384   0.18079   0.00000  Uiso   1.00
H677   H     0.77739   0.84391   0.14930   0.00000  Uiso   1.00
H678   H     0.90045   0.75390   0.09782   0.00000  Uiso   1.00
H679   H     0.89291   0.74068   0.46879   0.00000  Uiso   1.00
H680   H     0.85186   0.82948   0.40264   0.00000  Uiso   1.00
H681   H     0.76574   0.84550   0.07323   0.00000  Uiso   1.00
H682   H     0.78287   0.74472   0.43685   0.00000  Uiso   1.00
H683   H     0.78414   0.70097   0.37407   0.00000  Uiso   1.00
H684   H     0.72149   0.89681   0.47746   0.00000  Uiso   1.00
H685   H     0.85402   0.68990   0.32471   0.00000  Uiso   1.00
H686   H     0.92257   0.72501   0.33676   0.00000  Uiso   1.00
H687   H     0.92204   0.76899   0.39919   0.00000  Uiso   1.00
H688   H     0.74530   0.89406   0.40589   0.00000  Uiso   1.00
H689   H     0.72817   0.87712   0.03843   0.00000  Uiso   1.00
H690   H     0.91031   0.73497   0.02764   0.00000  Uiso   1.00
H691   H     0.68347   0.85977   0.21474   0.00000  Uiso   1.00
H692   H     0.87445   0.66940   0.21597   0.00000  Uiso   1.00
H693   H     0.79046   0.99885   0.28398   0.00000  Uiso   1.00
H694   H     0.87588   0.90127   0.05620   0.00000  Uiso   1.00
O695   O     0.83333   0.83333   0.25000   0.00000  Uiso   1.00
O696   O     0.82360   0.79060   0.16625   0.00000  Uiso   1.00
O697   O     0.79354   0.87313   0.33749   0.00000  Uiso   1.00
O698   O     0.87755   0.84159   0.15877   0.00000  Uiso   1.00
O699   O     0.83865   0.82802   0.33749   0.00000  Uiso   1.00
O700   O     0.84515   0.74768   0.27820   0.00000  Uiso   1.00
O701   O     0.81247   0.92803   0.26767   0.00000  Uiso   1.00
O702   O     0.74119   0.79917   0.23607   0.00000  Uiso   1.00
O703   O     0.93452   0.85845   0.21806   0.00000  Uiso   1.00
O704   O     0.73656   0.85627   0.27820   0.00000  Uiso   1.00
O705   O     0.92106   0.81944   0.26768   0.00000  Uiso   1.00
O706   O     0.80467   0.73570   0.23607   0.00000  Uiso   1.00
O707   O     0.87104   0.92193   0.21806   0.00000  Uiso   1.00
Zn708  Zn    0.85910   0.80756   0.28278   0.00000  Uiso   1.00
Zn709  Zn    0.80125   0.79044   0.22258   0.00000  Uiso   1.00
Zn710  Zn    0.87833   0.86331   0.21188   0.00000  Uiso   1.00
Zn711  Zn    0.79465   0.87202   0.28277   0.00000  Uiso   1.00
C712   C     0.05248   0.15995   0.75868   0.00000  Uiso   1.00
C713   C     0.18559   0.11675   0.96148   0.00000  Uiso   1.00
C714   C     0.20698   0.09941   0.98290   0.00000  Uiso   1.00
C715   C     0.28104   0.17355   0.74118   0.00000  Uiso   1.00
C716   C     0.20255   0.11256   0.52243   0.00000  Uiso   1.00
C717   C     0.17542   0.14382   0.54236   0.00000  Uiso   1.00
C718   C     0.22392   0.09308   0.54251   0.00000  Uiso   1.00
C719   C     0.21872   0.10404   0.58230   0.00000  Uiso   1.00
C720   C     0.17525   0.15890   0.58195   0.00000  Uiso   1.00
C721   C     0.32705   0.17611   0.73751   0.00000  Uiso   1.00
C722   C     0.00710   0.15757   0.76208   0.00000  Uiso   1.00
C723   C     0.09642   0.21281   0.92066   0.00000  Uiso   1.00
C724   C     0.18066   0.32210   0.73797   0.00000  Uiso   1.00
C725   C     0.15125   0.01201   0.76186   0.00000  Uiso   1.00
C726   C     0.15581   0.05611   0.75887   0.00000  Uiso   1.00
C727   C     0.17677   0.27764   0.74130   0.00000  Uiso   1.00
C728   C     0.18806   0.14521   0.64414   0.00000  Uiso   1.00
C729   C     0.14539   0.18771   0.85614   0.00000  Uiso   1.00
C730   C     0.13268   0.19276   0.89932   0.00000  Uiso   1.00
C731   C     0.19498   0.13685   0.60191   0.00000  Uiso   1.00
C732   C     0.08250   0.21387   0.96140   0.00000  Uiso   1.00
C733   C     0.16181   0.20072   0.60056   0.00000  Uiso   1.00
C734   C     0.15501   0.17426   0.91924   0.00000  Uiso   1.00
C735   C     0.18345   0.23697   0.58328   0.00000  Uiso   1.00
C736   C     0.17228   0.27650   0.60112   0.00000  Uiso   1.00
C737   C     0.13949   0.28017   0.63633   0.00000  Uiso   1.00
C738   C     0.11754   0.24431   0.65361   0.00000  Uiso   1.00
C739   C     0.12847   0.20473   0.63582   0.00000  Uiso   1.00
C740   C     0.18570   0.09367   0.92250   0.00000  Uiso   1.00
C741   C     0.14681   0.07442   0.91499   0.00000  Uiso   1.00
C742   C     0.14743   0.04945   0.87959   0.00000  Uiso   1.00
C743   C     0.18677   0.04335   0.85164   0.00000  Uiso   1.00
C744   C     0.22550   0.06295   0.85856   0.00000  Uiso   1.00
C745   C     0.13925   0.17153   0.95987   0.00000  Uiso   1.00
C746   C     0.22506   0.08789   0.89389   0.00000  Uiso   1.00
C747   C     0.10375   0.19366   0.98114   0.00000  Uiso   1.00
C748   C     0.15891   0.14913   0.98025   0.00000  Uiso   1.00
C749   C     0.14974   0.15830   0.52184   0.00000  Uiso   1.00
C750   C     0.11254   0.17816   0.54191   0.00000  Uiso   1.00
C751   C     0.08972   0.19519   0.52187   0.00000  Uiso   1.00
H752   H     0.31800   0.14061   0.78518   0.00000  Uiso   1.00
H753   H     0.18920   0.30431   0.58774   0.00000  Uiso   1.00
H754   H     0.13104   0.31081   0.65019   0.00000  Uiso   1.00
H755   H     0.09201   0.24717   0.68079   0.00000  Uiso   1.00
H756   H     0.11072   0.17724   0.64930   0.00000  Uiso   1.00
H757   H     0.23378   0.08723   0.59782   0.00000  Uiso   1.00
H758   H     0.22624   0.07401   0.96879   0.00000  Uiso   1.00
H759   H     0.18519   0.16281   0.90264   0.00000  Uiso   1.00
H760   H     0.09908   0.17884   0.57323   0.00000  Uiso   1.00
H761   H     0.11620   0.07805   0.93685   0.00000  Uiso   1.00
H762   H     0.11747   0.03430   0.87407   0.00000  Uiso   1.00
H763   H     0.05483   0.23014   0.97746   0.00000  Uiso   1.00
H764   H     0.18736   0.02324   0.82471   0.00000  Uiso   1.00
H765   H     0.25590   0.05835   0.83676   0.00000  Uiso   1.00
H766   H     0.25537   0.10233   0.89919   0.00000  Uiso   1.00
H767   H     0.07864   0.22739   0.90589   0.00000  Uiso   1.00
H768   H     0.06150   0.21045   0.53843   0.00000  Uiso   1.00
H769   H     0.24364   0.06830   0.52764   0.00000  Uiso   1.00
H770   H     0.01681   0.19311   0.71474   0.00000  Uiso   1.00
H771   H     0.20778   0.00273   0.71597   0.00000  Uiso   1.00
H772   H     0.12379   0.33218   0.78398   0.00000  Uiso   1.00
H773   H     0.20921   0.23460   0.55620   0.00000  Uiso   1.00
O774   O     0.16667   0.16667   0.75000   0.00000  Uiso   1.00
O775   O     0.15693   0.12393   0.66625   0.00000  Uiso   1.00
O776   O     0.12687   0.20646   0.83749   0.00000  Uiso   1.00
O777   O     0.21088   0.17493   0.65877   0.00000  Uiso   1.00
O778   O     0.17198   0.16135   0.83749   0.00000  Uiso   1.00
O779   O     0.17849   0.08101   0.77820   0.00000  Uiso   1.00
O780   O     0.14581   0.26136   0.76767   0.00000  Uiso   1.00
O781   O     0.07452   0.13251   0.73607   0.00000  Uiso   1.00
O782   O     0.26785   0.19179   0.71806   0.00000  Uiso   1.00
O783   O     0.06990   0.18960   0.77820   0.00000  Uiso   1.00
O784   O     0.25440   0.15277   0.76768   0.00000  Uiso   1.00
O785   O     0.13800   0.06903   0.73607   0.00000  Uiso   1.00
O786   O     0.20437   0.25527   0.71806   0.00000  Uiso   1.00
Zn787  Zn    0.19244   0.14090   0.78278   0.00000  Uiso   1.00
Zn788  Zn    0.13459   0.12378   0.72258   0.00000  Uiso   1.00
Zn789  Zn    0.21166   0.19664   0.71188   0.00000  Uiso   1.00
Zn790  Zn    0.12798   0.20535   0.78277   0.00000  Uiso   1.00
C791   C     0.38581   0.15995   0.75868   0.00000  Uiso   1.00
C792   C     0.51892   0.11675   0.96148   0.00000  Uiso   1.00
C793   C     0.54032   0.09941   0.98290   0.00000  Uiso   1.00
C794   C     0.61437   0.17355   0.74118   0.00000  Uiso   1.00
C795   C     0.53589   0.11256   0.52243   0.00000  Uiso   1.00
C796   C     0.50876   0.14382   0.54236   0.00000  Uiso   1.00
C797   C     0.55725   0.09308   0.54251   0.00000  Uiso   1.00
C798   C     0.55205   0.10404   0.58230   0.00000  Uiso   1.00
C799   C     0.50858   0.15890   0.58195   0.00000  Uiso   1.00
C800   C     0.66039   0.17611   0.73751   0.00000  Uiso   1.00
C801   C     0.34043   0.15757   0.76208   0.00000  Uiso   1.00
C802   C     0.42975   0.21281   0.92066   0.00000  Uiso   1.00
C803   C     0.51400   0.32210   0.73797   0.00000  Uiso   1.00
C804   C     0.48459   0.01201   0.76186   0.00000  Uiso   1.00
C805   C     0.48915   0.05611   0.75887   0.00000  Uiso   1.00
C806   C     0.51010   0.27764   0.74130   0.00000  Uiso   1.00
C807   C     0.52139   0.14521   0.64414   0.00000  Uiso   1.00
C808   C     0.47872   0.18771   0.85614   0.00000  Uiso   1.00
C809   C     0.46602   0.19276   0.89932   0.00000  Uiso   1.00
C810   C     0.52832   0.13685   0.60191   0.00000  Uiso   1.00
C811   C     0.41584   0.21387   0.96140   0.00000  Uiso   1.00
C812   C     0.49514   0.20072   0.60056   0.00000  Uiso   1.00
C813   C     0.48834   0.17426   0.91924   0.00000  Uiso   1.00
C814   C     0.51678   0.23697   0.58328   0.00000  Uiso   1.00
C815   C     0.50561   0.27650   0.60112   0.00000  Uiso   1.00
C816   C     0.47282   0.28017   0.63633   0.00000  Uiso   1.00
C817   C     0.45087   0.24431   0.65361   0.00000  Uiso   1.00
C818   C     0.46180   0.20473   0.63582   0.00000  Uiso   1.00
C819   C     0.51903   0.09367   0.92250   0.00000  Uiso   1.00
C820   C     0.48014   0.07442   0.91499   0.00000  Uiso   1.00
C821   C     0.48076   0.04945   0.87959   0.00000  Uiso   1.00
C822   C     0.52011   0.04335   0.85164   0.00000  Uiso   1.00
C823   C     0.55883   0.06295   0.85856   0.00000  Uiso   1.00
C824   C     0.47258   0.17153   0.95987   0.00000  Uiso   1.00
C825   C     0.55840   0.08789   0.89389   0.00000  Uiso   1.00
C826   C     0.43709   0.19366   0.98114   0.00000  Uiso   1.00
C827   C     0.49225   0.14913   0.98025   0.00000  Uiso   1.00
C828   C     0.48308   0.15830   0.52184   0.00000  Uiso   1.00
C829   C     0.44587   0.17816   0.54191   0.00000  Uiso   1.00
C830   C     0.42305   0.19519   0.52187   0.00000  Uiso   1.00
H831   H     0.65133   0.14061   0.78518   0.00000  Uiso   1.00
H832   H     0.52253   0.30431   0.58774   0.00000  Uiso   1.00
H833   H     0.46437   0.31081   0.65019   0.00000  Uiso   1.00
H834   H     0.42535   0.24717   0.68079   0.00000  Uiso   1.00
H835   H     0.44406   0.17724   0.64930   0.00000  Uiso   1.00
H836   H     0.56712   0.08723   0.59782   0.00000  Uiso   1.00
H837   H     0.55958   0.07401   0.96879   0.00000  Uiso   1.00
H838   H     0.51853   0.16281   0.90264   0.00000  Uiso   1.00
H839   H     0.43241   0.17884   0.57323   0.00000  Uiso   1.00
H840   H     0.44954   0.07805   0.93685   0.00000  Uiso   1.00
H841   H     0.45081   0.03430   0.87407   0.00000  Uiso   1.00
H842   H     0.38816   0.23014   0.97746   0.00000  Uiso   1.00
H843   H     0.52069   0.02324   0.82471   0.00000  Uiso   1.00
H844   H     0.58923   0.05835   0.83676   0.00000  Uiso   1.00
H845   H     0.58871   0.10233   0.89919   0.00000  Uiso   1.00
H846   H     0.41197   0.22739   0.90589   0.00000  Uiso   1.00
H847   H     0.39484   0.21045   0.53843   0.00000  Uiso   1.00
H848   H     0.57697   0.06830   0.52764   0.00000  Uiso   1.00
H849   H     0.35014   0.19311   0.71474   0.00000  Uiso   1.00
H850   H     0.54112   0.00273   0.71597   0.00000  Uiso   1.00
H851   H     0.45712   0.33218   0.78398   0.00000  Uiso   1.00
H852   H     0.54255   0.23460   0.55620   0.00000  Uiso   1.00
O853   O     0.50000   0.16667   0.75000   0.00000  Uiso   1.00
O854   O     0.49027   0.12393   0.66625   0.00000  Uiso   1.00
O855   O     0.46020   0.20646   0.83749   0.00000  Uiso   1.00
O856   O     0.54421   0.17493   0.65877   0.00000  Uiso   1.00
O857   O     0.50532   0.16135   0.83749   0.00000  Uiso   1.00
O858   O     0.51182   0.08101   0.77820   0.00000  Uiso   1.00
O859   O     0.47914   0.26136   0.76767   0.00000  Uiso   1.00
O860   O     0.40785   0.13251   0.73607   0.00000  Uiso   1.00
O861   O     0.60119   0.19179   0.71806   0.00000  Uiso   1.00
O862   O     0.40323   0.18960   0.77820   0.00000  Uiso   1.00
O863   O     0.58773   0.15277   0.76768   0.00000  Uiso   1.00
O864   O     0.47133   0.06903   0.73607   0.00000  Uiso   1.00
O865   O     0.53771   0.25527   0.71806   0.00000  Uiso   1.00
Zn866  Zn    0.52577   0.14090   0.78278   0.00000  Uiso   1.00
Zn867  Zn    0.46792   0.12378   0.72258   0.00000  Uiso   1.00
Zn868  Zn    0.54500   0.19664   0.71188   0.00000  Uiso   1.00
Zn869  Zn    0.46131   0.20535   0.78277   0.00000  Uiso   1.00
C870   C     0.71915   0.15995   0.75868   0.00000  Uiso   1.00
C871   C     0.85226   0.11675   0.96148   0.00000  Uiso   1.00
C872   C     0.87365   0.09941   0.98290   0.00000  Uiso   1.00
C873   C     0.94770   0.17355   0.74118   0.00000  Uiso   1.00
C874   C     0.86922   0.11256   0.52243   0.00000  Uiso   1.00
C875   C     0.84209   0.14382   0.54236   0.00000  Uiso   1.00
C876   C     0.89059   0.09308   0.54251   0.00000  Uiso   1.00
C877   C     0.88539   0.10404   0.58230   0.00000  Uiso   1.00
C878   C     0.84191   0.15890   0.58195   0.00000  Uiso   1.00
C879   C     0.99372   0.17611   0.73751   0.00000  Uiso   1.00
C880   C     0.67376   0.15757   0.76208   0.00000  Uiso   1.00
C881   C     0.76309   0.21281   0.92066   0.00000  Uiso   1.00
C882   C     0.84733   0.32210   0.73797   0.00000  Uiso   1.00
C883   C     0.81792   0.01201   0.76186   0.00000  Uiso   1.00
C884   C     0.82248   0.05611   0.75887   0.00000  Uiso   1.00
C885   C     0.84344   0.27764   0.74130   0.00000  Uiso   1.00
C886   C     0.85473   0.14521   0.64414   0.00000  Uiso   1.00
C887   C     0.81206   0.18771   0.85614   0.00000  Uiso   1.00
C888   C     0.79935   0.19276   0.89932   0.00000  Uiso   1.00
C889   C     0.86165   0.13685   0.60191   0.00000  Uiso   1.00
C890   C     0.74917   0.21387   0.96140   0.00000  Uiso   1.00
C891   C     0.82847   0.20072   0.60056   0.00000  Uiso   1.00
C892   C     0.82168   0.17426   0.91924   0.00000  Uiso   1.00
C893   C     0.85012   0.23697   0.58328   0.00000  Uiso   1.00
C894   C     0.83894   0.27650   0.60112   0.00000  Uiso   1.00
C895   C     0.80616   0.28017   0.63633   0.00000  Uiso   1.00
C896   C     0.78420   0.24431   0.65361   0.00000  Uiso   1.00
C897   C     0.79513   0.20473   0.63582   0.00000  Uiso   1.00
C898   C     0.85236   0.09367   0.92250   0.00000  Uiso   1.00
C899   C     0.81347   0.07442   0.91499   0.00000  Uiso   1.00
C900   C     0.81410   0.04945   0.87959   0.00000  Uiso   1.00
C901   C     0.85344   0.04335   0.85164   0.00000  Uiso   1.00
C902   C     0.89216   0.06295   0.85856   0.00000  Uiso   1.00
C903   C     0.80592   0.17153   0.95987   0.00000  Uiso   1.00
C904   C     0.89173   0.08789   0.89389   0.00000  Uiso   1.00
C905   C     0.77042   0.19366   0.98114   0.00000  Uiso   1.00
C906   C     0.82558   0.14913   0.98025   0.00000  Uiso   1.00
C907   C     0.81641   0.15830   0.52184   0.00000  Uiso   1.00
C908   C     0.77921   0.17816   0.54191   0.00000  Uiso   1.00
C909   C     0.75638   0.19519   0.52187   0.00000  Uiso   1.00
H910   H     0.98467   0.14061   0.78518   0.00000  Uiso   1.00
H911   H     0.85586   0.30431   0.58774   0.00000  Uiso   1.00
H912   H     0.79771   0.31081   0.65019   0.00000  Uiso   1.00
H913   H     0.75868   0.24717   0.68079   0.00000  Uiso   1.00
H914   H     0.77739   0.17724   0.64930   0.00000  Uiso   1.00
H915   H     0.90045   0.08723   0.59782   0.00000  Uiso   1.00
H916   H     0.89291   0.07401   0.96879   0.00000  Uiso   1.00
H917   H     0.85186   0.16281   0.90264   0.00000  Uiso   1.00
H918   H     0.76574   0.17884   0.57323   0.00000  Uiso   1.00
H919   H     0.78287   0.07805   0.93685   0.00000  Uiso   1.00
H920   H     0.78414   0.03430   0.87407   0.00000  Uiso   1.00
H921   H     0.72149   0.23014   0.97746   0.00000  Uiso   1.00
H922   H     0.85402   0.02324   0.82471   0.00000  Uiso   1.00
H923   H     0.92257   0.05835   0.83676   0.00000  Uiso   1.00
H924   H     0.92204   0.10233   0.89919   0.00000  Uiso   1.00
H925   H     0.74530   0.22739   0.90589   0.00000  Uiso   1.00
H926   H     0.72817   0.21045   0.53843   0.00000  Uiso   1.00
H927   H     0.91031   0.06830   0.52764   0.00000  Uiso   1.00
H928   H     0.68347   0.19311   0.71474   0.00000  Uiso   1.00
H929   H     0.87445   0.00273   0.71597   0.00000  Uiso   1.00
H930   H     0.79046   0.33218   0.78398   0.00000  Uiso   1.00
H931   H     0.87588   0.23460   0.55620   0.00000  Uiso   1.00
O932   O     0.83333   0.16667   0.75000   0.00000  Uiso   1.00
O933   O     0.82360   0.12393   0.66625   0.00000  Uiso   1.00
O934   O     0.79354   0.20646   0.83749   0.00000  Uiso   1.00
O935   O     0.87755   0.17493   0.65877   0.00000  Uiso   1.00
O936   O     0.83865   0.16135   0.83749   0.00000  Uiso   1.00
O937   O     0.84515   0.08101   0.77820   0.00000  Uiso   1.00
O938   O     0.81247   0.26136   0.76767   0.00000  Uiso   1.00
O939   O     0.74119   0.13251   0.73607   0.00000  Uiso   1.00
O940   O     0.93452   0.19179   0.71806   0.00000  Uiso   1.00
O941   O     0.73656   0.18960   0.77820   0.00000  Uiso   1.00
O942   O     0.92106   0.15277   0.76768   0.00000  Uiso   1.00
O943   O     0.80467   0.06903   0.73607   0.00000  Uiso   1.00
O944   O     0.87104   0.25527   0.71806   0.00000  Uiso   1.00
Zn945  Zn    0.85910   0.14090   0.78278   0.00000  Uiso   1.00
Zn946  Zn    0.80125   0.12378   0.72258   0.00000  Uiso   1.00
Zn947  Zn    0.87833   0.19664   0.71188   0.00000  Uiso   1.00
Zn948  Zn    0.79465   0.20535   0.78277   0.00000  Uiso   1.00
C949   C     0.05248   0.49328   0.75868   0.00000  Uiso   1.00
C950   C     0.18559   0.45008   0.96148   0.00000  Uiso   1.00
C951   C     0.20698   0.43275   0.98290   0.00000  Uiso   1.00
C952   C     0.28104   0.50688   0.74118   0.00000  Uiso   1.00
C953   C     0.20255   0.44589   0.52243   0.00000  Uiso   1.00
C954   C     0.17542   0.47716   0.54236   0.00000  Uiso   1.00
C955   C     0.22392   0.42641   0.54251   0.00000  Uiso   1.00
C956   C     0.21872   0.43737   0.58230   0.00000  Uiso   1.00
C957   C     0.17525   0.49224   0.58195   0.00000  Uiso   1.00
C958   C     0.32705   0.50944   0.73751   0.00000  Uiso   1.00
C959   C     0.00710   0.49090   0.76208   0.00000  Uiso   1.00
C960   C     0.09642   0.54614   0.92066   0.00000  Uiso   1.00
C961   C     0.18066   0.65544   0.73797   0.00000  Uiso   1.00
C962   C     0.15125   0.34534   0.76186   0.00000  Uiso   1.00
C963   C     0.15581   0.38944   0.75887   0.00000  Uiso   1.00
C964   C     0.17677   0.61098   0.74130   0.00000  Uiso   1.00
C965   C     0.18806   0.47854   0.64414   0.00000  Uiso   1.00
C966   C     0.14539   0.52105   0.85614   0.00000  Uiso   1.00
C967   C     0.13268   0.52609   0.89932   0.00000  Uiso   1.00
C968   C     0.19498   0.47018   0.60191   0.00000  Uiso   1.00
C969   C     0.08250   0.54721   0.96140   0.00000  Uiso   1.00
C970   C     0.16181   0.53405   0.60056   0.00000  Uiso   1.00
C971   C     0.15501   0.50759   0.91924   0.00000  Uiso   1.00
C972   C     0.18345   0.57031   0.58328   0.00000  Uiso   1.00
C973   C     0.17228   0.60983   0.60112   0.00000  Uiso   1.00
C974   C     0.13949   0.61351   0.63633   0.00000  Uiso   1.00
C975   C     0.11754   0.57764   0.65361   0.00000  Uiso   1.00
C976   C     0.12847   0.53806   0.63582   0.00000  Uiso   1.00
C977   C     0.18570   0.42700   0.92250   0.00000  Uiso   1.00
C978   C     0.14681   0.40775   0.91499   0.00000  Uiso   1.00
C979   C     0.14743   0.38278   0.87959   0.00000  Uiso   1.00
C980   C     0.18677   0.37668   0.85164   0.00000  Uiso   1.00
C981   C     0.22550   0.39628   0.85856   0.00000  Uiso   1.00
C982   C     0.13925   0.50486   0.95987   0.00000  Uiso   1.00
C983   C     0.22506   0.42122   0.89389   0.00000  Uiso   1.00
C984   C     0.10375   0.52699   0.98114   0.00000  Uiso   1.00
C985   C     0.15891   0.48247   0.98025   0.00000  Uiso   1.00
C986   C     0.14974   0.49163   0.52184   0.00000  Uiso   1.00
C987   C     0.11254   0.51149   0.54191   0.00000  Uiso   1.00
C988   C     0.08972   0.52852   0.52187   0.00000  Uiso   1.00
H989   H     0.31800   0.47395   0.78518   0.00000  Uiso   1.00
H990   H     0.18920   0.63764   0.58774   0.00000  Uiso   1.00
H991   H     0.13104   0.64414   0.65019   0.00000  Uiso   1.00
H992   H     0.09201   0.58051   0.68079   0.00000  Uiso   1.00
H993   H     0.11072   0.51058   0.64930   0.00000  Uiso   1.00
H994   H     0.23378   0.42056   0.59782   0.00000  Uiso   1.00
H995   H     0.22624   0.40734   0.96879   0.00000  Uiso   1.00
H996   H     0.18519   0.49614   0.90264   0.00000  Uiso   1.00
H997   H     0.09908   0.51217   0.57323   0.00000  Uiso   1.00
H998   H     0.11620   0.41138   0.93685   0.00000  Uiso   1.00
H999   H     0.11747   0.36764   0.87407   0.00000  Uiso   1.00
H1000  H     0.05483   0.56348   0.97746   0.00000  Uiso   1.00
H1001  H     0.18736   0.35657   0.82471   0.00000  Uiso   1.00
H1002  H     0.25590   0.39168   0.83676   0.00000  Uiso   1.00
H1003  H     0.25537   0.43566   0.89919   0.00000  Uiso   1.00
H1004  H     0.07864   0.56072   0.90589   0.00000  Uiso   1.00
H1005  H     0.06150   0.54378   0.53843   0.00000  Uiso   1.00
H1006  H     0.24364   0.40163   0.52764   0.00000  Uiso   1.00
H1007  H     0.01681   0.52644   0.71474   0.00000  Uiso   1.00
H1008  H     0.20778   0.33606   0.71597   0.00000  Uiso   1.00
H1009  H     0.12379   0.66551   0.78398   0.00000  Uiso   1.00
H1010  H     0.20921   0.56793   0.55620   0.00000  Uiso   1.00
O1011  O     0.16667   0.50000   0.75000   0.00000  Uiso   1.00
O1012  O     0.15693   0.45726   0.66625   0.00000  Uiso   1.00
O1013  O     0.12687   0.53979   0.83749   0.00000  Uiso   1.00
O1014  O     0.21088   0.50826   0.65877   0.00000  Uiso   1.00
O1015  O     0.17198   0.49468   0.83749   0.00000  Uiso   1.00
O1016  O     0.17849   0.41434   0.77820   0.00000  Uiso   1.00
O1017  O     0.14581   0.59469   0.76767   0.00000  Uiso   1.00
O1018  O     0.07452   0.46584   0.73607   0.00000  Uiso   1.00
O1019  O     0.26785   0.52512   0.71806   0.00000  Uiso   1.00
O1020  O     0.06990   0.52293   0.77820   0.00000  Uiso   1.00
O1021  O     0.25440   0.48610   0.76768   0.00000  Uiso   1.00
O1022  O     0.13800   0.40236   0.73607   0.00000  Uiso   1.00
O1023  O     0.20437   0.58860   0.71806   0.00000  Uiso   1.00
Zn1024 Zn    0.19244   0.47423   0.78278   0.00000  Uiso   1.00
Zn1025 Zn    0.13459   0.45711   0.72258   0.00000  Uiso   1.00
Zn1026 Zn    0.21166   0.52997   0.71188   0.00000  Uiso   1.00
Zn1027 Zn    0.12798   0.53868   0.78277   0.00000  Uiso   1.00
C1028  C     0.38581   0.49328   0.75868   0.00000  Uiso   1.00
C1029  C     0.51892   0.45008   0.96148   0.00000  Uiso   1.00
C1030  C     0.54032   0.43275   0.98290   0.00000  Uiso   1.00
C1031  C     0.61437   0.50688   0.74118   0.00000  Uiso   1.00
C1032  C     0.53589   0.44589   0.52243   0.00000  Uiso   1.00
C1033  C     0.50876   0.47716   0.54236   0.00000  Uiso   1.00
C1034  C     0.55725   0.42641   0.54251   0.00000  Uiso   1.00
C1035  C     0.55205   0.43737   0.58230   0.00000  Uiso   1.00
C1036  C     0.50858   0.49224   0.58195   0.00000  Uiso   1.00
C1037  C     0.66039   0.50944   0.73751   0.00000  Uiso   1.00
C1038  C     0.34043   0.49090   0.76208   0.00000  Uiso   1.00
C1039  C     0.42975   0.54614   0.92066   0.00000  Uiso   1.00
C1040  C     0.51400   0.65544   0.73797   0.00000  Uiso   1.00
C1041  C     0.48459   0.34534   0.76186   0.00000  Uiso   1.00
C1042  C     0.48915   0.38944   0.75887   0.00000  Uiso   1.00
C1043  C     0.51010   0.61098   0.74130   0.00000  Uiso   1.00
C1044  C     0.52139   0.47854   0.64414   0.00000  Uiso   1.00
C1045  C     0.47872   0.52105   0.85614   0.00000  Uiso   1.00
C1046  C     0.46602   0.52609   0.89932   0.00000  Uiso   1.00
C1047  C     0.52832   0.47018   0.60191   0.00000  Uiso   1.00
C1048  C     0.41584   0.54721   0.96140   0.00000  Uiso   1.00
C1049  C     0.49514   0.53405   0.60056   0.00000  Uiso   1.00
C1050  C     0.48834   0.50759   0.91924   0.00000  Uiso   1.00
C1051  C     0.51678   0.57031   0.58328   0.00000  Uiso   1.00
C1052  C     0.50561   0.60983   0.60112   0.00000  Uiso   1.00
C1053  C     0.47282   0.61351   0.63633   0.00000  Uiso   1.00
C1054  C     0.45087   0.57764   0.65361   0.00000  Uiso   1.00
C1055  C     0.46180   0.53806   0.63582   0.00000  Uiso   1.00
C1056  C     0.51903   0.42700   0.92250   0.00000  Uiso   1.00
C1057  C     0.48014   0.40775   0.91499   0.00000  Uiso   1.00
C1058  C     0.48076   0.38278   0.87959   0.00000  Uiso   1.00
C1059  C     0.52011   0.37668   0.85164   0.00000  Uiso   1.00
C1060  C     0.55883   0.39628   0.85856   0.00000  Uiso   1.00
C1061  C     0.47258   0.50486   0.95987   0.00000  Uiso   1.00
C1062  C     0.55840   0.42122   0.89389   0.00000  Uiso   1.00
C1063  C     0.43709   0.52699   0.98114   0.00000  Uiso   1.00
C1064  C     0.49225   0.48247   0.98025   0.00000  Uiso   1.00
C1065  C     0.48308   0.49163   0.52184   0.00000  Uiso   1.00
C1066  C     0.44587   0.51149   0.54191   0.00000  Uiso   1.00
C1067  C     0.42305   0.52852   0.52187   0.00000  Uiso   1.00
H1068  H     0.65133   0.47395   0.78518   0.00000  Uiso   1.00
H1069  H     0.52253   0.63764   0.58774   0.00000  Uiso   1.00
H1070  H     0.46437   0.64414   0.65019   0.00000  Uiso   1.00
H1071  H     0.42535   0.58051   0.68079   0.00000  Uiso   1.00
H1072  H     0.44406   0.51058   0.64930   0.00000  Uiso   1.00
H1073  H     0.56712   0.42056   0.59782   0.00000  Uiso   1.00
H1074  H     0.55958   0.40734   0.96879   0.00000  Uiso   1.00
H1075  H     0.51853   0.49614   0.90264   0.00000  Uiso   1.00
H1076  H     0.43241   0.51217   0.57323   0.00000  Uiso   1.00
H1077  H     0.44954   0.41138   0.93685   0.00000  Uiso   1.00
H1078  H     0.45081   0.36764   0.87407   0.00000  Uiso   1.00
H1079  H     0.38816   0.56348   0.97746   0.00000  Uiso   1.00
H1080  H     0.52069   0.35657   0.82471   0.00000  Uiso   1.00
H1081  H     0.58923   0.39168   0.83676   0.00000  Uiso   1.00
H1082  H     0.58871   0.43566   0.89919   0.00000  Uiso   1.00
H1083  H     0.41197   0.56072   0.90589   0.00000  Uiso   1.00
H1084  H     0.39484   0.54378   0.53843   0.00000  Uiso   1.00
H1085  H     0.57697   0.40163   0.52764   0.00000  Uiso   1.00
H1086  H     0.35014   0.52644   0.71474   0.00000  Uiso   1.00
H1087  H     0.54112   0.33606   0.71597   0.00000  Uiso   1.00
H1088  H     0.45712   0.66551   0.78398   0.00000  Uiso   1.00
H1089  H     0.54255   0.56793   0.55620   0.00000  Uiso   1.00
O1090  O     0.50000   0.50000   0.75000   0.00000  Uiso   1.00
O1091  O     0.49027   0.45726   0.66625   0.00000  Uiso   1.00
O1092  O     0.46020   0.53979   0.83749   0.00000  Uiso   1.00
O1093  O     0.54421   0.50826   0.65877   0.00000  Uiso   1.00
O1094  O     0.50532   0.49468   0.83749   0.00000  Uiso   1.00
O1095  O     0.51182   0.41434   0.77820   0.00000  Uiso   1.00
O1096  O     0.47914   0.59469   0.76767   0.00000  Uiso   1.00
O1097  O     0.40785   0.46584   0.73607   0.00000  Uiso   1.00
O1098  O     0.60119   0.52512   0.71806   0.00000  Uiso   1.00
O1099  O     0.40323   0.52293   0.77820   0.00000  Uiso   1.00
O1100  O     0.58773   0.48610   0.76768   0.00000  Uiso   1.00
O1101  O     0.47133   0.40236   0.73607   0.00000  Uiso   1.00
O1102  O     0.53771   0.58860   0.71806   0.00000  Uiso   1.00
Zn1103 Zn    0.52577   0.47423   0.78278   0.00000  Uiso   1.00
Zn1104 Zn    0.46792   0.45711   0.72258   0.00000  Uiso   1.00
Zn1105 Zn    0.54500   0.52997   0.71188   0.00000  Uiso   1.00
Zn1106 Zn    0.46131   0.53868   0.78277   0.00000  Uiso   1.00
C1107  C     0.71915   0.49328   0.75868   0.00000  Uiso   1.00
C1108  C     0.85226   0.45008   0.96148   0.00000  Uiso   1.00
C1109  C     0.87365   0.43275   0.98290   0.00000  Uiso   1.00
C1110  C     0.94770   0.50688   0.74118   0.00000  Uiso   1.00
C1111  C     0.86922   0.44589   0.52243   0.00000  Uiso   1.00
C1112  C     0.84209   0.47716   0.54236   0.00000  Uiso   1.00
C1113  C     0.89059   0.42641   0.54251   0.00000  Uiso   1.00
C1114  C     0.88539   0.43737   0.58230   0.00000  Uiso   1.00
C1115  C     0.84191   0.49224   0.58195   0.00000  Uiso   1.00
C1116  C     0.99372   0.50944   0.73751   0.00000  Uiso   1.00
C1117  C     0.67376   0.49090   0.76208   0.00000  Uiso   1.00
C1118  C     0.76309   0.54614   0.92066   0.00000  Uiso   1.00
C1119  C     0.84733   0.65544   0.73797   0.00000  Uiso   1.00
C1120  C     0.81792   0.34534   0.76186   0.00000  Uiso   1.00
C1121  C     0.82248   0.38944   0.75887   0.00000  Uiso   1.00
C1122  C     0.84344   0.61098   0.74130   0.00000  Uiso   1.00
C1123  C     0.85473   0.47854   0.64414   0.00000  Uiso   1.00
C1124  C     0.81206   0.52105   0.85614   0.00000  Uiso   1.00
C1125  C     0.79935   0.52609   0.89932   0.00000  Uiso   1.00
C1126  C     0.86165   0.47018   0.60191   0.00000  Uiso   1.00
C1127  C     0.74917   0.54721   0.96140   0.00000  Uiso   1.00
C1128  C     0.82847   0.53405   0.60056   0.00000  Uiso   1.00
C1129  C     0.82168   0.50759   0.91924   0.00000  Uiso   1.00
C1130  C     0.85012   0.57031   0.58328   0.00000  Uiso   1.00
C1131  C     0.83894   0.60983   0.60112   0.00000  Uiso   1.00
C1132  C     0.80616   0.61351   0.63633   0.00000  Uiso   1.00
C1133  C     0.78420   0.57764   0.65361   0.00000  Uiso   1.00
C1134  C     0.79513   0.53806   0.63582   0.00000  Uiso   1.00
C1135  C     0.85236   0.42700   0.92250   0.00000  Uiso   1.00
C1136  C     0.81347   0.40775   0.91499   0.00000  Uiso   1.00
C1137  C     0.81410   0.38278   0.87959   0.00000  Uiso   1.00
C1138  C     0.85344   0.37668   0.85164   0.00000  Uiso   1.00
C1139  C     0.89216   0.39628   0.85856   0.00000  Uiso   1.00
C1140  C     0.80592   0.50486   0.95987   0.00000  Uiso   1.00
C1141  C     0.89173   0.42122   0.89389   0.00000  Uiso   1.00
C1142  C     0.77042   0.52699   0.98114   0.00000  Uiso   1.00
C1143  C     0.82558   0.48247   0.98025   0.00000  Uiso   1.00
C1144  C     0.81641   0.49163   0.52184   0.00000  Uiso   1.00
C1145  C     0.77921   0.51149   0.54191   0.00000  Uiso   1.00
C1146  C     0.75638   0.52852   0.52187   0.00000  Uiso   1.00
H1147  H     0.98467   0.47395   0.78518   0.00000  Uiso   1.00
H1148  H     0.85586   0.63764   0.58774   0.00000  Uiso   1.00
H1149  H     0.79771   0.64414   0.65019   0.00000  Uiso   1.00
H1150  H     0.75868   0.58051   0.68079   0.00000  Uiso   1.00
H1151  H     0.77739   0.51058   0.64930   0.00000  Uiso   1.00
H1152  H     0.90045   0.42056   0.59782   0.00000  Uiso   1.00
H1153  H     0.89291   0.40734   0.96879   0.00000  Uiso   1.00
H1154  H     0.85186   0.49614   0.90264   0.00000  Uiso   1.00
H1155  H     0.76574   0.51217   0.57323   0.00000  Uiso   1.00
H1156  H     0.78287   0.41138   0.93685   0.00000  Uiso   1.00
H1157  H     0.78414   0.36764   0.87407   0.00000  Uiso   1.00
H1158  H     0.72149   0.56348   0.97746   0.00000  Uiso   1.00
H1159  H     0.85402   0.35657   0.82471   0.00000  Uiso   1.00
H1160  H     0.92257   0.39168   0.83676   0.00000  Uiso   1.00
H1161  H     0.92204   0.43566   0.89919   0.00000  Uiso   1.00
H1162  H     0.74530   0.56072   0.90589   0.00000  Uiso   1.00
H1163  H     0.72817   0.54378   0.53843   0.00000  Uiso   1.00
H1164  H     0.91031   0.40163   0.52764   0.00000  Uiso   1.00
H1165  H     0.68347   0.52644   0.71474   0.00000  Uiso   1.00
H1166  H     0.87445   0.33606   0.71597   0.00000  Uiso   1.00
H1167  H     0.79046   0.66551   0.78398   0.00000  Uiso   1.00
H1168  H     0.87588   0.56793   0.55620   0.00000  Uiso   1.00
O1169  O     0.83333   0.50000   0.75000   0.00000  Uiso   1.00
O1170  O     0.82360   0.45726   0.66625   0.00000  Uiso   1.00
O1171  O     0.79354   0.53979   0.83749   0.00000  Uiso   1.00
O1172  O     0.87755   0.50826   0.65877   0.00000  Uiso   1.00
O1173  O     0.83865   0.49468   0.83749   0.00000  Uiso   1.00
O1174  O     0.84515   0.41434   0.77820   0.00000  Uiso   1.00
O1175  O     0.81247   0.59469   0.76767   0.00000  Uiso   1.00
O1176  O     0.74119   0.46584   0.73607   0.00000  Uiso   1.00
O1177  O     0.93452   0.52512   0.71806   0.00000  Uiso   1.00
O1178  O     0.73656   0.52293   0.77820   0.00000  Uiso   1.00
O1179  O     0.92106   0.48610   0.76768   0.00000  Uiso   1.00
O1180  O     0.80467   0.40236   0.73607   0.00000  Uiso   1.00
O1181  O     0.87104   0.58860   0.71806   0.00000  Uiso   1.00
Zn1182 Zn    0.85910   0.47423   0.78278   0.00000  Uiso   1.00
Zn1183 Zn    0.80125   0.45711   0.72258   0.00000  Uiso   1.00
Zn1184 Zn    0.87833   0.52997   0.71188   0.00000  Uiso   1.00
Zn1185 Zn    0.79465   0.53868   0.78277   0.00000  Uiso   1.00
C1186  C     0.05248   0.82661   0.75868   0.00000  Uiso   1.00
C1187  C     0.18559   0.78342   0.96148   0.00000  Uiso   1.00
C1188  C     0.20698   0.76608   0.98290   0.00000  Uiso   1.00
C1189  C     0.28104   0.84022   0.74118   0.00000  Uiso   1.00
C1190  C     0.20255   0.77923   0.52243   0.00000  Uiso   1.00
C1191  C     0.17542   0.81049   0.54236   0.00000  Uiso   1.00
C1192  C     0.22392   0.75974   0.54251   0.00000  Uiso   1.00
C1193  C     0.21872   0.77070   0.58230   0.00000  Uiso   1.00
C1194  C     0.17525   0.82557   0.58195   0.00000  Uiso   1.00
C1195  C     0.32705   0.84278   0.73751   0.00000  Uiso   1.00
C1196  C     0.00710   0.82424   0.76208   0.00000  Uiso   1.00
C1197  C     0.09642   0.87947   0.92066   0.00000  Uiso   1.00
C1198  C     0.18066   0.98877   0.73797   0.00000  Uiso   1.00
C1199  C     0.15125   0.67868   0.76186   0.00000  Uiso   1.00
C1200  C     0.15581   0.72277   0.75887   0.00000  Uiso   1.00
C1201  C     0.17677   0.94431   0.74130   0.00000  Uiso   1.00
C1202  C     0.18806   0.81188   0.64414   0.00000  Uiso   1.00
C1203  C     0.14539   0.85438   0.85614   0.00000  Uiso   1.00
C1204  C     0.13268   0.85942   0.89932   0.00000  Uiso   1.00
C1205  C     0.19498   0.80351   0.60191   0.00000  Uiso   1.00
C1206  C     0.08250   0.88054   0.96140   0.00000  Uiso   1.00
C1207  C     0.16181   0.86738   0.60056   0.00000  Uiso   1.00
C1208  C     0.15501   0.84093   0.91924   0.00000  Uiso   1.00
C1209  C     0.18345   0.90364   0.58328   0.00000  Uiso   1.00
C1210  C     0.17228   0.94316   0.60112   0.00000  Uiso   1.00
C1211  C     0.13949   0.94684   0.63633   0.00000  Uiso   1.00
C1212  C     0.11754   0.91098   0.65361   0.00000  Uiso   1.00
C1213  C     0.12847   0.87139   0.63582   0.00000  Uiso   1.00
C1214  C     0.18570   0.76033   0.92250   0.00000  Uiso   1.00
C1215  C     0.14681   0.74108   0.91499   0.00000  Uiso   1.00
C1216  C     0.14743   0.71611   0.87959   0.00000  Uiso   1.00
C1217  C     0.18677   0.71002   0.85164   0.00000  Uiso   1.00
C1218  C     0.22550   0.72961   0.85856   0.00000  Uiso   1.00
C1219  C     0.13925   0.83820   0.95987   0.00000  Uiso   1.00
C1220  C     0.22506   0.75455   0.89389   0.00000  Uiso   1.00
C1221  C     0.10375   0.86032   0.98114   0.00000  Uiso   1.00
C1222  C     0.15891   0.81580   0.98025   0.00000  Uiso   1.00
C1223  C     0.14974   0.82496   0.52184   0.00000  Uiso   1.00
C1224  C     0.11254   0.84483   0.54191   0.00000  Uiso   1.00
C1225  C     0.08972   0.86185   0.52187   0.00000  Uiso   1.00
H1226  H     0.31800   0.80728   0.78518   0.00000  Uiso   1.00
H1227  H     0.18920   0.97098   0.58774   0.00000  Uiso   1.00
H1228  H     0.13104   0.97747   0.65019   0.00000  Uiso   1.00
H1229  H     0.09201   0.91384   0.68079   0.00000  Uiso   1.00
H1230  H     0.11072   0.84391   0.64930   0.00000  Uiso   1.00
H1231  H     0.23378   0.75390   0.59782   0.00000  Uiso   1.00
H1232  H     0.22624   0.74068   0.96879   0.00000  Uiso   1.00
H1233  H     0.18519   0.82948   0.90264   0.00000  Uiso   1.00
H1234  H     0.09908   0.84550   0.57323   0.00000  Uiso   1.00
H1235  H     0.11620   0.74472   0.93685   0.00000  Uiso   1.00
H1236  H     0.11747   0.70097   0.87407   0.00000  Uiso   1.00
H1237  H     0.05483   0.89681   0.97746   0.00000  Uiso   1.00
H1238  H     0.18736   0.68990   0.82471   0.00000  Uiso   1.00
H1239  H     0.25590   0.72501   0.83676   0.00000  Uiso   1.00
H1240  H     0.25537   0.76899   0.89919   0.00000  Uiso   1.00
H1241  H     0.07864   0.89406   0.90589   0.00000  Uiso   1.00
H1242  H     0.06150   0.87712   0.53843   0.00000  Uiso   1.00
H1243  H     0.24364   0.73497   0.52764   0.00000  Uiso   1.00
H1244  H     0.01681   0.85977   0.71474   0.00000  Uiso   1.00
H1245  H     0.20778   0.66940   0.71597   0.00000  Uiso   1.00
H1246  H     0.12379   0.99885   0.78398   0.00000  Uiso   1.00
H1247  H     0.20921   0.90127   0.55620   0.00000  Uiso   1.00
O1248  O     0.16667   0.83333   0.75000   0.00000  Uiso   1.00
O1249  O     0.15693   0.79060   0.66625   0.00000  Uiso   1.00
O1250  O     0.12687   0.87313   0.83749   0.00000  Uiso   1.00
O1251  O     0.21088   0.84159   0.65877   0.00000  Uiso   1.00
O1252  O     0.17198   0.82802   0.83749   0.00000  Uiso   1.00
O1253  O     0.17849   0.74768   0.77820   0.00000  Uiso   1.00
O1254  O     0.14581   0.92803   0.76767   0.00000  Uiso   1.00
O1255  O     0.07452   0.79917   0.73607   0.00000  Uiso   1.00
O1256  O     0.26785   0.85845   0.71806   0.00000  Uiso   1.00
O1257  O     0.06990   0.85627   0.77820   0.00000  Uiso   1.00
O1258  O     0.25440   0.81944   0.76768   0.00000  Uiso   1.00
O1259  O     0.13800   0.73570   0.73607   0.00000  Uiso   1.00
O1260  O     0.20437   0.92193   0.71806   0.00000  Uiso   1.00
Zn1261 Zn    0.19244   0.80756   0.78278   0.00000  Uiso   1.00
Zn1262 Zn    0.13459   0.79044   0.72258   0.00000  Uiso   1.00
Zn1263 Zn    0.21166   0.86331   0.71188   0.00000  Uiso   1.00
Zn1264 Zn    0.12798   0.87202   0.78277   0.00000  Uiso   1.00
C1265  C     0.38581   0.82661   0.75868   0.00000  Uiso   1.00
C1266  C     0.51892   0.78342   0.96148   0.00000  Uiso   1.00
C1267  C     0.54032   0.76608   0.98290   0.00000  Uiso   1.00
C1268  C     0.61437   0.84022   0.74118   0.00000  Uiso   1.00
C1269  C     0.53589   0.77923   0.52243   0.00000  Uiso   1.00
C1270  C     0.50876   0.81049   0.54236   0.00000  Uiso   1.00
C1271  C     0.55725   0.75974   0.54251   0.00000  Uiso   1.00
C1272  C     0.55205   0.77070   0.58230   0.00000  Uiso   1.00
C1273  C     0.50858   0.82557   0.58195   0.00000  Uiso   1.00
C1274  C     0.66039   0.84278   0.73751   0.00000  Uiso   1.00
C1275  C     0.34043   0.82424   0.76208   0.00000  Uiso   1.00
C1276  C     0.42975   0.87947   0.92066   0.00000  Uiso   1.00
C1277  C     0.51400   0.98877   0.73797   0.00000  Uiso   1.00
C1278  C     0.48459   0.67868   0.76186   0.00000  Uiso   1.00
C1279  C     0.48915   0.72277   0.75887   0.00000  Uiso   1.00
C1280  C     0.51010   0.94431   0.74130   0.00000  Uiso   1.00
C1281  C     0.52139   0.81188   0.64414   0.00000  Uiso   1.00
C1282  C     0.47872   0.85438   0.85614   0.00000  Uiso   1.00
C1283  C     0.46602   0.85942   0.89932   0.00000  Uiso   1.00
C1284  C     0.52832   0.80351   0.60191   0.00000  Uiso   1.00
C1285  C     0.41584   0.88054   0.96140   0.00000  Uiso   1.00
C1286  C     0.49514   0.86738   0.60056   0.00000  Uiso   1.00
C1287  C     0.48834   0.84093   0.91924   0.00000  Uiso   1.00
C1288  C     0.51678   0.90364   0.58328   0.00000  Uiso   1.00
C1289  C     0.50561   0.94316   0.60112   0.00000  Uiso   1.00
C1290  C     0.47282   0.94684   0.63633   0.00000  Uiso   1.00
C1291  C     0.45087   0.91098   0.65361   0.00000  Uiso   1.00
C1292  C     0.46180   0.87139   0.63582   0.00000  Uiso   1.00
C1293  C     0.51903   0.76033   0.92250   0.00000  Uiso   1.00
C1294  C     0.48014   0.74108   0.91499   0.00000  Uiso   1.00
C1295  C     0.48076   0.71611   0.87959   0.00000  Uiso   1.00
C1296  C     0.52011   0.71002   0.85164   0.00000  Uiso   1.00
C1297  C     0.55883   0.72961   0.85856   0.00000  Uiso   1.00
C1298  C     0.47258   0.83820   0.95987   0.00000  Uiso   1.00
C1299  C     0.55840   0.75455   0.89389   0.00000  Uiso   1.00
C1300  C     0.43709   0.86032   0.98114   0.00000  Uiso   1.00
C1301  C     0.49225   0.81580   0.98025   0.00000  Uiso   1.00
C1302  C     0.48308   0.82496   0.52184   0.00000  Uiso   1.00
C1303  C     0.44587   0.84483   0.54191   0.00000  Uiso   1.00
C1304  C     0.42305   0.86185   0.52187   0.00000  Uiso   1.00
H1305  H     0.65133   0.80728   0.78518   0.00000  Uiso   1.00
H1306  H     0.52253   0.97098   0.58774   0.00000  Uiso   1.00
H1307  H     0.46437   0.97747   0.65019   0.00000  Uiso   1.00
H1308  H     0.42535   0.91384   0.68079   0.00000  Uiso   1.00
H1309  H     0.44406   0.84391   0.64930   0.00000  Uiso   1.00
H1310  H     0.56712   0.75390   0.59782   0.00000  Uiso   1.00
H1311  H     0.55958   0.74068   0.96879   0.00000  Uiso   1.00
H1312  H     0.51853   0.82948   0.90264   0.00000  Uiso   1.00
H1313  H     0.43241   0.84550   0.57323   0.00000  Uiso   1.00
H1314  H     0.44954   0.74472   0.93685   0.00000  Uiso   1.00
H1315  H     0.45081   0.70097   0.87407   0.00000  Uiso   1.00
H1316  H     0.38816   0.89681   0.97746   0.00000  Uiso   1.00
H1317  H     0.52069   0.68990   0.82471   0.00000  Uiso   1.00
H1318  H     0.58923   0.72501   0.83676   0.00000  Uiso   1.00
H1319  H     0.58871   0.76899   0.89919   0.00000  Uiso   1.00
H1320  H     0.41197   0.89406   0.90589   0.00000  Uiso   1.00
H1321  H     0.39484   0.87712   0.53843   0.00000  Uiso   1.00
H1322  H     0.57697   0.73497   0.52764   0.00000  Uiso   1.00
H1323  H     0.35014   0.85977   0.71474   0.00000  Uiso   1.00
H1324  H     0.54112   0.66940   0.71597   0.00000  Uiso   1.00
H1325  H     0.45712   0.99885   0.78398   0.00000  Uiso   1.00
H1326  H     0.54255   0.90127   0.55620   0.00000  Uiso   1.00
O1327  O     0.50000   0.83333   0.75000   0.00000  Uiso   1.00
O1328  O     0.49027   0.79060   0.66625   0.00000  Uiso   1.00
O1329  O     0.46020   0.87313   0.83749   0.00000  Uiso   1.00
O1330  O     0.54421   0.84159   0.65877   0.00000  Uiso   1.00
O1331  O     0.50532   0.82802   0.83749   0.00000  Uiso   1.00
O1332  O     0.51182   0.74768   0.77820   0.00000  Uiso   1.00
O1333  O     0.47914   0.92803   0.76767   0.00000  Uiso   1.00
O1334  O     0.40785   0.79917   0.73607   0.00000  Uiso   1.00
O1335  O     0.60119   0.85845   0.71806   0.00000  Uiso   1.00
O1336  O     0.40323   0.85627   0.77820   0.00000  Uiso   1.00
O1337  O     0.58773   0.81944   0.76768   0.00000  Uiso   1.00
O1338  O     0.47133   0.73570   0.73607   0.00000  Uiso   1.00
O1339  O     0.53771   0.92193   0.71806   0.00000  Uiso   1.00
Zn1340 Zn    0.52577   0.80756   0.78278   0.00000  Uiso   1.00
Zn1341 Zn    0.46792   0.79044   0.72258   0.00000  Uiso   1.00
Zn1342 Zn    0.54500   0.86331   0.71188   0.00000  Uiso   1.00
Zn1343 Zn    0.46131   0.87202   0.78277   0.00000  Uiso   1.00
C1344  C     0.71915   0.82661   0.75868   0.00000  Uiso   1.00
C1345  C     0.85226   0.78342   0.96148   0.00000  Uiso   1.00
C1346  C     0.87365   0.76608   0.98290   0.00000  Uiso   1.00
C1347  C     0.94770   0.84022   0.74118   0.00000  Uiso   1.00
C1348  C     0.86922   0.77923   0.52243   0.00000  Uiso   1.00
C1349  C     0.84209   0.81049   0.54236   0.00000  Uiso   1.00
C1350  C     0.89059   0.75974   0.54251   0.00000  Uiso   1.00
C1351  C     0.88539   0.77070   0.58230   0.00000  Uiso   1.00
C1352  C     0.84191   0.82557   0.58195   0.00000  Uiso   1.00
C1353  C     0.99372   0.84278   0.73751   0.00000  Uiso   1.00
C1354  C     0.67376   0.82424   0.76208   0.00000  Uiso   1.00
C1355  C     0.76309   0.87947   0.92066   0.00000  Uiso   1.00
C1356  C     0.84733   0.98877   0.73797   0.00000  Uiso   1.00
C1357  C     0.81792   0.67868   0.76186   0.00000  Uiso   1.00
C1358  C     0.82248   0.72277   0.75887   0.00000  Uiso   1.00
C1359  C     0.84344   0.94431   0.74130   0.00000  Uiso   1.00
C1360  C     0.85473   0.81188   0.64414   0.00000  Uiso   1.00
C1361  C     0.81206   0.85438   0.85614   0.00000  Uiso   1.00
C1362  C     0.79935   0.85942   0.89932   0.00000  Uiso   1.00
C1363  C     0.86165   0.80351   0.60191   0.00000  Uiso   1.00
C1364  C     0.74917   0.88054   0.96140   0.00000  Uiso   1.00
C1365  C     0.82847   0.86738   0.60056   0.00000  Uiso   1.00
C1366  C     0.82168   0.84093   0.91924   0.00000  Uiso   1.00
C1367  C     0.85012   0.90364   0.58328   0.00000  Uiso   1.00
C1368  C     0.83894   0.94316   0.60112   0.00000  Uiso   1.00
C1369  C     0.80616   0.94684   0.63633   0.00000  Uiso   1.00
C1370  C     0.78420   0.91098   0.65361   0.00000  Uiso   1.00
C1371  C     0.79513   0.87139   0.63582   0.00000  Uiso   1.00
C1372  C     0.85236   0.76033   0.92250   0.00000  Uiso   1.00
C1373  C     0.81347   0.74108   0.91499   0.00000  Uiso   1.00
C1374  C     0.81410   0.71611   0.87959   0.00000  Uiso   1.00
C1375  C     0.85344   0.71002   0.85164   0.00000  Uiso   1.00
C1376  C     0.89216   0.72961   0.85856   0.00000  Uiso   1.00
C1377  C     0.80592   0.83820   0.95987   0.00000  Uiso   1.00
C1378  C     0.89173   0.75455   0.89389   0.00000  Uiso   1.00
C1379  C     0.77042   0.86032   0.98114   0.00000  Uiso   1.00
C1380  C     0.82558   0.81580   0.98025   0.00000  Uiso   1.00
C1381  C     0.81641   0.82496   0.52184   0.00000  Uiso   1.00
C1382  C     0.77921   0.84483   0.54191   0.00000  Uiso   1.00
C1383  C     0.75638   0.86185   0.52187   0.00000  Uiso   1.00
H1384  H     0.98467   0.80728   0.78518   0.00000  Uiso   1.00
H1385  H     0.85586   0.97098   0.58774   0.00000  Uiso   1.00
H1386  H     0.79771   0.97747   0.65019   0.00000  Uiso   1.00
H1387  H     0.75868   0.91384   0.68079   0.00000  Uiso   1.00
H1388  H     0.77739   0.84391   0.64930   0.00000  Uiso   1.00
H1389  H     0.90045   0.75390   0.59782   0.00000  Uiso   1.00
H1390  H     0.89291   0.74068   0.96879   0.00000  Uiso   1.00
H1391  H     0.85186   0.82948   0.90264   0.00000  Uiso   1.00
H1392  H     0.76574   0.84550   0.57323   0.00000  Uiso   1.00
H1393  H     0.78287   0.74472   0.93685   0.00000  Uiso   1.00
H1394  H     0.78414   0.70097   0.87407   0.00000  Uiso   1.00
H1395  H     0.72149   0.89681   0.97746   0.00000  Uiso   1.00
H1396  H     0.85402   0.68990   0.82471   0.00000  Uiso   1.00
H1397  H     0.92257   0.72501   0.83676   0.00000  Uiso   1.00
H1398  H     0.92204   0.76899   0.89919   0.00000  Uiso   1.00
H1399  H     0.74530   0.89406   0.90589   0.00000  Uiso   1.00
H1400  H     0.72817   0.87712   0.53843   0.00000  Uiso   1.00
H1401  H     0.91031   0.73497   0.52764   0.00000  Uiso   1.00
H1402  H     0.68347   0.85977   0.71474   0.00000  Uiso   1.00
H1403  H     0.87445   0.66940   0.71597   0.00000  Uiso   1.00
H1404  H     0.79046   0.99885   0.78398   0.00000  Uiso   1.00
H1405  H     0.87588   0.90127   0.55620   0.00000  Uiso   1.00
O1406  O     0.83333   0.83333   0.75000   0.00000  Uiso   1.00
O1407  O     0.82360   0.79060   0.66625   0.00000  Uiso   1.00
O1408  O     0.79354   0.87313   0.83749   0.00000  Uiso   1.00
O1409  O     0.87755   0.84159   0.65877   0.00000  Uiso   1.00
O1410  O     0.83865   0.82802   0.83749   0.00000  Uiso   1.00
O1411  O     0.84515   0.74768   0.77820   0.00000  Uiso   1.00
O1412  O     0.81247   0.92803   0.76767   0.00000  Uiso   1.00
O1413  O     0.74119   0.79917   0.73607   0.00000  Uiso   1.00
O1414  O     0.93452   0.85845   0.71806   0.00000  Uiso   1.00
O1415  O     0.73656   0.85627   0.77820   0.00000  Uiso   1.00
O1416  O     0.92106   0.81944   0.76768   0.00000  Uiso   1.00
O1417  O     0.80467   0.73570   0.73607   0.00000  Uiso   1.00
O1418  O     0.87104   0.92193   0.71806   0.00000  Uiso   1.00
Zn1419 Zn    0.85910   0.80756   0.78278   0.00000  Uiso   1.00
Zn1420 Zn    0.80125   0.79044   0.72258   0.00000  Uiso   1.00
Zn1421 Zn    0.87833   0.86331   0.71188   0.00000  Uiso   1.00
Zn1422 Zn    0.79465   0.87202   0.78277   0.00000  Uiso   1.00
loop_
_geom_bond_atom_site_label_1
_geom_bond_atom_site_label_2
_geom_bond_distance
_geom_bond_site_symmetry_2
_ccdc_geom_bond_type
C1     C11     1.438   .     S
C1     O72     1.268   .     A
C1     O70     1.269   .     A
C2     C29     1.484   .     S
C2     C3      1.395   .     A
C2     C37     1.429   .     A
C3     H47     1.086   .     S
C3     C716    1.389   .     S
C4     O73     1.280   .     A
C4     C10     1.455   .     S
C4     O71     1.283   .     A
C5     C6      1.419   .     A
C5     C7      1.399   .     A
C5     C714    1.389   1_554 S
C6     C9      1.429   .     A
C6     C38     1.427   .     A
C7     C8      1.384   .     A
C7     H58     1.084   .     S
C8     C20     1.393   .     A
C8     H46     1.084   .     S
C9     C22     1.492   .     S
C9     C20     1.411   .     A
C10    C90     1.335   .     S
C10    H138    1.088   .     S
C11    C168    1.335   1_455 S
C11    H199    1.086   1_455 S
C12    C21     1.392   .     A
C12    H56     1.083   .     S
C12    C19     1.401   .     A
C13    C16     1.450   .     S
C13    C251    1.331   .     S
C13    H297    1.088   .     S
C14    C15     1.434   .     S
C14    C487    1.331   1_545 S
C14    H535    1.086   1_545 S
C15    O68     1.278   .     A
C15    O74     1.276   .     A
C16    O75     1.270   .     A
C16    O69     1.272   .     A
C17    O66     1.273   .     A
C17    O64     1.270   .     A
C17    C20     1.453   .     S
C18    O65     1.282   .     A
C18    C19     1.470   .     S
C18    O67     1.284   .     A
C19    C23     1.399   .     A
C21    C36     1.402   .     A
C21    H52     1.084   .     S
C22    C28     1.409   .     A
C22    C24     1.405   .     A
C23    C34     1.406   .     A
C23    H48     1.078   .     S
C24    C25     1.399   .     A
C24    H62     1.083   .     S
C25    H42     1.082   .     S
C25    C26     1.398   .     A
C26    H43     1.082   .     S
C26    C27     1.397   .     A
C27    H44     1.083   .     S
C27    C28     1.398   .     A
C28    H45     1.082   .     S
C29    C30     1.406   .     A
C29    C35     1.407   .     A
C30    H50     1.083   .     S
C30    C31     1.398   .     A
C31    C32     1.397   .     A
C31    H51     1.082   .     S
C32    H53     1.080   .     S
C32    C33     1.396   .     A
C33    H54     1.082   .     S
C33    C35     1.397   .     A
C34    C37     1.428   .     A
C34    C36     1.418   .     A
C35    H55     1.083   .     S
C36    C751    1.391   .     S
C37    C749    1.426   .     S
C38    C39     1.412   .     A
C38    C748    1.426   1_554 S
C39    C40     1.387   .     A
C39    H49     1.077   .     S
C40    H57     1.084   .     S
C40    C747    1.391   1_554 S
H41    C90     1.086   .     S
H59    C168    1.088   1_455 S
H60    C487    1.088   1_545 S
H61    C251    1.086   .     S
O63    Zn79    1.931   .     S
O63    Zn76    1.963   .     S
O63    Zn77    1.938   .     S
O63    Zn78    1.936   .     S
O64    Zn77    1.935   .     S
O65    Zn79    1.944   .     S
O66    Zn78    1.935   .     S
O67    Zn76    1.928   .     S
O68    Zn76    1.924   .     S
O69    Zn79    1.930   .     S
O70    Zn77    1.927   .     S
O71    Zn78    1.937   .     S
O72    Zn79    1.931   .     S
O73    Zn76    1.923   .     S
O74    Zn77    1.937   .     S
O75    Zn78    1.928   .     S
C80    C90     1.438   .     S
C80    O151    1.268   .     A
C80    O149    1.269   .     A
C81    C108    1.484   .     S
C81    C82     1.395   .     A
C81    C116    1.429   .     A
C82    H126    1.086   .     S
C82    C795    1.389   .     S
C83    O152    1.280   .     A
C83    C89     1.455   .     S
C83    O150    1.283   .     A
C84    C85     1.419   .     A
C84    C86     1.399   .     A
C84    C793    1.389   1_554 S
C85    C88     1.429   .     A
C85    C117    1.427   .     A
C86    C87     1.384   .     A
C86    H137    1.084   .     S
C87    C99     1.393   .     A
C87    H125    1.084   .     S
C88    C101    1.492   .     S
C88    C99     1.411   .     A
C89    C169    1.335   .     S
C89    H217    1.088   .     S
C91    C100    1.392   .     A
C91    H135    1.083   .     S
C91    C98     1.401   .     A
C92    C95     1.450   .     S
C92    C330    1.331   .     S
C92    H376    1.088   .     S
C93    C94     1.434   .     S
C93    C566    1.331   1_545 S
C93    H614    1.086   1_545 S
C94    O147    1.278   .     A
C94    O153    1.276   .     A
C95    O154    1.270   .     A
C95    O148    1.272   .     A
C96    O145    1.273   .     A
C96    O143    1.270   .     A
C96    C99     1.453   .     S
C97    O144    1.282   .     A
C97    C98     1.470   .     S
C97    O146    1.284   .     A
C98    C102    1.399   .     A
C100   C115    1.402   .     A
C100   H131    1.084   .     S
C101   C107    1.409   .     A
C101   C103    1.405   .     A
C102   C113    1.406   .     A
C102   H127    1.078   .     S
C103   C104    1.399   .     A
C103   H141    1.083   .     S
C104   H121    1.082   .     S
C104   C105    1.398   .     A
C105   H122    1.082   .     S
C105   C106    1.397   .     A
C106   H123    1.083   .     S
C106   C107    1.398   .     A
C107   H124    1.082   .     S
C108   C109    1.406   .     A
C108   C114    1.407   .     A
C109   H129    1.083   .     S
C109   C110    1.398   .     A
C110   C111    1.397   .     A
C110   H130    1.082   .     S
C111   H132    1.080   .     S
C111   C112    1.396   .     A
C112   H133    1.082   .     S
C112   C114    1.397   .     A
C113   C116    1.428   .     A
C113   C115    1.418   .     A
C114   H134    1.083   .     S
C115   C830    1.391   .     S
C116   C828    1.426   .     S
C117   C118    1.412   .     A
C117   C827    1.426   1_554 S
C118   C119    1.387   .     A
C118   H128    1.077   .     S
C119   H136    1.084   .     S
C119   C826    1.391   1_554 S
H120   C169    1.086   .     S
H139   C566    1.088   1_545 S
H140   C330    1.086   .     S
O142   Zn158   1.931   .     S
O142   Zn155   1.963   .     S
O142   Zn156   1.938   .     S
O142   Zn157   1.936   .     S
O143   Zn156   1.935   .     S
O144   Zn158   1.944   .     S
O145   Zn157   1.935   .     S
O146   Zn155   1.928   .     S
O147   Zn155   1.924   .     S
O148   Zn158   1.930   .     S
O149   Zn156   1.927   .     S
O150   Zn157   1.937   .     S
O151   Zn158   1.931   .     S
O152   Zn155   1.923   .     S
O153   Zn156   1.937   .     S
O154   Zn157   1.928   .     S
C159   C169    1.438   .     S
C159   O230    1.268   .     A
C159   O228    1.269   .     A
C160   C187    1.484   .     S
C160   C161    1.395   .     A
C160   C195    1.429   .     A
C161   H205    1.086   .     S
C161   C874    1.389   .     S
C162   O231    1.280   .     A
C162   C168    1.455   .     S
C162   O229    1.283   .     A
C163   C164    1.419   .     A
C163   C165    1.399   .     A
C163   C872    1.389   1_554 S
C164   C167    1.429   .     A
C164   C196    1.427   .     A
C165   C166    1.384   .     A
C165   H216    1.084   .     S
C166   C178    1.393   .     A
C166   H204    1.084   .     S
C167   C180    1.492   .     S
C167   C178    1.411   .     A
C168   C11     1.335   1_655 S
C168   H59     1.088   1_655 S
C170   C179    1.392   .     A
C170   H214    1.083   .     S
C170   C177    1.401   .     A
C171   C174    1.450   .     S
C171   C409    1.331   .     S
C171   H455    1.088   .     S
C172   C173    1.434   .     S
C172   C645    1.331   1_545 S
C172   H693    1.086   1_545 S
C173   O226    1.278   .     A
C173   O232    1.276   .     A
C174   O233    1.270   .     A
C174   O227    1.272   .     A
C175   O224    1.273   .     A
C175   O222    1.270   .     A
C175   C178    1.453   .     S
C176   O223    1.282   .     A
C176   C177    1.470   .     S
C176   O225    1.284   .     A
C177   C181    1.399   .     A
C179   C194    1.402   .     A
C179   H210    1.084   .     S
C180   C186    1.409   .     A
C180   C182    1.405   .     A
C181   C192    1.406   .     A
C181   H206    1.078   .     S
C182   C183    1.399   .     A
C182   H220    1.083   .     S
C183   H200    1.082   .     S
C183   C184    1.398   .     A
C184   H201    1.082   .     S
C184   C185    1.397   .     A
C185   H202    1.083   .     S
C185   C186    1.398   .     A
C186   H203    1.082   .     S
C187   C188    1.406   .     A
C187   C193    1.407   .     A
C188   H208    1.083   .     S
C188   C189    1.398   .     A
C189   C190    1.397   .     A
C189   H209    1.082   .     S
C190   H211    1.080   .     S
C190   C191    1.396   .     A
C191   H212    1.082   .     S
C191   C193    1.397   .     A
C192   C195    1.428   .     A
C192   C194    1.418   .     A
C193   H213    1.083   .     S
C194   C909    1.391   .     S
C195   C907    1.426   .     S
C196   C197    1.412   .     A
C196   C906    1.426   1_554 S
C197   C198    1.387   .     A
C197   H207    1.077   .     S
C198   H215    1.084   .     S
C198   C905    1.391   1_554 S
H199   C11     1.086   1_655 S
H218   C645    1.088   1_545 S
H219   C409    1.086   .     S
O221   Zn237   1.931   .     S
O221   Zn234   1.963   .     S
O221   Zn235   1.938   .     S
O221   Zn236   1.936   .     S
O222   Zn235   1.935   .     S
O223   Zn237   1.944   .     S
O224   Zn236   1.935   .     S
O225   Zn234   1.928   .     S
O226   Zn234   1.924   .     S
O227   Zn237   1.930   .     S
O228   Zn235   1.927   .     S
O229   Zn236   1.937   .     S
O230   Zn237   1.931   .     S
O231   Zn234   1.923   .     S
O232   Zn235   1.937   .     S
O233   Zn236   1.928   .     S
C238   C248    1.438   .     S
C238   O309    1.268   .     A
C238   O307    1.269   .     A
C239   C266    1.484   .     S
C239   C240    1.395   .     A
C239   C274    1.429   .     A
C240   H284    1.086   .     S
C240   C953    1.389   .     S
C241   O310    1.280   .     A
C241   C247    1.455   .     S
C241   O308    1.283   .     A
C242   C243    1.419   .     A
C242   C244    1.399   .     A
C242   C951    1.389   1_554 S
C243   C246    1.429   .     A
C243   C275    1.427   .     A
C244   C245    1.384   .     A
C244   H295    1.084   .     S
C245   C257    1.393   .     A
C245   H283    1.084   .     S
C246   C259    1.492   .     S
C246   C257    1.411   .     A
C247   C327    1.335   .     S
C247   H375    1.088   .     S
C248   C405    1.335   1_455 S
C248   H436    1.086   1_455 S
C249   C258    1.392   .     A
C249   H293    1.083   .     S
C249   C256    1.401   .     A
C250   C253    1.450   .     S
C250   C488    1.331   .     S
C250   H534    1.088   .     S
C251   C252    1.434   .     S
C252   O305    1.278   .     A
C252   O311    1.276   .     A
C253   O312    1.270   .     A
C253   O306    1.272   .     A
C254   O303    1.273   .     A
C254   O301    1.270   .     A
C254   C257    1.453   .     S
C255   O302    1.282   .     A
C255   C256    1.470   .     S
C255   O304    1.284   .     A
C256   C260    1.399   .     A
C258   C273    1.402   .     A
C258   H289    1.084   .     S
C259   C265    1.409   .     A
C259   C261    1.405   .     A
C260   C271    1.406   .     A
C260   H285    1.078   .     S
C261   C262    1.399   .     A
C261   H299    1.083   .     S
C262   H279    1.082   .     S
C262   C263    1.398   .     A
C263   H280    1.082   .     S
C263   C264    1.397   .     A
C264   H281    1.083   .     S
C264   C265    1.398   .     A
C265   H282    1.082   .     S
C266   C267    1.406   .     A
C266   C272    1.407   .     A
C267   H287    1.083   .     S
C267   C268    1.398   .     A
C268   C269    1.397   .     A
C268   H288    1.082   .     S
C269   H290    1.080   .     S
C269   C270    1.396   .     A
C270   H291    1.082   .     S
C270   C272    1.397   .     A
C271   C274    1.428   .     A
C271   C273    1.418   .     A
C272   H292    1.083   .     S
C273   C988    1.391   .     S
C274   C986    1.426   .     S
C275   C276    1.412   .     A
C275   C985    1.426   1_554 S
C276   C277    1.387   .     A
C276   H286    1.077   .     S
C277   H294    1.084   .     S
C277   C984    1.391   1_554 S
H278   C327    1.086   .     S
H296   C405    1.088   1_455 S
H298   C488    1.086   .     S
O300   Zn316   1.931   .     S
O300   Zn313   1.963   .     S
O300   Zn314   1.938   .     S
O300   Zn315   1.936   .     S
O301   Zn314   1.935   .     S
O302   Zn316   1.944   .     S
O303   Zn315   1.935   .     S
O304   Zn313   1.928   .     S
O305   Zn313   1.924   .     S
O306   Zn316   1.930   .     S
O307   Zn314   1.927   .     S
O308   Zn315   1.937   .     S
O309   Zn316   1.931   .     S
O310   Zn313   1.923   .     S
O311   Zn314   1.937   .     S
O312   Zn315   1.928   .     S
C317   C327    1.438   .     S
C317   O388    1.268   .     A
C317   O386    1.269   .     A
C318   C345    1.484   .     S
C318   C319    1.395   .     A
C318   C353    1.429   .     A
C319   H363    1.086   .     S
C319   C1032   1.389   .     S
C320   O389    1.280   .     A
C320   C326    1.455   .     S
C320   O387    1.283   .     A
C321   C322    1.419   .     A
C321   C323    1.399   .     A
C321   C1030   1.389   1_554 S
C322   C325    1.429   .     A
C322   C354    1.427   .     A
C323   C324    1.384   .     A
C323   H374    1.084   .     S
C324   C336    1.393   .     A
C324   H362    1.084   .     S
C325   C338    1.492   .     S
C325   C336    1.411   .     A
C326   C406    1.335   .     S
C326   H454    1.088   .     S
C328   C337    1.392   .     A
C328   H372    1.083   .     S
C328   C335    1.401   .     A
C329   C332    1.450   .     S
C329   C567    1.331   .     S
C329   H613    1.088   .     S
C330   C331    1.434   .     S
C331   O384    1.278   .     A
C331   O390    1.276   .     A
C332   O391    1.270   .     A
C332   O385    1.272   .     A
C333   O382    1.273   .     A
C333   O380    1.270   .     A
C333   C336    1.453   .     S
C334   O381    1.282   .     A
C334   C335    1.470   .     S
C334   O383    1.284   .     A
C335   C339    1.399   .     A
C337   C352    1.402   .     A
C337   H368    1.084   .     S
C338   C344    1.409   .     A
C338   C340    1.405   .     A
C339   C350    1.406   .     A
C339   H364    1.078   .     S
C340   C341    1.399   .     A
C340   H378    1.083   .     S
C341   H358    1.082   .     S
C341   C342    1.398   .     A
C342   H359    1.082   .     S
C342   C343    1.397   .     A
C343   H360    1.083   .     S
C343   C344    1.398   .     A
C344   H361    1.082   .     S
C345   C346    1.406   .     A
C345   C351    1.407   .     A
C346   H366    1.083   .     S
C346   C347    1.398   .     A
C347   C348    1.397   .     A
C347   H367    1.082   .     S
C348   H369    1.080   .     S
C348   C349    1.396   .     A
C349   H370    1.082   .     S
C349   C351    1.397   .     A
C350   C353    1.428   .     A
C350   C352    1.418   .     A
C351   H371    1.083   .     S
C352   C1067   1.391   .     S
C353   C1065   1.426   .     S
C354   C355    1.412   .     A
C354   C1064   1.426   1_554 S
C355   C356    1.387   .     A
C355   H365    1.077   .     S
C356   H373    1.084   .     S
C356   C1063   1.391   1_554 S
H357   C406    1.086   .     S
H377   C567    1.086   .     S
O379   Zn395   1.931   .     S
O379   Zn392   1.963   .     S
O379   Zn393   1.938   .     S
O379   Zn394   1.936   .     S
O380   Zn393   1.935   .     S
O381   Zn395   1.944   .     S
O382   Zn394   1.935   .     S
O383   Zn392   1.928   .     S
O384   Zn392   1.924   .     S
O385   Zn395   1.930   .     S
O386   Zn393   1.927   .     S
O387   Zn394   1.937   .     S
O388   Zn395   1.931   .     S
O389   Zn392   1.923   .     S
O390   Zn393   1.937   .     S
O391   Zn394   1.928   .     S
C396   C406    1.438   .     S
C396   O467    1.268   .     A
C396   O465    1.269   .     A
C397   C424    1.484   .     S
C397   C398    1.395   .     A
C397   C432    1.429   .     A
C398   H442    1.086   .     S
C398   C1111   1.389   .     S
C399   O468    1.280   .     A
C399   C405    1.455   .     S
C399   O466    1.283   .     A
C400   C401    1.419   .     A
C400   C402    1.399   .     A
C400   C1109   1.389   1_554 S
C401   C404    1.429   .     A
C401   C433    1.427   .     A
C402   C403    1.384   .     A
C402   H453    1.084   .     S
C403   C415    1.393   .     A
C403   H441    1.084   .     S
C404   C417    1.492   .     S
C404   C415    1.411   .     A
C405   C248    1.335   1_655 S
C405   H296    1.088   1_655 S
C407   C416    1.392   .     A
C407   H451    1.083   .     S
C407   C414    1.401   .     A
C408   C411    1.450   .     S
C408   C646    1.331   .     S
C408   H692    1.088   .     S
C409   C410    1.434   .     S
C410   O463    1.278   .     A
C410   O469    1.276   .     A
C411   O470    1.270   .     A
C411   O464    1.272   .     A
C412   O461    1.273   .     A
C412   O459    1.270   .     A
C412   C415    1.453   .     S
C413   O460    1.282   .     A
C413   C414    1.470   .     S
C413   O462    1.284   .     A
C414   C418    1.399   .     A
C416   C431    1.402   .     A
C416   H447    1.084   .     S
C417   C423    1.409   .     A
C417   C419    1.405   .     A
C418   C429    1.406   .     A
C418   H443    1.078   .     S
C419   C420    1.399   .     A
C419   H457    1.083   .     S
C420   H437    1.082   .     S
C420   C421    1.398   .     A
C421   H438    1.082   .     S
C421   C422    1.397   .     A
C422   H439    1.083   .     S
C422   C423    1.398   .     A
C423   H440    1.082   .     S
C424   C425    1.406   .     A
C424   C430    1.407   .     A
C425   H445    1.083   .     S
C425   C426    1.398   .     A
C426   C427    1.397   .     A
C426   H446    1.082   .     S
C427   H448    1.080   .     S
C427   C428    1.396   .     A
C428   H449    1.082   .     S
C428   C430    1.397   .     A
C429   C432    1.428   .     A
C429   C431    1.418   .     A
C430   H450    1.083   .     S
C431   C1146   1.391   .     S
C432   C1144   1.426   .     S
C433   C434    1.412   .     A
C433   C1143   1.426   1_554 S
C434   C435    1.387   .     A
C434   H444    1.077   .     S
C435   H452    1.084   .     S
C435   C1142   1.391   1_554 S
H436   C248    1.086   1_655 S
H456   C646    1.086   .     S
O458   Zn474   1.931   .     S
O458   Zn471   1.963   .     S
O458   Zn472   1.938   .     S
O458   Zn473   1.936   .     S
O459   Zn472   1.935   .     S
O460   Zn474   1.944   .     S
O461   Zn473   1.935   .     S
O462   Zn471   1.928   .     S
O463   Zn471   1.924   .     S
O464   Zn474   1.930   .     S
O465   Zn472   1.927   .     S
O466   Zn473   1.937   .     S
O467   Zn474   1.931   .     S
O468   Zn471   1.923   .     S
O469   Zn472   1.937   .     S
O470   Zn473   1.928   .     S
C475   C485    1.438   .     S
C475   O546    1.268   .     A
C475   O544    1.269   .     A
C476   C503    1.484   .     S
C476   C477    1.395   .     A
C476   C511    1.429   .     A
C477   H521    1.086   .     S
C477   C1190   1.389   .     S
C478   O547    1.280   .     A
C478   C484    1.455   .     S
C478   O545    1.283   .     A
C479   C480    1.419   .     A
C479   C481    1.399   .     A
C479   C1188   1.389   1_554 S
C480   C483    1.429   .     A
C480   C512    1.427   .     A
C481   C482    1.384   .     A
C481   H532    1.084   .     S
C482   C494    1.393   .     A
C482   H520    1.084   .     S
C483   C496    1.492   .     S
C483   C494    1.411   .     A
C484   C564    1.335   .     S
C484   H612    1.088   .     S
C485   C642    1.335   1_455 S
C485   H673    1.086   1_455 S
C486   C495    1.392   .     A
C486   H530    1.083   .     S
C486   C493    1.401   .     A
C487   C490    1.450   .     S
C487   C14     1.331   1_565 S
C487   H60     1.088   1_565 S
C488   C489    1.434   .     S
C489   O542    1.278   .     A
C489   O548    1.276   .     A
C490   O549    1.270   .     A
C490   O543    1.272   .     A
C491   O540    1.273   .     A
C491   O538    1.270   .     A
C491   C494    1.453   .     S
C492   O539    1.282   .     A
C492   C493    1.470   .     S
C492   O541    1.284   .     A
C493   C497    1.399   .     A
C495   C510    1.402   .     A
C495   H526    1.084   .     S
C496   C502    1.409   .     A
C496   C498    1.405   .     A
C497   C508    1.406   .     A
C497   H522    1.078   .     S
C498   C499    1.399   .     A
C498   H536    1.083   .     S
C499   H516    1.082   .     S
C499   C500    1.398   .     A
C500   H517    1.082   .     S
C500   C501    1.397   .     A
C501   H518    1.083   .     S
C501   C502    1.398   .     A
C502   H519    1.082   .     S
C503   C504    1.406   .     A
C503   C509    1.407   .     A
C504   H524    1.083   .     S
C504   C505    1.398   .     A
C505   C506    1.397   .     A
C505   H525    1.082   .     S
C506   H527    1.080   .     S
C506   C507    1.396   .     A
C507   H528    1.082   .     S
C507   C509    1.397   .     A
C508   C511    1.428   .     A
C508   C510    1.418   .     A
C509   H529    1.083   .     S
C510   C1225   1.391   .     S
C511   C1223   1.426   .     S
C512   C513    1.412   .     A
C512   C1222   1.426   1_554 S
C513   C514    1.387   .     A
C513   H523    1.077   .     S
C514   H531    1.084   .     S
C514   C1221   1.391   1_554 S
H515   C564    1.086   .     S
H533   C642    1.088   1_455 S
H535   C14     1.086   1_565 S
O537   Zn553   1.931   .     S
O537   Zn550   1.963   .     S
O537   Zn551   1.938   .     S
O537   Zn552   1.936   .     S
O538   Zn551   1.935   .     S
O539   Zn553   1.944   .     S
O540   Zn552   1.935   .     S
O541   Zn550   1.928   .     S
O542   Zn550   1.924   .     S
O543   Zn553   1.930   .     S
O544   Zn551   1.927   .     S
O545   Zn552   1.937   .     S
O546   Zn553   1.931   .     S
O547   Zn550   1.923   .     S
O548   Zn551   1.937   .     S
O549   Zn552   1.928   .     S
C554   C564    1.438   .     S
C554   O625    1.268   .     A
C554   O623    1.269   .     A
C555   C582    1.484   .     S
C555   C556    1.395   .     A
C555   C590    1.429   .     A
C556   H600    1.086   .     S
C556   C1269   1.389   .     S
C557   O626    1.280   .     A
C557   C563    1.455   .     S
C557   O624    1.283   .     A
C558   C559    1.419   .     A
C558   C560    1.399   .     A
C558   C1267   1.389   1_554 S
C559   C562    1.429   .     A
C559   C591    1.427   .     A
C560   C561    1.384   .     A
C560   H611    1.084   .     S
C561   C573    1.393   .     A
C561   H599    1.084   .     S
C562   C575    1.492   .     S
C562   C573    1.411   .     A
C563   C643    1.335   .     S
C563   H691    1.088   .     S
C565   C574    1.392   .     A
C565   H609    1.083   .     S
C565   C572    1.401   .     A
C566   C569    1.450   .     S
C566   C93     1.331   1_565 S
C566   H139    1.088   1_565 S
C567   C568    1.434   .     S
C568   O621    1.278   .     A
C568   O627    1.276   .     A
C569   O628    1.270   .     A
C569   O622    1.272   .     A
C570   O619    1.273   .     A
C570   O617    1.270   .     A
C570   C573    1.453   .     S
C571   O618    1.282   .     A
C571   C572    1.470   .     S
C571   O620    1.284   .     A
C572   C576    1.399   .     A
C574   C589    1.402   .     A
C574   H605    1.084   .     S
C575   C581    1.409   .     A
C575   C577    1.405   .     A
C576   C587    1.406   .     A
C576   H601    1.078   .     S
C577   C578    1.399   .     A
C577   H615    1.083   .     S
C578   H595    1.082   .     S
C578   C579    1.398   .     A
C579   H596    1.082   .     S
C579   C580    1.397   .     A
C580   H597    1.083   .     S
C580   C581    1.398   .     A
C581   H598    1.082   .     S
C582   C583    1.406   .     A
C582   C588    1.407   .     A
C583   H603    1.083   .     S
C583   C584    1.398   .     A
C584   C585    1.397   .     A
C584   H604    1.082   .     S
C585   H606    1.080   .     S
C585   C586    1.396   .     A
C586   H607    1.082   .     S
C586   C588    1.397   .     A
C587   C590    1.428   .     A
C587   C589    1.418   .     A
C588   H608    1.083   .     S
C589   C1304   1.391   .     S
C590   C1302   1.426   .     S
C591   C592    1.412   .     A
C591   C1301   1.426   1_554 S
C592   C593    1.387   .     A
C592   H602    1.077   .     S
C593   H610    1.084   .     S
C593   C1300   1.391   1_554 S
H594   C643    1.086   .     S
H614   C93     1.086   1_565 S
O616   Zn632   1.931   .     S
O616   Zn629   1.963   .     S
O616   Zn630   1.938   .     S
O616   Zn631   1.936   .     S
O617   Zn630   1.935   .     S
O618   Zn632   1.944   .     S
O619   Zn631   1.935   .     S
O620   Zn629   1.928   .     S
O621   Zn629   1.924   .     S
O622   Zn632   1.930   .     S
O623   Zn630   1.927   .     S
O624   Zn631   1.937   .     S
O625   Zn632   1.931   .     S
O626   Zn629   1.923   .     S
O627   Zn630   1.937   .     S
O628   Zn631   1.928   .     S
C633   C643    1.438   .     S
C633   O704    1.268   .     A
C633   O702    1.269   .     A
C634   C661    1.484   .     S
C634   C635    1.395   .     A
C634   C669    1.429   .     A
C635   H679    1.086   .     S
C635   C1348   1.389   .     S
C636   O705    1.280   .     A
C636   C642    1.455   .     S
C636   O703    1.283   .     A
C637   C638    1.419   .     A
C637   C639    1.399   .     A
C637   C1346   1.389   1_554 S
C638   C641    1.429   .     A
C638   C670    1.427   .     A
C639   C640    1.384   .     A
C639   H690    1.084   .     S
C640   C652    1.393   .     A
C640   H678    1.084   .     S
C641   C654    1.492   .     S
C641   C652    1.411   .     A
C642   C485    1.335   1_655 S
C642   H533    1.088   1_655 S
C644   C653    1.392   .     A
C644   H688    1.083   .     S
C644   C651    1.401   .     A
C645   C648    1.450   .     S
C645   C172    1.331   1_565 S
C645   H218    1.088   1_565 S
C646   C647    1.434   .     S
C647   O700    1.278   .     A
C647   O706    1.276   .     A
C648   O707    1.270   .     A
C648   O701    1.272   .     A
C649   O698    1.273   .     A
C649   O696    1.270   .     A
C649   C652    1.453   .     S
C650   O697    1.282   .     A
C650   C651    1.470   .     S
C650   O699    1.284   .     A
C651   C655    1.399   .     A
C653   C668    1.402   .     A
C653   H684    1.084   .     S
C654   C660    1.409   .     A
C654   C656    1.405   .     A
C655   C666    1.406   .     A
C655   H680    1.078   .     S
C656   C657    1.399   .     A
C656   H694    1.083   .     S
C657   H674    1.082   .     S
C657   C658    1.398   .     A
C658   H675    1.082   .     S
C658   C659    1.397   .     A
C659   H676    1.083   .     S
C659   C660    1.398   .     A
C660   H677    1.082   .     S
C661   C662    1.406   .     A
C661   C667    1.407   .     A
C662   H682    1.083   .     S
C662   C663    1.398   .     A
C663   C664    1.397   .     A
C663   H683    1.082   .     S
C664   H685    1.080   .     S
C664   C665    1.396   .     A
C665   H686    1.082   .     S
C665   C667    1.397   .     A
C666   C669    1.428   .     A
C666   C668    1.418   .     A
C667   H687    1.083   .     S
C668   C1383   1.391   .     S
C669   C1381   1.426   .     S
C670   C671    1.412   .     A
C670   C1380   1.426   1_554 S
C671   C672    1.387   .     A
C671   H681    1.077   .     S
C672   H689    1.084   .     S
C672   C1379   1.391   1_554 S
H673   C485    1.086   1_655 S
H693   C172    1.086   1_565 S
O695   Zn711   1.931   .     S
O695   Zn708   1.963   .     S
O695   Zn709   1.938   .     S
O695   Zn710   1.936   .     S
O696   Zn709   1.935   .     S
O697   Zn711   1.944   .     S
O698   Zn710   1.935   .     S
O699   Zn708   1.928   .     S
O700   Zn708   1.924   .     S
O701   Zn711   1.930   .     S
O702   Zn709   1.927   .     S
O703   Zn710   1.937   .     S
O704   Zn711   1.931   .     S
O705   Zn708   1.923   .     S
O706   Zn709   1.937   .     S
O707   Zn710   1.928   .     S
C712   C722    1.438   .     S
C712   O783    1.268   .     A
C712   O781    1.269   .     A
C713   C740    1.484   .     S
C713   C714    1.395   .     A
C713   C748    1.429   .     A
C714   H758    1.086   .     S
C714   C5      1.389   1_556 S
C715   O784    1.280   .     A
C715   C721    1.455   .     S
C715   O782    1.283   .     A
C716   C717    1.419   .     A
C716   C718    1.399   .     A
C717   C720    1.429   .     A
C717   C749    1.427   .     A
C718   C719    1.384   .     A
C718   H769    1.084   .     S
C719   C731    1.393   .     A
C719   H757    1.084   .     S
C720   C733    1.492   .     S
C720   C731    1.411   .     A
C721   C801    1.335   .     S
C721   H849    1.088   .     S
C722   C879    1.335   1_455 S
C722   H910    1.086   1_455 S
C723   C732    1.392   .     A
C723   H767    1.083   .     S
C723   C730    1.401   .     A
C724   C727    1.450   .     S
C724   C962    1.331   .     S
C724   H1008   1.088   .     S
C725   C726    1.434   .     S
C725   C1198   1.331   1_545 S
C725   H1246   1.086   1_545 S
C726   O779    1.278   .     A
C726   O785    1.276   .     A
C727   O786    1.270   .     A
C727   O780    1.272   .     A
C728   O777    1.273   .     A
C728   O775    1.270   .     A
C728   C731    1.453   .     S
C729   O776    1.282   .     A
C729   C730    1.470   .     S
C729   O778    1.284   .     A
C730   C734    1.399   .     A
C732   C747    1.402   .     A
C732   H763    1.084   .     S
C733   C739    1.409   .     A
C733   C735    1.405   .     A
C734   C745    1.406   .     A
C734   H759    1.078   .     S
C735   C736    1.399   .     A
C735   H773    1.083   .     S
C736   H753    1.082   .     S
C736   C737    1.398   .     A
C737   H754    1.082   .     S
C737   C738    1.397   .     A
C738   H755    1.083   .     S
C738   C739    1.398   .     A
C739   H756    1.082   .     S
C740   C741    1.406   .     A
C740   C746    1.407   .     A
C741   H761    1.083   .     S
C741   C742    1.398   .     A
C742   C743    1.397   .     A
C742   H762    1.082   .     S
C743   H764    1.080   .     S
C743   C744    1.396   .     A
C744   H765    1.082   .     S
C744   C746    1.397   .     A
C745   C748    1.428   .     A
C745   C747    1.418   .     A
C746   H766    1.083   .     S
C747   C40     1.391   1_556 S
C748   C38     1.426   1_556 S
C749   C750    1.412   .     A
C750   C751    1.387   .     A
C750   H760    1.077   .     S
C751   H768    1.084   .     S
H752   C801    1.086   .     S
H770   C879    1.088   1_455 S
H771   C1198   1.088   1_545 S
H772   C962    1.086   .     S
O774   Zn790   1.931   .     S
O774   Zn787   1.963   .     S
O774   Zn788   1.938   .     S
O774   Zn789   1.936   .     S
O775   Zn788   1.935   .     S
O776   Zn790   1.944   .     S
O777   Zn789   1.935   .     S
O778   Zn787   1.928   .     S
O779   Zn787   1.924   .     S
O780   Zn790   1.930   .     S
O781   Zn788   1.927   .     S
O782   Zn789   1.937   .     S
O783   Zn790   1.931   .     S
O784   Zn787   1.923   .     S
O785   Zn788   1.937   .     S
O786   Zn789   1.928   .     S
C791   C801    1.438   .     S
C791   O862    1.268   .     A
C791   O860    1.269   .     A
C792   C819    1.484   .     S
C792   C793    1.395   .     A
C792   C827    1.429   .     A
C793   H837    1.086   .     S
C793   C84     1.389   1_556 S
C794   O863    1.280   .     A
C794   C800    1.455   .     S
C794   O861    1.283   .     A
C795   C796    1.419   .     A
C795   C797    1.399   .     A
C796   C799    1.429   .     A
C796   C828    1.427   .     A
C797   C798    1.384   .     A
C797   H848    1.084   .     S
C798   C810    1.393   .     A
C798   H836    1.084   .     S
C799   C812    1.492   .     S
C799   C810    1.411   .     A
C800   C880    1.335   .     S
C800   H928    1.088   .     S
C802   C811    1.392   .     A
C802   H846    1.083   .     S
C802   C809    1.401   .     A
C803   C806    1.450   .     S
C803   C1041   1.331   .     S
C803   H1087   1.088   .     S
C804   C805    1.434   .     S
C804   C1277   1.331   1_545 S
C804   H1325   1.086   1_545 S
C805   O858    1.278   .     A
C805   O864    1.276   .     A
C806   O865    1.270   .     A
C806   O859    1.272   .     A
C807   O856    1.273   .     A
C807   O854    1.270   .     A
C807   C810    1.453   .     S
C808   O855    1.282   .     A
C808   C809    1.470   .     S
C808   O857    1.284   .     A
C809   C813    1.399   .     A
C811   C826    1.402   .     A
C811   H842    1.084   .     S
C812   C818    1.409   .     A
C812   C814    1.405   .     A
C813   C824    1.406   .     A
C813   H838    1.078   .     S
C814   C815    1.399   .     A
C814   H852    1.083   .     S
C815   H832    1.082   .     S
C815   C816    1.398   .     A
C816   H833    1.082   .     S
C816   C817    1.397   .     A
C817   H834    1.083   .     S
C817   C818    1.398   .     A
C818   H835    1.082   .     S
C819   C820    1.406   .     A
C819   C825    1.407   .     A
C820   H840    1.083   .     S
C820   C821    1.398   .     A
C821   C822    1.397   .     A
C821   H841    1.082   .     S
C822   H843    1.080   .     S
C822   C823    1.396   .     A
C823   H844    1.082   .     S
C823   C825    1.397   .     A
C824   C827    1.428   .     A
C824   C826    1.418   .     A
C825   H845    1.083   .     S
C826   C119    1.391   1_556 S
C827   C117    1.426   1_556 S
C828   C829    1.412   .     A
C829   C830    1.387   .     A
C829   H839    1.077   .     S
C830   H847    1.084   .     S
H831   C880    1.086   .     S
H850   C1277   1.088   1_545 S
H851   C1041   1.086   .     S
O853   Zn869   1.931   .     S
O853   Zn866   1.963   .     S
O853   Zn867   1.938   .     S
O853   Zn868   1.936   .     S
O854   Zn867   1.935   .     S
O855   Zn869   1.944   .     S
O856   Zn868   1.935   .     S
O857   Zn866   1.928   .     S
O858   Zn866   1.924   .     S
O859   Zn869   1.930   .     S
O860   Zn867   1.927   .     S
O861   Zn868   1.937   .     S
O862   Zn869   1.931   .     S
O863   Zn866   1.923   .     S
O864   Zn867   1.937   .     S
O865   Zn868   1.928   .     S
C870   C880    1.438   .     S
C870   O941    1.268   .     A
C870   O939    1.269   .     A
C871   C898    1.484   .     S
C871   C872    1.395   .     A
C871   C906    1.429   .     A
C872   H916    1.086   .     S
C872   C163    1.389   1_556 S
C873   O942    1.280   .     A
C873   C879    1.455   .     S
C873   O940    1.283   .     A
C874   C875    1.419   .     A
C874   C876    1.399   .     A
C875   C878    1.429   .     A
C875   C907    1.427   .     A
C876   C877    1.384   .     A
C876   H927    1.084   .     S
C877   C889    1.393   .     A
C877   H915    1.084   .     S
C878   C891    1.492   .     S
C878   C889    1.411   .     A
C879   C722    1.335   1_655 S
C879   H770    1.088   1_655 S
C881   C890    1.392   .     A
C881   H925    1.083   .     S
C881   C888    1.401   .     A
C882   C885    1.450   .     S
C882   C1120   1.331   .     S
C882   H1166   1.088   .     S
C883   C884    1.434   .     S
C883   C1356   1.331   1_545 S
C883   H1404   1.086   1_545 S
C884   O937    1.278   .     A
C884   O943    1.276   .     A
C885   O944    1.270   .     A
C885   O938    1.272   .     A
C886   O935    1.273   .     A
C886   O933    1.270   .     A
C886   C889    1.453   .     S
C887   O934    1.282   .     A
C887   C888    1.470   .     S
C887   O936    1.284   .     A
C888   C892    1.399   .     A
C890   C905    1.402   .     A
C890   H921    1.084   .     S
C891   C897    1.409   .     A
C891   C893    1.405   .     A
C892   C903    1.406   .     A
C892   H917    1.078   .     S
C893   C894    1.399   .     A
C893   H931    1.083   .     S
C894   H911    1.082   .     S
C894   C895    1.398   .     A
C895   H912    1.082   .     S
C895   C896    1.397   .     A
C896   H913    1.083   .     S
C896   C897    1.398   .     A
C897   H914    1.082   .     S
C898   C899    1.406   .     A
C898   C904    1.407   .     A
C899   H919    1.083   .     S
C899   C900    1.398   .     A
C900   C901    1.397   .     A
C900   H920    1.082   .     S
C901   H922    1.080   .     S
C901   C902    1.396   .     A
C902   H923    1.082   .     S
C902   C904    1.397   .     A
C903   C906    1.428   .     A
C903   C905    1.418   .     A
C904   H924    1.083   .     S
C905   C198    1.391   1_556 S
C906   C196    1.426   1_556 S
C907   C908    1.412   .     A
C908   C909    1.387   .     A
C908   H918    1.077   .     S
C909   H926    1.084   .     S
H910   C722    1.086   1_655 S
H929   C1356   1.088   1_545 S
H930   C1120   1.086   .     S
O932   Zn948   1.931   .     S
O932   Zn945   1.963   .     S
O932   Zn946   1.938   .     S
O932   Zn947   1.936   .     S
O933   Zn946   1.935   .     S
O934   Zn948   1.944   .     S
O935   Zn947   1.935   .     S
O936   Zn945   1.928   .     S
O937   Zn945   1.924   .     S
O938   Zn948   1.930   .     S
O939   Zn946   1.927   .     S
O940   Zn947   1.937   .     S
O941   Zn948   1.931   .     S
O942   Zn945   1.923   .     S
O943   Zn946   1.937   .     S
O944   Zn947   1.928   .     S
C949   C959    1.438   .     S
C949   O1020   1.268   .     A
C949   O1018   1.269   .     A
C950   C977    1.484   .     S
C950   C951    1.395   .     A
C950   C985    1.429   .     A
C951   H995    1.086   .     S
C951   C242    1.389   1_556 S
C952   O1021   1.280   .     A
C952   C958    1.455   .     S
C952   O1019   1.283   .     A
C953   C954    1.419   .     A
C953   C955    1.399   .     A
C954   C957    1.429   .     A
C954   C986    1.427   .     A
C955   C956    1.384   .     A
C955   H1006   1.084   .     S
C956   C968    1.393   .     A
C956   H994    1.084   .     S
C957   C970    1.492   .     S
C957   C968    1.411   .     A
C958   C1038   1.335   .     S
C958   H1086   1.088   .     S
C959   C1116   1.335   1_455 S
C959   H1147   1.086   1_455 S
C960   C969    1.392   .     A
C960   H1004   1.083   .     S
C960   C967    1.401   .     A
C961   C964    1.450   .     S
C961   C1199   1.331   .     S
C961   H1245   1.088   .     S
C962   C963    1.434   .     S
C963   O1016   1.278   .     A
C963   O1022   1.276   .     A
C964   O1023   1.270   .     A
C964   O1017   1.272   .     A
C965   O1014   1.273   .     A
C965   O1012   1.270   .     A
C965   C968    1.453   .     S
C966   O1013   1.282   .     A
C966   C967    1.470   .     S
C966   O1015   1.284   .     A
C967   C971    1.399   .     A
C969   C984    1.402   .     A
C969   H1000   1.084   .     S
C970   C976    1.409   .     A
C970   C972    1.405   .     A
C971   C982    1.406   .     A
C971   H996    1.078   .     S
C972   C973    1.399   .     A
C972   H1010   1.083   .     S
C973   H990    1.082   .     S
C973   C974    1.398   .     A
C974   H991    1.082   .     S
C974   C975    1.397   .     A
C975   H992    1.083   .     S
C975   C976    1.398   .     A
C976   H993    1.082   .     S
C977   C978    1.406   .     A
C977   C983    1.407   .     A
C978   H998    1.083   .     S
C978   C979    1.398   .     A
C979   C980    1.397   .     A
C979   H999    1.082   .     S
C980   H1001   1.080   .     S
C980   C981    1.396   .     A
C981   H1002   1.082   .     S
C981   C983    1.397   .     A
C982   C985    1.428   .     A
C982   C984    1.418   .     A
C983   H1003   1.083   .     S
C984   C277    1.391   1_556 S
C985   C275    1.426   1_556 S
C986   C987    1.412   .     A
C987   C988    1.387   .     A
C987   H997    1.077   .     S
C988   H1005   1.084   .     S
H989   C1038   1.086   .     S
H1007  C1116   1.088   1_455 S
H1009  C1199   1.086   .     S
O1011  Zn1027  1.931   .     S
O1011  Zn1024  1.963   .     S
O1011  Zn1025  1.938   .     S
O1011  Zn1026  1.936   .     S
O1012  Zn1025  1.935   .     S
O1013  Zn1027  1.944   .     S
O1014  Zn1026  1.935   .     S
O1015  Zn1024  1.928   .     S
O1016  Zn1024  1.924   .     S
O1017  Zn1027  1.930   .     S
O1018  Zn1025  1.927   .     S
O1019  Zn1026  1.937   .     S
O1020  Zn1027  1.931   .     S
O1021  Zn1024  1.923   .     S
O1022  Zn1025  1.937   .     S
O1023  Zn1026  1.928   .     S
C1028  C1038   1.438   .     S
C1028  O1099   1.268   .     A
C1028  O1097   1.269   .     A
C1029  C1056   1.484   .     S
C1029  C1030   1.395   .     A
C1029  C1064   1.429   .     A
C1030  H1074   1.086   .     S
C1030  C321    1.389   1_556 S
C1031  O1100   1.280   .     A
C1031  C1037   1.455   .     S
C1031  O1098   1.283   .     A
C1032  C1033   1.419   .     A
C1032  C1034   1.399   .     A
C1033  C1036   1.429   .     A
C1033  C1065   1.427   .     A
C1034  C1035   1.384   .     A
C1034  H1085   1.084   .     S
C1035  C1047   1.393   .     A
C1035  H1073   1.084   .     S
C1036  C1049   1.492   .     S
C1036  C1047   1.411   .     A
C1037  C1117   1.335   .     S
C1037  H1165   1.088   .     S
C1039  C1048   1.392   .     A
C1039  H1083   1.083   .     S
C1039  C1046   1.401   .     A
C1040  C1043   1.450   .     S
C1040  C1278   1.331   .     S
C1040  H1324   1.088   .     S
C1041  C1042   1.434   .     S
C1042  O1095   1.278   .     A
C1042  O1101   1.276   .     A
C1043  O1102   1.270   .     A
C1043  O1096   1.272   .     A
C1044  O1093   1.273   .     A
C1044  O1091   1.270   .     A
C1044  C1047   1.453   .     S
C1045  O1092   1.282   .     A
C1045  C1046   1.470   .     S
C1045  O1094   1.284   .     A
C1046  C1050   1.399   .     A
C1048  C1063   1.402   .     A
C1048  H1079   1.084   .     S
C1049  C1055   1.409   .     A
C1049  C1051   1.405   .     A
C1050  C1061   1.406   .     A
C1050  H1075   1.078   .     S
C1051  C1052   1.399   .     A
C1051  H1089   1.083   .     S
C1052  H1069   1.082   .     S
C1052  C1053   1.398   .     A
C1053  H1070   1.082   .     S
C1053  C1054   1.397   .     A
C1054  H1071   1.083   .     S
C1054  C1055   1.398   .     A
C1055  H1072   1.082   .     S
C1056  C1057   1.406   .     A
C1056  C1062   1.407   .     A
C1057  H1077   1.083   .     S
C1057  C1058   1.398   .     A
C1058  C1059   1.397   .     A
C1058  H1078   1.082   .     S
C1059  H1080   1.080   .     S
C1059  C1060   1.396   .     A
C1060  H1081   1.082   .     S
C1060  C1062   1.397   .     A
C1061  C1064   1.428   .     A
C1061  C1063   1.418   .     A
C1062  H1082   1.083   .     S
C1063  C356    1.391   1_556 S
C1064  C354    1.426   1_556 S
C1065  C1066   1.412   .     A
C1066  C1067   1.387   .     A
C1066  H1076   1.077   .     S
C1067  H1084   1.084   .     S
H1068  C1117   1.086   .     S
H1088  C1278   1.086   .     S
O1090  Zn1106  1.931   .     S
O1090  Zn1103  1.963   .     S
O1090  Zn1104  1.938   .     S
O1090  Zn1105  1.936   .     S
O1091  Zn1104  1.935   .     S
O1092  Zn1106  1.944   .     S
O1093  Zn1105  1.935   .     S
O1094  Zn1103  1.928   .     S
O1095  Zn1103  1.924   .     S
O1096  Zn1106  1.930   .     S
O1097  Zn1104  1.927   .     S
O1098  Zn1105  1.937   .     S
O1099  Zn1106  1.931   .     S
O1100  Zn1103  1.923   .     S
O1101  Zn1104  1.937   .     S
O1102  Zn1105  1.928   .     S
C1107  C1117   1.438   .     S
C1107  O1178   1.268   .     A
C1107  O1176   1.269   .     A
C1108  C1135   1.484   .     S
C1108  C1109   1.395   .     A
C1108  C1143   1.429   .     A
C1109  H1153   1.086   .     S
C1109  C400    1.389   1_556 S
C1110  O1179   1.280   .     A
C1110  C1116   1.455   .     S
C1110  O1177   1.283   .     A
C1111  C1112   1.419   .     A
C1111  C1113   1.399   .     A
C1112  C1115   1.429   .     A
C1112  C1144   1.427   .     A
C1113  C1114   1.384   .     A
C1113  H1164   1.084   .     S
C1114  C1126   1.393   .     A
C1114  H1152   1.084   .     S
C1115  C1128   1.492   .     S
C1115  C1126   1.411   .     A
C1116  C959    1.335   1_655 S
C1116  H1007   1.088   1_655 S
C1118  C1127   1.392   .     A
C1118  H1162   1.083   .     S
C1118  C1125   1.401   .     A
C1119  C1122   1.450   .     S
C1119  C1357   1.331   .     S
C1119  H1403   1.088   .     S
C1120  C1121   1.434   .     S
C1121  O1174   1.278   .     A
C1121  O1180   1.276   .     A
C1122  O1181   1.270   .     A
C1122  O1175   1.272   .     A
C1123  O1172   1.273   .     A
C1123  O1170   1.270   .     A
C1123  C1126   1.453   .     S
C1124  O1171   1.282   .     A
C1124  C1125   1.470   .     S
C1124  O1173   1.284   .     A
C1125  C1129   1.399   .     A
C1127  C1142   1.402   .     A
C1127  H1158   1.084   .     S
C1128  C1134   1.409   .     A
C1128  C1130   1.405   .     A
C1129  C1140   1.406   .     A
C1129  H1154   1.078   .     S
C1130  C1131   1.399   .     A
C1130  H1168   1.083   .     S
C1131  H1148   1.082   .     S
C1131  C1132   1.398   .     A
C1132  H1149   1.082   .     S
C1132  C1133   1.397   .     A
C1133  H1150   1.083   .     S
C1133  C1134   1.398   .     A
C1134  H1151   1.082   .     S
C1135  C1136   1.406   .     A
C1135  C1141   1.407   .     A
C1136  H1156   1.083   .     S
C1136  C1137   1.398   .     A
C1137  C1138   1.397   .     A
C1137  H1157   1.082   .     S
C1138  H1159   1.080   .     S
C1138  C1139   1.396   .     A
C1139  H1160   1.082   .     S
C1139  C1141   1.397   .     A
C1140  C1143   1.428   .     A
C1140  C1142   1.418   .     A
C1141  H1161   1.083   .     S
C1142  C435    1.391   1_556 S
C1143  C433    1.426   1_556 S
C1144  C1145   1.412   .     A
C1145  C1146   1.387   .     A
C1145  H1155   1.077   .     S
C1146  H1163   1.084   .     S
H1147  C959    1.086   1_655 S
H1167  C1357   1.086   .     S
O1169  Zn1185  1.931   .     S
O1169  Zn1182  1.963   .     S
O1169  Zn1183  1.938   .     S
O1169  Zn1184  1.936   .     S
O1170  Zn1183  1.935   .     S
O1171  Zn1185  1.944   .     S
O1172  Zn1184  1.935   .     S
O1173  Zn1182  1.928   .     S
O1174  Zn1182  1.924   .     S
O1175  Zn1185  1.930   .     S
O1176  Zn1183  1.927   .     S
O1177  Zn1184  1.937   .     S
O1178  Zn1185  1.931   .     S
O1179  Zn1182  1.923   .     S
O1180  Zn1183  1.937   .     S
O1181  Zn1184  1.928   .     S
C1186  C1196   1.438   .     S
C1186  O1257   1.268   .     A
C1186  O1255   1.269   .     A
C1187  C1214   1.484   .     S
C1187  C1188   1.395   .     A
C1187  C1222   1.429   .     A
C1188  H1232   1.086   .     S
C1188  C479    1.389   1_556 S
C1189  O1258   1.280   .     A
C1189  C1195   1.455   .     S
C1189  O1256   1.283   .     A
C1190  C1191   1.419   .     A
C1190  C1192   1.399   .     A
C1191  C1194   1.429   .     A
C1191  C1223   1.427   .     A
C1192  C1193   1.384   .     A
C1192  H1243   1.084   .     S
C1193  C1205   1.393   .     A
C1193  H1231   1.084   .     S
C1194  C1207   1.492   .     S
C1194  C1205   1.411   .     A
C1195  C1275   1.335   .     S
C1195  H1323   1.088   .     S
C1196  C1353   1.335   1_455 S
C1196  H1384   1.086   1_455 S
C1197  C1206   1.392   .     A
C1197  H1241   1.083   .     S
C1197  C1204   1.401   .     A
C1198  C1201   1.450   .     S
C1198  C725    1.331   1_565 S
C1198  H771    1.088   1_565 S
C1199  C1200   1.434   .     S
C1200  O1253   1.278   .     A
C1200  O1259   1.276   .     A
C1201  O1260   1.270   .     A
C1201  O1254   1.272   .     A
C1202  O1251   1.273   .     A
C1202  O1249   1.270   .     A
C1202  C1205   1.453   .     S
C1203  O1250   1.282   .     A
C1203  C1204   1.470   .     S
C1203  O1252   1.284   .     A
C1204  C1208   1.399   .     A
C1206  C1221   1.402   .     A
C1206  H1237   1.084   .     S
C1207  C1213   1.409   .     A
C1207  C1209   1.405   .     A
C1208  C1219   1.406   .     A
C1208  H1233   1.078   .     S
C1209  C1210   1.399   .     A
C1209  H1247   1.083   .     S
C1210  H1227   1.082   .     S
C1210  C1211   1.398   .     A
C1211  H1228   1.082   .     S
C1211  C1212   1.397   .     A
C1212  H1229   1.083   .     S
C1212  C1213   1.398   .     A
C1213  H1230   1.082   .     S
C1214  C1215   1.406   .     A
C1214  C1220   1.407   .     A
C1215  H1235   1.083   .     S
C1215  C1216   1.398   .     A
C1216  C1217   1.397   .     A
C1216  H1236   1.082   .     S
C1217  H1238   1.080   .     S
C1217  C1218   1.396   .     A
C1218  H1239   1.082   .     S
C1218  C1220   1.397   .     A
C1219  C1222   1.428   .     A
C1219  C1221   1.418   .     A
C1220  H1240   1.083   .     S
C1221  C514    1.391   1_556 S
C1222  C512    1.426   1_556 S
C1223  C1224   1.412   .     A
C1224  C1225   1.387   .     A
C1224  H1234   1.077   .     S
C1225  H1242   1.084   .     S
H1226  C1275   1.086   .     S
H1244  C1353   1.088   1_455 S
H1246  C725    1.086   1_565 S
O1248  Zn1264  1.931   .     S
O1248  Zn1261  1.963   .     S
O1248  Zn1262  1.938   .     S
O1248  Zn1263  1.936   .     S
O1249  Zn1262  1.935   .     S
O1250  Zn1264  1.944   .     S
O1251  Zn1263  1.935   .     S
O1252  Zn1261  1.928   .     S
O1253  Zn1261  1.924   .     S
O1254  Zn1264  1.930   .     S
O1255  Zn1262  1.927   .     S
O1256  Zn1263  1.937   .     S
O1257  Zn1264  1.931   .     S
O1258  Zn1261  1.923   .     S
O1259  Zn1262  1.937   .     S
O1260  Zn1263  1.928   .     S
C1265  C1275   1.438   .     S
C1265  O1336   1.268   .     A
C1265  O1334   1.269   .     A
C1266  C1293   1.484   .     S
C1266  C1267   1.395   .     A
C1266  C1301   1.429   .     A
C1267  H1311   1.086   .     S
C1267  C558    1.389   1_556 S
C1268  O1337   1.280   .     A
C1268  C1274   1.455   .     S
C1268  O1335   1.283   .     A
C1269  C1270   1.419   .     A
C1269  C1271   1.399   .     A
C1270  C1273   1.429   .     A
C1270  C1302   1.427   .     A
C1271  C1272   1.384   .     A
C1271  H1322   1.084   .     S
C1272  C1284   1.393   .     A
C1272  H1310   1.084   .     S
C1273  C1286   1.492   .     S
C1273  C1284   1.411   .     A
C1274  C1354   1.335   .     S
C1274  H1402   1.088   .     S
C1276  C1285   1.392   .     A
C1276  H1320   1.083   .     S
C1276  C1283   1.401   .     A
C1277  C1280   1.450   .     S
C1277  C804    1.331   1_565 S
C1277  H850    1.088   1_565 S
C1278  C1279   1.434   .     S
C1279  O1332   1.278   .     A
C1279  O1338   1.276   .     A
C1280  O1339   1.270   .     A
C1280  O1333   1.272   .     A
C1281  O1330   1.273   .     A
C1281  O1328   1.270   .     A
C1281  C1284   1.453   .     S
C1282  O1329   1.282   .     A
C1282  C1283   1.470   .     S
C1282  O1331   1.284   .     A
C1283  C1287   1.399   .     A
C1285  C1300   1.402   .     A
C1285  H1316   1.084   .     S
C1286  C1292   1.409   .     A
C1286  C1288   1.405   .     A
C1287  C1298   1.406   .     A
C1287  H1312   1.078   .     S
C1288  C1289   1.399   .     A
C1288  H1326   1.083   .     S
C1289  H1306   1.082   .     S
C1289  C1290   1.398   .     A
C1290  H1307   1.082   .     S
C1290  C1291   1.397   .     A
C1291  H1308   1.083   .     S
C1291  C1292   1.398   .     A
C1292  H1309   1.082   .     S
C1293  C1294   1.406   .     A
C1293  C1299   1.407   .     A
C1294  H1314   1.083   .     S
C1294  C1295   1.398   .     A
C1295  C1296   1.397   .     A
C1295  H1315   1.082   .     S
C1296  H1317   1.080   .     S
C1296  C1297   1.396   .     A
C1297  H1318   1.082   .     S
C1297  C1299   1.397   .     A
C1298  C1301   1.428   .     A
C1298  C1300   1.418   .     A
C1299  H1319   1.083   .     S
C1300  C593    1.391   1_556 S
C1301  C591    1.426   1_556 S
C1302  C1303   1.412   .     A
C1303  C1304   1.387   .     A
C1303  H1313   1.077   .     S
C1304  H1321   1.084   .     S
H1305  C1354   1.086   .     S
H1325  C804    1.086   1_565 S
O1327  Zn1343  1.931   .     S
O1327  Zn1340  1.963   .     S
O1327  Zn1341  1.938   .     S
O1327  Zn1342  1.936   .     S
O1328  Zn1341  1.935   .     S
O1329  Zn1343  1.944   .     S
O1330  Zn1342  1.935   .     S
O1331  Zn1340  1.928   .     S
O1332  Zn1340  1.924   .     S
O1333  Zn1343  1.930   .     S
O1334  Zn1341  1.927   .     S
O1335  Zn1342  1.937   .     S
O1336  Zn1343  1.931   .     S
O1337  Zn1340  1.923   .     S
O1338  Zn1341  1.937   .     S
O1339  Zn1342  1.928   .     S
C1344  C1354   1.438   .     S
C1344  O1415   1.268   .     A
C1344  O1413   1.269   .     A
C1345  C1372   1.484   .     S
C1345  C1346   1.395   .     A
C1345  C1380   1.429   .     A
C1346  H1390   1.086   .     S
C1346  C637    1.389   1_556 S
C1347  O1416   1.280   .     A
C1347  C1353   1.455   .     S
C1347  O1414   1.283   .     A
C1348  C1349   1.419   .     A
C1348  C1350   1.399   .     A
C1349  C1352   1.429   .     A
C1349  C1381   1.427   .     A
C1350  C1351   1.384   .     A
C1350  H1401   1.084   .     S
C1351  C1363   1.393   .     A
C1351  H1389   1.084   .     S
C1352  C1365   1.492   .     S
C1352  C1363   1.411   .     A
C1353  C1196   1.335   1_655 S
C1353  H1244   1.088   1_655 S
C1355  C1364   1.392   .     A
C1355  H1399   1.083   .     S
C1355  C1362   1.401   .     A
C1356  C1359   1.450   .     S
C1356  C883    1.331   1_565 S
C1356  H929    1.088   1_565 S
C1357  C1358   1.434   .     S
C1358  O1411   1.278   .     A
C1358  O1417   1.276   .     A
C1359  O1418   1.270   .     A
C1359  O1412   1.272   .     A
C1360  O1409   1.273   .     A
C1360  O1407   1.270   .     A
C1360  C1363   1.453   .     S
C1361  O1408   1.282   .     A
C1361  C1362   1.470   .     S
C1361  O1410   1.284   .     A
C1362  C1366   1.399   .     A
C1364  C1379   1.402   .     A
C1364  H1395   1.084   .     S
C1365  C1371   1.409   .     A
C1365  C1367   1.405   .     A
C1366  C1377   1.406   .     A
C1366  H1391   1.078   .     S
C1367  C1368   1.399   .     A
C1367  H1405   1.083   .     S
C1368  H1385   1.082   .     S
C1368  C1369   1.398   .     A
C1369  H1386   1.082   .     S
C1369  C1370   1.397   .     A
C1370  H1387   1.083   .     S
C1370  C1371   1.398   .     A
C1371  H1388   1.082   .     S
C1372  C1373   1.406   .     A
C1372  C1378   1.407   .     A
C1373  H1393   1.083   .     S
C1373  C1374   1.398   .     A
C1374  C1375   1.397   .     A
C1374  H1394   1.082   .     S
C1375  H1396   1.080   .     S
C1375  C1376   1.396   .     A
C1376  H1397   1.082   .     S
C1376  C1378   1.397   .     A
C1377  C1380   1.428   .     A
C1377  C1379   1.418   .     A
C1378  H1398   1.083   .     S
C1379  C672    1.391   1_556 S
C1380  C670    1.426   1_556 S
C1381  C1382   1.412   .     A
C1382  C1383   1.387   .     A
C1382  H1392   1.077   .     S
C1383  H1400   1.084   .     S
H1384  C1196   1.086   1_655 S
H1404  C883    1.086   1_565 S
O1406  Zn1422  1.931   .     S
O1406  Zn1419  1.963   .     S
O1406  Zn1420  1.938   .     S
O1406  Zn1421  1.936   .     S
O1407  Zn1420  1.935   .     S
O1408  Zn1422  1.944   .     S
O1409  Zn1421  1.935   .     S
O1410  Zn1419  1.928   .     S
O1411  Zn1419  1.924   .     S
O1412  Zn1422  1.930   .     S
O1413  Zn1420  1.927   .     S
O1414  Zn1421  1.937   .     S
O1415  Zn1422  1.931   .     S
O1416  Zn1419  1.923   .     S
O1417  Zn1420  1.937   .     S
O1418  Zn1421  1.928   .     S
