data_str_m3_o1_o10_pcu_sym.33
_audit_creation_date              2020-01-03
_audit_creation_method            'Materials Studio'
_symmetry_space_group_name_H-M    'P1'
_symmetry_Int_Tables_number       1
_symmetry_cell_setting            triclinic
loop_
_symmetry_equiv_pos_as_xyz
  x,y,z
_cell_length_a                    25.8679
_cell_length_b                    32.5609
_cell_length_c                    30.2943
_cell_angle_alpha                 87.4715
_cell_angle_beta                  95.8903
_cell_angle_gamma                 95.0882
loop_
_atom_site_label
_atom_site_type_symbol
_atom_site_fract_x
_atom_site_fract_y
_atom_site_fract_z
_atom_site_U_iso_or_equiv
_atom_site_adp_type
_atom_site_occupancy
C1     C     0.16923   0.08700   0.16767   0.00000  Uiso   1.00
C2     C     0.16743   0.01827   0.20762   0.00000  Uiso   1.00
C3     C     0.16129   0.29067   0.16448   0.00000  Uiso   1.00
C4     C     0.17240   0.04272   0.16888   0.00000  Uiso   1.00
C5     C     0.20583   0.18795   0.02597   0.00000  Uiso   1.00
C6     C     0.12729   0.14545   0.30656   0.00000  Uiso   1.00
C7     C     0.20670   0.18685   0.31203   0.00000  Uiso   1.00
C8     C     0.12663   0.14600   0.02126   0.00000  Uiso   1.00
C9     C     0.15777   0.29869   0.08125   0.00000  Uiso   1.00
C10    C     0.19742   0.30425   0.05317   0.00000  Uiso   1.00
C11    C     0.18836   0.29054   0.01020   0.00000  Uiso   1.00
C12    C     0.16420   0.24635   0.16567   0.00000  Uiso   1.00
C13    C     0.14031   0.26966   0.32882   0.00000  Uiso   1.00
C14    C     0.10039   0.26462   0.02338   0.00000  Uiso   1.00
C15    C     0.10876   0.27972   0.06603   0.00000  Uiso   1.00
C16    C     0.17567   0.03476   0.25208   0.00000  Uiso   1.00
C17    C     0.22468   0.05352   0.26764   0.00000  Uiso   1.00
C18    C     0.23265   0.06880   0.31023   0.00000  Uiso   1.00
C19    C     0.19227   0.06420   0.00436   0.00000  Uiso   1.00
C20    C     0.14415   0.04366   0.32259   0.00000  Uiso   1.00
C21    C     0.13553   0.02973   0.27970   0.00000  Uiso   1.00
C22    C     0.25284   0.20698   0.29184   0.00000  Uiso   1.00
C23    C     0.06801   0.16837   0.15568   0.00000  Uiso   1.00
C24    C     0.29847   0.18671   0.29311   0.00000  Uiso   1.00
C25    C     0.00922   0.20577   0.27487   0.00000  Uiso   1.00
C26    C     0.00786   0.24497   0.25452   0.00000  Uiso   1.00
C27    C     0.29546   0.26493   0.25193   0.00000  Uiso   1.00
C28    C     0.25170   0.24581   0.27028   0.00000  Uiso   1.00
C29    C     0.08056   0.12646   0.04211   0.00000  Uiso   1.00
C30    C     0.08122   0.08763   0.06378   0.00000  Uiso   1.00
C31    C     0.03723   0.06890   0.08212   0.00000  Uiso   1.00
C32    C     0.32506   0.08917   0.07929   0.00000  Uiso   1.00
C33    C     0.32411   0.12829   0.05870   0.00000  Uiso   1.00
C34    C     0.26533   0.16500   0.17766   0.00000  Uiso   1.00
C35    C     0.03508   0.14698   0.04050   0.00000  Uiso   1.00
C36    C     0.01473   0.17602   0.15176   0.00000  Uiso   1.00
C37    C     0.31862   0.15738   0.18160   0.00000  Uiso   1.00
C38    C     0.17498   0.02395   0.12882   0.00000  Uiso   1.00
C39    C     0.15879   0.30946   0.20454   0.00000  Uiso   1.00
C40    C     0.16634   0.31512   0.12573   0.00000  Uiso   1.00
H41    H     0.18205   0.04205   0.09922   0.00000  Uiso   1.00
H42    H     0.25637   0.05624   0.24671   0.00000  Uiso   1.00
H43    H     0.27022   0.08364   0.32200   0.00000  Uiso   1.00
H44    H     0.19880   0.07637   0.03716   0.00000  Uiso   1.00
H45    H     0.11338   0.03680   0.01033   0.00000  Uiso   1.00
H46    H     0.09807   0.01413   0.26838   0.00000  Uiso   1.00
H47    H     0.23276   0.21727   0.07815   0.00000  Uiso   1.00
H48    H     0.06540   0.10624   0.29813   0.00000  Uiso   1.00
H49    H     0.29873   0.15535   0.30601   0.00000  Uiso   1.00
H50    H     0.04424   0.19001   0.27585   0.00000  Uiso   1.00
H51    H     0.04188   0.25951   0.24023   0.00000  Uiso   1.00
H52    H     0.15159   0.29139   0.23412   0.00000  Uiso   1.00
H53    H     0.29367   0.29502   0.23542   0.00000  Uiso   1.00
H54    H     0.21659   0.26089   0.26675   0.00000  Uiso   1.00
H55    H     0.11602   0.07210   0.06723   0.00000  Uiso   1.00
H56    H     0.03864   0.03882   0.09871   0.00000  Uiso   1.00
H57    H     0.29087   0.07490   0.09354   0.00000  Uiso   1.00
H58    H     0.28925   0.14428   0.05751   0.00000  Uiso   1.00
H59    H     0.03510   0.17824   0.02729   0.00000  Uiso   1.00
H60    H     0.02403   0.21647   0.10312   0.00000  Uiso   1.00
H61    H     0.30929   0.11686   0.23017   0.00000  Uiso   1.00
H62    H     0.23482   0.32013   0.06418   0.00000  Uiso   1.00
H63    H     0.21864   0.29794   0.32207   0.00000  Uiso   1.00
H64    H     0.13343   0.25765   0.29596   0.00000  Uiso   1.00
H65    H     0.06281   0.24965   0.01188   0.00000  Uiso   1.00
H66    H     0.07738   0.27672   0.08729   0.00000  Uiso   1.00
N67    N     0.16665   0.16666   0.28573   0.00000  Uiso   1.00
N68    N     0.16668   0.16668   0.04760   0.00000  Uiso   1.00
O69    O     0.16666   0.10558   0.20487   0.00000  Uiso   1.00
O70    O     0.00434   0.12827   0.21243   0.00000  Uiso   1.00
O71    O     0.24470   0.21220   0.04916   0.00000  Uiso   1.00
O72    O     0.08945   0.12305   0.27989   0.00000  Uiso   1.00
O73    O     0.16667   0.22775   0.12846   0.00000  Uiso   1.00
O74    O     0.16666   0.10559   0.12843   0.00000  Uiso   1.00
O75    O     0.16667   0.22774   0.20490   0.00000  Uiso   1.00
O76    O     0.09058   0.16666   0.19595   0.00000  Uiso   1.00
O77    O     0.24275   0.16667   0.13739   0.00000  Uiso   1.00
O78    O     0.09058   0.16667   0.11950   0.00000  Uiso   1.00
O79    O     0.24275   0.16666   0.21383   0.00000  Uiso   1.00
O80    O     0.32900   0.20512   0.12090   0.00000  Uiso   1.00
Zn81   Zn    0.16667   0.16666   0.21771   0.00000  Uiso   1.00
Zn82   Zn    0.16667   0.16667   0.11563   0.00000  Uiso   1.00
C83    C     0.50256   0.08700   0.16767   0.00000  Uiso   1.00
C84    C     0.50076   0.01827   0.20762   0.00000  Uiso   1.00
C85    C     0.49462   0.29067   0.16448   0.00000  Uiso   1.00
C86    C     0.50574   0.04272   0.16888   0.00000  Uiso   1.00
C87    C     0.53916   0.18795   0.02597   0.00000  Uiso   1.00
C88    C     0.46062   0.14545   0.30656   0.00000  Uiso   1.00
C89    C     0.54003   0.18685   0.31203   0.00000  Uiso   1.00
C90    C     0.45997   0.14600   0.02126   0.00000  Uiso   1.00
C91    C     0.49111   0.29869   0.08125   0.00000  Uiso   1.00
C92    C     0.53076   0.30425   0.05317   0.00000  Uiso   1.00
C93    C     0.52169   0.29054   0.01020   0.00000  Uiso   1.00
C94    C     0.49754   0.24635   0.16567   0.00000  Uiso   1.00
C95    C     0.47365   0.26966   0.32882   0.00000  Uiso   1.00
C96    C     0.43372   0.26462   0.02338   0.00000  Uiso   1.00
C97    C     0.44210   0.27972   0.06603   0.00000  Uiso   1.00
C98    C     0.50900   0.03476   0.25208   0.00000  Uiso   1.00
C99    C     0.55801   0.05352   0.26764   0.00000  Uiso   1.00
C100   C     0.56598   0.06880   0.31023   0.00000  Uiso   1.00
C101   C     0.52560   0.06420   0.00436   0.00000  Uiso   1.00
C102   C     0.47749   0.04366   0.32259   0.00000  Uiso   1.00
C103   C     0.46887   0.02973   0.27970   0.00000  Uiso   1.00
C104   C     0.58618   0.20698   0.29184   0.00000  Uiso   1.00
C105   C     0.40134   0.16837   0.15568   0.00000  Uiso   1.00
C106   C     0.63180   0.18671   0.29311   0.00000  Uiso   1.00
C107   C     0.34255   0.20577   0.27487   0.00000  Uiso   1.00
C108   C     0.34119   0.24497   0.25452   0.00000  Uiso   1.00
C109   C     0.62880   0.26493   0.25193   0.00000  Uiso   1.00
C110   C     0.58504   0.24581   0.27028   0.00000  Uiso   1.00
C111   C     0.41389   0.12646   0.04211   0.00000  Uiso   1.00
C112   C     0.41456   0.08763   0.06378   0.00000  Uiso   1.00
C113   C     0.37057   0.06890   0.08212   0.00000  Uiso   1.00
C114   C     0.65839   0.08917   0.07929   0.00000  Uiso   1.00
C115   C     0.65744   0.12829   0.05870   0.00000  Uiso   1.00
C116   C     0.59866   0.16500   0.17766   0.00000  Uiso   1.00
C117   C     0.36842   0.14698   0.04050   0.00000  Uiso   1.00
C118   C     0.34806   0.17602   0.15176   0.00000  Uiso   1.00
C119   C     0.65195   0.15738   0.18160   0.00000  Uiso   1.00
C120   C     0.50832   0.02395   0.12882   0.00000  Uiso   1.00
C121   C     0.49213   0.30946   0.20454   0.00000  Uiso   1.00
C122   C     0.49967   0.31512   0.12573   0.00000  Uiso   1.00
H123   H     0.51539   0.04205   0.09922   0.00000  Uiso   1.00
H124   H     0.58970   0.05624   0.24671   0.00000  Uiso   1.00
H125   H     0.60355   0.08364   0.32200   0.00000  Uiso   1.00
H126   H     0.53213   0.07637   0.03716   0.00000  Uiso   1.00
H127   H     0.44671   0.03680   0.01033   0.00000  Uiso   1.00
H128   H     0.43140   0.01413   0.26838   0.00000  Uiso   1.00
H129   H     0.56610   0.21727   0.07815   0.00000  Uiso   1.00
H130   H     0.39873   0.10624   0.29813   0.00000  Uiso   1.00
H131   H     0.63206   0.15535   0.30601   0.00000  Uiso   1.00
H132   H     0.37757   0.19001   0.27585   0.00000  Uiso   1.00
H133   H     0.37521   0.25951   0.24023   0.00000  Uiso   1.00
H134   H     0.48492   0.29139   0.23412   0.00000  Uiso   1.00
H135   H     0.62701   0.29502   0.23542   0.00000  Uiso   1.00
H136   H     0.54992   0.26089   0.26675   0.00000  Uiso   1.00
H137   H     0.44935   0.07210   0.06723   0.00000  Uiso   1.00
H138   H     0.37197   0.03882   0.09871   0.00000  Uiso   1.00
H139   H     0.62420   0.07490   0.09354   0.00000  Uiso   1.00
H140   H     0.62259   0.14428   0.05751   0.00000  Uiso   1.00
H141   H     0.36844   0.17824   0.02729   0.00000  Uiso   1.00
H142   H     0.35736   0.21647   0.10312   0.00000  Uiso   1.00
H143   H     0.64262   0.11686   0.23017   0.00000  Uiso   1.00
H144   H     0.56815   0.32013   0.06418   0.00000  Uiso   1.00
H145   H     0.55197   0.29794   0.32207   0.00000  Uiso   1.00
H146   H     0.46676   0.25765   0.29596   0.00000  Uiso   1.00
H147   H     0.39615   0.24965   0.01188   0.00000  Uiso   1.00
H148   H     0.41072   0.27672   0.08729   0.00000  Uiso   1.00
N149   N     0.49999   0.16666   0.28573   0.00000  Uiso   1.00
N150   N     0.50001   0.16668   0.04760   0.00000  Uiso   1.00
O151   O     0.50000   0.10558   0.20487   0.00000  Uiso   1.00
O152   O     0.33768   0.12827   0.21243   0.00000  Uiso   1.00
O153   O     0.57803   0.21220   0.04916   0.00000  Uiso   1.00
O154   O     0.42278   0.12305   0.27989   0.00000  Uiso   1.00
O155   O     0.50000   0.22775   0.12846   0.00000  Uiso   1.00
O156   O     0.50000   0.10559   0.12843   0.00000  Uiso   1.00
O157   O     0.50000   0.22774   0.20490   0.00000  Uiso   1.00
O158   O     0.42392   0.16666   0.19595   0.00000  Uiso   1.00
O159   O     0.57608   0.16667   0.13739   0.00000  Uiso   1.00
O160   O     0.42392   0.16667   0.11950   0.00000  Uiso   1.00
O161   O     0.57608   0.16666   0.21383   0.00000  Uiso   1.00
O162   O     0.66233   0.20512   0.12090   0.00000  Uiso   1.00
Zn163  Zn    0.50000   0.16666   0.21771   0.00000  Uiso   1.00
Zn164  Zn    0.50000   0.16667   0.11563   0.00000  Uiso   1.00
C165   C     0.83589   0.08700   0.16767   0.00000  Uiso   1.00
C166   C     0.83409   0.01827   0.20762   0.00000  Uiso   1.00
C167   C     0.82795   0.29067   0.16448   0.00000  Uiso   1.00
C168   C     0.83907   0.04272   0.16888   0.00000  Uiso   1.00
C169   C     0.87250   0.18795   0.02597   0.00000  Uiso   1.00
C170   C     0.79395   0.14545   0.30656   0.00000  Uiso   1.00
C171   C     0.87337   0.18685   0.31203   0.00000  Uiso   1.00
C172   C     0.79330   0.14600   0.02126   0.00000  Uiso   1.00
C173   C     0.82444   0.29869   0.08125   0.00000  Uiso   1.00
C174   C     0.86409   0.30425   0.05317   0.00000  Uiso   1.00
C175   C     0.85502   0.29054   0.01020   0.00000  Uiso   1.00
C176   C     0.83087   0.24635   0.16567   0.00000  Uiso   1.00
C177   C     0.80698   0.26966   0.32882   0.00000  Uiso   1.00
C178   C     0.76705   0.26462   0.02338   0.00000  Uiso   1.00
C179   C     0.77543   0.27972   0.06603   0.00000  Uiso   1.00
C180   C     0.84233   0.03476   0.25208   0.00000  Uiso   1.00
C181   C     0.89135   0.05352   0.26764   0.00000  Uiso   1.00
C182   C     0.89932   0.06880   0.31023   0.00000  Uiso   1.00
C183   C     0.85894   0.06420   0.00436   0.00000  Uiso   1.00
C184   C     0.81082   0.04366   0.32259   0.00000  Uiso   1.00
C185   C     0.80220   0.02973   0.27970   0.00000  Uiso   1.00
C186   C     0.91951   0.20698   0.29184   0.00000  Uiso   1.00
C187   C     0.73468   0.16837   0.15568   0.00000  Uiso   1.00
C188   C     0.96514   0.18671   0.29311   0.00000  Uiso   1.00
C189   C     0.67589   0.20577   0.27487   0.00000  Uiso   1.00
C190   C     0.67453   0.24497   0.25452   0.00000  Uiso   1.00
C191   C     0.96213   0.26493   0.25193   0.00000  Uiso   1.00
C192   C     0.91837   0.24581   0.27028   0.00000  Uiso   1.00
C193   C     0.74722   0.12646   0.04211   0.00000  Uiso   1.00
C194   C     0.74789   0.08763   0.06378   0.00000  Uiso   1.00
C195   C     0.70390   0.06890   0.08212   0.00000  Uiso   1.00
C196   C     0.99172   0.08917   0.07929   0.00000  Uiso   1.00
C197   C     0.99078   0.12829   0.05870   0.00000  Uiso   1.00
C198   C     0.93200   0.16500   0.17766   0.00000  Uiso   1.00
C199   C     0.70175   0.14698   0.04050   0.00000  Uiso   1.00
C200   C     0.68140   0.17602   0.15176   0.00000  Uiso   1.00
C201   C     0.98529   0.15738   0.18160   0.00000  Uiso   1.00
C202   C     0.84165   0.02395   0.12882   0.00000  Uiso   1.00
C203   C     0.82546   0.30946   0.20454   0.00000  Uiso   1.00
C204   C     0.83301   0.31512   0.12573   0.00000  Uiso   1.00
H205   H     0.84872   0.04205   0.09922   0.00000  Uiso   1.00
H206   H     0.92303   0.05624   0.24671   0.00000  Uiso   1.00
H207   H     0.93688   0.08364   0.32200   0.00000  Uiso   1.00
H208   H     0.86547   0.07637   0.03716   0.00000  Uiso   1.00
H209   H     0.78004   0.03680   0.01033   0.00000  Uiso   1.00
H210   H     0.76474   0.01413   0.26838   0.00000  Uiso   1.00
H211   H     0.89943   0.21727   0.07815   0.00000  Uiso   1.00
H212   H     0.73207   0.10624   0.29813   0.00000  Uiso   1.00
H213   H     0.96540   0.15535   0.30601   0.00000  Uiso   1.00
H214   H     0.71090   0.19001   0.27585   0.00000  Uiso   1.00
H215   H     0.70855   0.25951   0.24023   0.00000  Uiso   1.00
H216   H     0.81825   0.29139   0.23412   0.00000  Uiso   1.00
H217   H     0.96034   0.29502   0.23542   0.00000  Uiso   1.00
H218   H     0.88326   0.26089   0.26675   0.00000  Uiso   1.00
H219   H     0.78268   0.07210   0.06723   0.00000  Uiso   1.00
H220   H     0.70531   0.03882   0.09871   0.00000  Uiso   1.00
H221   H     0.95753   0.07490   0.09354   0.00000  Uiso   1.00
H222   H     0.95592   0.14428   0.05751   0.00000  Uiso   1.00
H223   H     0.70177   0.17824   0.02729   0.00000  Uiso   1.00
H224   H     0.69069   0.21647   0.10312   0.00000  Uiso   1.00
H225   H     0.97596   0.11686   0.23017   0.00000  Uiso   1.00
H226   H     0.90149   0.32013   0.06418   0.00000  Uiso   1.00
H227   H     0.88530   0.29794   0.32207   0.00000  Uiso   1.00
H228   H     0.80010   0.25765   0.29596   0.00000  Uiso   1.00
H229   H     0.72948   0.24965   0.01188   0.00000  Uiso   1.00
H230   H     0.74405   0.27672   0.08729   0.00000  Uiso   1.00
N231   N     0.83332   0.16666   0.28573   0.00000  Uiso   1.00
N232   N     0.83335   0.16668   0.04760   0.00000  Uiso   1.00
O233   O     0.83333   0.10558   0.20487   0.00000  Uiso   1.00
O234   O     0.67101   0.12827   0.21243   0.00000  Uiso   1.00
O235   O     0.91136   0.21220   0.04916   0.00000  Uiso   1.00
O236   O     0.75611   0.12305   0.27989   0.00000  Uiso   1.00
O237   O     0.83334   0.22775   0.12846   0.00000  Uiso   1.00
O238   O     0.83333   0.10559   0.12843   0.00000  Uiso   1.00
O239   O     0.83334   0.22774   0.20490   0.00000  Uiso   1.00
O240   O     0.75725   0.16666   0.19595   0.00000  Uiso   1.00
O241   O     0.90942   0.16667   0.13739   0.00000  Uiso   1.00
O242   O     0.75725   0.16667   0.11950   0.00000  Uiso   1.00
O243   O     0.90942   0.16666   0.21383   0.00000  Uiso   1.00
O244   O     0.99566   0.20512   0.12090   0.00000  Uiso   1.00
Zn245  Zn    0.83333   0.16666   0.21771   0.00000  Uiso   1.00
Zn246  Zn    0.83333   0.16667   0.11563   0.00000  Uiso   1.00
C247   C     0.16923   0.42034   0.16767   0.00000  Uiso   1.00
C248   C     0.16743   0.35161   0.20762   0.00000  Uiso   1.00
C249   C     0.16129   0.62400   0.16448   0.00000  Uiso   1.00
C250   C     0.17240   0.37606   0.16888   0.00000  Uiso   1.00
C251   C     0.20583   0.52128   0.02597   0.00000  Uiso   1.00
C252   C     0.12729   0.47878   0.30656   0.00000  Uiso   1.00
C253   C     0.20670   0.52018   0.31203   0.00000  Uiso   1.00
C254   C     0.12663   0.47933   0.02126   0.00000  Uiso   1.00
C255   C     0.15777   0.63203   0.08125   0.00000  Uiso   1.00
C256   C     0.19742   0.63758   0.05317   0.00000  Uiso   1.00
C257   C     0.18836   0.62387   0.01020   0.00000  Uiso   1.00
C258   C     0.16420   0.57968   0.16567   0.00000  Uiso   1.00
C259   C     0.14031   0.60299   0.32882   0.00000  Uiso   1.00
C260   C     0.10039   0.59795   0.02338   0.00000  Uiso   1.00
C261   C     0.10876   0.61305   0.06603   0.00000  Uiso   1.00
C262   C     0.17567   0.36810   0.25208   0.00000  Uiso   1.00
C263   C     0.22468   0.38686   0.26764   0.00000  Uiso   1.00
C264   C     0.23265   0.40214   0.31023   0.00000  Uiso   1.00
C265   C     0.19227   0.39754   0.00436   0.00000  Uiso   1.00
C266   C     0.14415   0.37699   0.32259   0.00000  Uiso   1.00
C267   C     0.13553   0.36306   0.27970   0.00000  Uiso   1.00
C268   C     0.25284   0.54031   0.29184   0.00000  Uiso   1.00
C269   C     0.06801   0.50170   0.15568   0.00000  Uiso   1.00
C270   C     0.29847   0.52004   0.29311   0.00000  Uiso   1.00
C271   C     0.00922   0.53910   0.27487   0.00000  Uiso   1.00
C272   C     0.00786   0.57830   0.25452   0.00000  Uiso   1.00
C273   C     0.29546   0.59826   0.25193   0.00000  Uiso   1.00
C274   C     0.25170   0.57914   0.27028   0.00000  Uiso   1.00
C275   C     0.08056   0.45979   0.04211   0.00000  Uiso   1.00
C276   C     0.08122   0.42096   0.06378   0.00000  Uiso   1.00
C277   C     0.03723   0.40223   0.08212   0.00000  Uiso   1.00
C278   C     0.32506   0.42250   0.07929   0.00000  Uiso   1.00
C279   C     0.32411   0.46162   0.05870   0.00000  Uiso   1.00
C280   C     0.26533   0.49834   0.17766   0.00000  Uiso   1.00
C281   C     0.03508   0.48032   0.04050   0.00000  Uiso   1.00
C282   C     0.01473   0.50936   0.15176   0.00000  Uiso   1.00
C283   C     0.31862   0.49072   0.18160   0.00000  Uiso   1.00
C284   C     0.17498   0.35728   0.12882   0.00000  Uiso   1.00
C285   C     0.15879   0.64279   0.20454   0.00000  Uiso   1.00
C286   C     0.16634   0.64846   0.12573   0.00000  Uiso   1.00
H287   H     0.18205   0.37538   0.09922   0.00000  Uiso   1.00
H288   H     0.25637   0.38957   0.24671   0.00000  Uiso   1.00
H289   H     0.27022   0.41697   0.32200   0.00000  Uiso   1.00
H290   H     0.19880   0.40970   0.03716   0.00000  Uiso   1.00
H291   H     0.11338   0.37014   0.01033   0.00000  Uiso   1.00
H292   H     0.09807   0.34746   0.26838   0.00000  Uiso   1.00
H293   H     0.23276   0.55060   0.07815   0.00000  Uiso   1.00
H294   H     0.06540   0.43957   0.29813   0.00000  Uiso   1.00
H295   H     0.29873   0.48868   0.30601   0.00000  Uiso   1.00
H296   H     0.04424   0.52335   0.27585   0.00000  Uiso   1.00
H297   H     0.04188   0.59285   0.24023   0.00000  Uiso   1.00
H298   H     0.15159   0.62472   0.23412   0.00000  Uiso   1.00
H299   H     0.29367   0.62835   0.23542   0.00000  Uiso   1.00
H300   H     0.21659   0.59422   0.26675   0.00000  Uiso   1.00
H301   H     0.11602   0.40543   0.06723   0.00000  Uiso   1.00
H302   H     0.03864   0.37216   0.09871   0.00000  Uiso   1.00
H303   H     0.29087   0.40824   0.09354   0.00000  Uiso   1.00
H304   H     0.28925   0.47761   0.05751   0.00000  Uiso   1.00
H305   H     0.03510   0.51158   0.02729   0.00000  Uiso   1.00
H306   H     0.02403   0.54980   0.10312   0.00000  Uiso   1.00
H307   H     0.30929   0.45019   0.23017   0.00000  Uiso   1.00
H308   H     0.23482   0.65346   0.06418   0.00000  Uiso   1.00
H309   H     0.21864   0.63127   0.32207   0.00000  Uiso   1.00
H310   H     0.13343   0.59098   0.29596   0.00000  Uiso   1.00
H311   H     0.06281   0.58298   0.01188   0.00000  Uiso   1.00
H312   H     0.07738   0.61005   0.08729   0.00000  Uiso   1.00
N313   N     0.16665   0.49999   0.28573   0.00000  Uiso   1.00
N314   N     0.16668   0.50001   0.04760   0.00000  Uiso   1.00
O315   O     0.16666   0.43892   0.20487   0.00000  Uiso   1.00
O316   O     0.00434   0.46160   0.21243   0.00000  Uiso   1.00
O317   O     0.24470   0.54553   0.04916   0.00000  Uiso   1.00
O318   O     0.08945   0.45639   0.27989   0.00000  Uiso   1.00
O319   O     0.16667   0.56108   0.12846   0.00000  Uiso   1.00
O320   O     0.16666   0.43893   0.12843   0.00000  Uiso   1.00
O321   O     0.16667   0.56107   0.20490   0.00000  Uiso   1.00
O322   O     0.09058   0.50000   0.19595   0.00000  Uiso   1.00
O323   O     0.24275   0.50000   0.13739   0.00000  Uiso   1.00
O324   O     0.09058   0.50000   0.11950   0.00000  Uiso   1.00
O325   O     0.24275   0.50000   0.21383   0.00000  Uiso   1.00
O326   O     0.32900   0.53845   0.12090   0.00000  Uiso   1.00
Zn327  Zn    0.16667   0.49999   0.21771   0.00000  Uiso   1.00
Zn328  Zn    0.16667   0.50001   0.11563   0.00000  Uiso   1.00
C329   C     0.50256   0.42034   0.16767   0.00000  Uiso   1.00
C330   C     0.50076   0.35161   0.20762   0.00000  Uiso   1.00
C331   C     0.49462   0.62400   0.16448   0.00000  Uiso   1.00
C332   C     0.50574   0.37606   0.16888   0.00000  Uiso   1.00
C333   C     0.53916   0.52128   0.02597   0.00000  Uiso   1.00
C334   C     0.46062   0.47878   0.30656   0.00000  Uiso   1.00
C335   C     0.54003   0.52018   0.31203   0.00000  Uiso   1.00
C336   C     0.45997   0.47933   0.02126   0.00000  Uiso   1.00
C337   C     0.49111   0.63203   0.08125   0.00000  Uiso   1.00
C338   C     0.53076   0.63758   0.05317   0.00000  Uiso   1.00
C339   C     0.52169   0.62387   0.01020   0.00000  Uiso   1.00
C340   C     0.49754   0.57968   0.16567   0.00000  Uiso   1.00
C341   C     0.47365   0.60299   0.32882   0.00000  Uiso   1.00
C342   C     0.43372   0.59795   0.02338   0.00000  Uiso   1.00
C343   C     0.44210   0.61305   0.06603   0.00000  Uiso   1.00
C344   C     0.50900   0.36810   0.25208   0.00000  Uiso   1.00
C345   C     0.55801   0.38686   0.26764   0.00000  Uiso   1.00
C346   C     0.56598   0.40214   0.31023   0.00000  Uiso   1.00
C347   C     0.52560   0.39754   0.00436   0.00000  Uiso   1.00
C348   C     0.47749   0.37699   0.32259   0.00000  Uiso   1.00
C349   C     0.46887   0.36306   0.27970   0.00000  Uiso   1.00
C350   C     0.58618   0.54031   0.29184   0.00000  Uiso   1.00
C351   C     0.40134   0.50170   0.15568   0.00000  Uiso   1.00
C352   C     0.63180   0.52004   0.29311   0.00000  Uiso   1.00
C353   C     0.34255   0.53910   0.27487   0.00000  Uiso   1.00
C354   C     0.34119   0.57830   0.25452   0.00000  Uiso   1.00
C355   C     0.62880   0.59826   0.25193   0.00000  Uiso   1.00
C356   C     0.58504   0.57914   0.27028   0.00000  Uiso   1.00
C357   C     0.41389   0.45979   0.04211   0.00000  Uiso   1.00
C358   C     0.41456   0.42096   0.06378   0.00000  Uiso   1.00
C359   C     0.37057   0.40223   0.08212   0.00000  Uiso   1.00
C360   C     0.65839   0.42250   0.07929   0.00000  Uiso   1.00
C361   C     0.65744   0.46162   0.05870   0.00000  Uiso   1.00
C362   C     0.59866   0.49834   0.17766   0.00000  Uiso   1.00
C363   C     0.36842   0.48032   0.04050   0.00000  Uiso   1.00
C364   C     0.34806   0.50936   0.15176   0.00000  Uiso   1.00
C365   C     0.65195   0.49072   0.18160   0.00000  Uiso   1.00
C366   C     0.50832   0.35728   0.12882   0.00000  Uiso   1.00
C367   C     0.49213   0.64279   0.20454   0.00000  Uiso   1.00
C368   C     0.49967   0.64846   0.12573   0.00000  Uiso   1.00
H369   H     0.51539   0.37538   0.09922   0.00000  Uiso   1.00
H370   H     0.58970   0.38957   0.24671   0.00000  Uiso   1.00
H371   H     0.60355   0.41697   0.32200   0.00000  Uiso   1.00
H372   H     0.53213   0.40970   0.03716   0.00000  Uiso   1.00
H373   H     0.44671   0.37014   0.01033   0.00000  Uiso   1.00
H374   H     0.43140   0.34746   0.26838   0.00000  Uiso   1.00
H375   H     0.56610   0.55060   0.07815   0.00000  Uiso   1.00
H376   H     0.39873   0.43957   0.29813   0.00000  Uiso   1.00
H377   H     0.63206   0.48868   0.30601   0.00000  Uiso   1.00
H378   H     0.37757   0.52335   0.27585   0.00000  Uiso   1.00
H379   H     0.37521   0.59285   0.24023   0.00000  Uiso   1.00
H380   H     0.48492   0.62472   0.23412   0.00000  Uiso   1.00
H381   H     0.62701   0.62835   0.23542   0.00000  Uiso   1.00
H382   H     0.54992   0.59422   0.26675   0.00000  Uiso   1.00
H383   H     0.44935   0.40543   0.06723   0.00000  Uiso   1.00
H384   H     0.37197   0.37216   0.09871   0.00000  Uiso   1.00
H385   H     0.62420   0.40824   0.09354   0.00000  Uiso   1.00
H386   H     0.62259   0.47761   0.05751   0.00000  Uiso   1.00
H387   H     0.36844   0.51158   0.02729   0.00000  Uiso   1.00
H388   H     0.35736   0.54980   0.10312   0.00000  Uiso   1.00
H389   H     0.64262   0.45019   0.23017   0.00000  Uiso   1.00
H390   H     0.56815   0.65346   0.06418   0.00000  Uiso   1.00
H391   H     0.55197   0.63127   0.32207   0.00000  Uiso   1.00
H392   H     0.46676   0.59098   0.29596   0.00000  Uiso   1.00
H393   H     0.39615   0.58298   0.01188   0.00000  Uiso   1.00
H394   H     0.41072   0.61005   0.08729   0.00000  Uiso   1.00
N395   N     0.49999   0.49999   0.28573   0.00000  Uiso   1.00
N396   N     0.50001   0.50001   0.04760   0.00000  Uiso   1.00
O397   O     0.50000   0.43892   0.20487   0.00000  Uiso   1.00
O398   O     0.33768   0.46160   0.21243   0.00000  Uiso   1.00
O399   O     0.57803   0.54553   0.04916   0.00000  Uiso   1.00
O400   O     0.42278   0.45639   0.27989   0.00000  Uiso   1.00
O401   O     0.50000   0.56108   0.12846   0.00000  Uiso   1.00
O402   O     0.50000   0.43893   0.12843   0.00000  Uiso   1.00
O403   O     0.50000   0.56107   0.20490   0.00000  Uiso   1.00
O404   O     0.42392   0.50000   0.19595   0.00000  Uiso   1.00
O405   O     0.57608   0.50000   0.13739   0.00000  Uiso   1.00
O406   O     0.42392   0.50000   0.11950   0.00000  Uiso   1.00
O407   O     0.57608   0.50000   0.21383   0.00000  Uiso   1.00
O408   O     0.66233   0.53845   0.12090   0.00000  Uiso   1.00
Zn409  Zn    0.50000   0.49999   0.21771   0.00000  Uiso   1.00
Zn410  Zn    0.50000   0.50001   0.11563   0.00000  Uiso   1.00
C411   C     0.83589   0.42034   0.16767   0.00000  Uiso   1.00
C412   C     0.83409   0.35161   0.20762   0.00000  Uiso   1.00
C413   C     0.82795   0.62400   0.16448   0.00000  Uiso   1.00
C414   C     0.83907   0.37606   0.16888   0.00000  Uiso   1.00
C415   C     0.87250   0.52128   0.02597   0.00000  Uiso   1.00
C416   C     0.79395   0.47878   0.30656   0.00000  Uiso   1.00
C417   C     0.87337   0.52018   0.31203   0.00000  Uiso   1.00
C418   C     0.79330   0.47933   0.02126   0.00000  Uiso   1.00
C419   C     0.82444   0.63203   0.08125   0.00000  Uiso   1.00
C420   C     0.86409   0.63758   0.05317   0.00000  Uiso   1.00
C421   C     0.85502   0.62387   0.01020   0.00000  Uiso   1.00
C422   C     0.83087   0.57968   0.16567   0.00000  Uiso   1.00
C423   C     0.80698   0.60299   0.32882   0.00000  Uiso   1.00
C424   C     0.76705   0.59795   0.02338   0.00000  Uiso   1.00
C425   C     0.77543   0.61305   0.06603   0.00000  Uiso   1.00
C426   C     0.84233   0.36810   0.25208   0.00000  Uiso   1.00
C427   C     0.89135   0.38686   0.26764   0.00000  Uiso   1.00
C428   C     0.89932   0.40214   0.31023   0.00000  Uiso   1.00
C429   C     0.85894   0.39754   0.00436   0.00000  Uiso   1.00
C430   C     0.81082   0.37699   0.32259   0.00000  Uiso   1.00
C431   C     0.80220   0.36306   0.27970   0.00000  Uiso   1.00
C432   C     0.91951   0.54031   0.29184   0.00000  Uiso   1.00
C433   C     0.73468   0.50170   0.15568   0.00000  Uiso   1.00
C434   C     0.96514   0.52004   0.29311   0.00000  Uiso   1.00
C435   C     0.67589   0.53910   0.27487   0.00000  Uiso   1.00
C436   C     0.67453   0.57830   0.25452   0.00000  Uiso   1.00
C437   C     0.96213   0.59826   0.25193   0.00000  Uiso   1.00
C438   C     0.91837   0.57914   0.27028   0.00000  Uiso   1.00
C439   C     0.74722   0.45979   0.04211   0.00000  Uiso   1.00
C440   C     0.74789   0.42096   0.06378   0.00000  Uiso   1.00
C441   C     0.70390   0.40223   0.08212   0.00000  Uiso   1.00
C442   C     0.99172   0.42250   0.07929   0.00000  Uiso   1.00
C443   C     0.99078   0.46162   0.05870   0.00000  Uiso   1.00
C444   C     0.93200   0.49834   0.17766   0.00000  Uiso   1.00
C445   C     0.70175   0.48032   0.04050   0.00000  Uiso   1.00
C446   C     0.68140   0.50936   0.15176   0.00000  Uiso   1.00
C447   C     0.98529   0.49072   0.18160   0.00000  Uiso   1.00
C448   C     0.84165   0.35728   0.12882   0.00000  Uiso   1.00
C449   C     0.82546   0.64279   0.20454   0.00000  Uiso   1.00
C450   C     0.83301   0.64846   0.12573   0.00000  Uiso   1.00
H451   H     0.84872   0.37538   0.09922   0.00000  Uiso   1.00
H452   H     0.92303   0.38957   0.24671   0.00000  Uiso   1.00
H453   H     0.93688   0.41697   0.32200   0.00000  Uiso   1.00
H454   H     0.86547   0.40970   0.03716   0.00000  Uiso   1.00
H455   H     0.78004   0.37014   0.01033   0.00000  Uiso   1.00
H456   H     0.76474   0.34746   0.26838   0.00000  Uiso   1.00
H457   H     0.89943   0.55060   0.07815   0.00000  Uiso   1.00
H458   H     0.73207   0.43957   0.29813   0.00000  Uiso   1.00
H459   H     0.96540   0.48868   0.30601   0.00000  Uiso   1.00
H460   H     0.71090   0.52335   0.27585   0.00000  Uiso   1.00
H461   H     0.70855   0.59285   0.24023   0.00000  Uiso   1.00
H462   H     0.81825   0.62472   0.23412   0.00000  Uiso   1.00
H463   H     0.96034   0.62835   0.23542   0.00000  Uiso   1.00
H464   H     0.88326   0.59422   0.26675   0.00000  Uiso   1.00
H465   H     0.78268   0.40543   0.06723   0.00000  Uiso   1.00
H466   H     0.70531   0.37216   0.09871   0.00000  Uiso   1.00
H467   H     0.95753   0.40824   0.09354   0.00000  Uiso   1.00
H468   H     0.95592   0.47761   0.05751   0.00000  Uiso   1.00
H469   H     0.70177   0.51158   0.02729   0.00000  Uiso   1.00
H470   H     0.69069   0.54980   0.10312   0.00000  Uiso   1.00
H471   H     0.97596   0.45019   0.23017   0.00000  Uiso   1.00
H472   H     0.90149   0.65346   0.06418   0.00000  Uiso   1.00
H473   H     0.88530   0.63127   0.32207   0.00000  Uiso   1.00
H474   H     0.80010   0.59098   0.29596   0.00000  Uiso   1.00
H475   H     0.72948   0.58298   0.01188   0.00000  Uiso   1.00
H476   H     0.74405   0.61005   0.08729   0.00000  Uiso   1.00
N477   N     0.83332   0.49999   0.28573   0.00000  Uiso   1.00
N478   N     0.83335   0.50001   0.04760   0.00000  Uiso   1.00
O479   O     0.83333   0.43892   0.20487   0.00000  Uiso   1.00
O480   O     0.67101   0.46160   0.21243   0.00000  Uiso   1.00
O481   O     0.91136   0.54553   0.04916   0.00000  Uiso   1.00
O482   O     0.75611   0.45639   0.27989   0.00000  Uiso   1.00
O483   O     0.83334   0.56108   0.12846   0.00000  Uiso   1.00
O484   O     0.83333   0.43893   0.12843   0.00000  Uiso   1.00
O485   O     0.83334   0.56107   0.20490   0.00000  Uiso   1.00
O486   O     0.75725   0.50000   0.19595   0.00000  Uiso   1.00
O487   O     0.90942   0.50000   0.13739   0.00000  Uiso   1.00
O488   O     0.75725   0.50000   0.11950   0.00000  Uiso   1.00
O489   O     0.90942   0.50000   0.21383   0.00000  Uiso   1.00
O490   O     0.99566   0.53845   0.12090   0.00000  Uiso   1.00
Zn491  Zn    0.83333   0.49999   0.21771   0.00000  Uiso   1.00
Zn492  Zn    0.83333   0.50001   0.11563   0.00000  Uiso   1.00
C493   C     0.16923   0.75367   0.16767   0.00000  Uiso   1.00
C494   C     0.16743   0.68494   0.20762   0.00000  Uiso   1.00
C495   C     0.16129   0.95733   0.16448   0.00000  Uiso   1.00
C496   C     0.17240   0.70939   0.16888   0.00000  Uiso   1.00
C497   C     0.20583   0.85461   0.02597   0.00000  Uiso   1.00
C498   C     0.12729   0.81211   0.30656   0.00000  Uiso   1.00
C499   C     0.20670   0.85351   0.31203   0.00000  Uiso   1.00
C500   C     0.12663   0.81267   0.02126   0.00000  Uiso   1.00
C501   C     0.15777   0.96536   0.08125   0.00000  Uiso   1.00
C502   C     0.19742   0.97092   0.05317   0.00000  Uiso   1.00
C503   C     0.18836   0.95720   0.01020   0.00000  Uiso   1.00
C504   C     0.16420   0.91302   0.16567   0.00000  Uiso   1.00
C505   C     0.14031   0.93633   0.32882   0.00000  Uiso   1.00
C506   C     0.10039   0.93129   0.02338   0.00000  Uiso   1.00
C507   C     0.10876   0.94638   0.06603   0.00000  Uiso   1.00
C508   C     0.17567   0.70143   0.25208   0.00000  Uiso   1.00
C509   C     0.22468   0.72019   0.26764   0.00000  Uiso   1.00
C510   C     0.23265   0.73547   0.31023   0.00000  Uiso   1.00
C511   C     0.19227   0.73087   0.00436   0.00000  Uiso   1.00
C512   C     0.14415   0.71032   0.32259   0.00000  Uiso   1.00
C513   C     0.13553   0.69640   0.27970   0.00000  Uiso   1.00
C514   C     0.25284   0.87365   0.29184   0.00000  Uiso   1.00
C515   C     0.06801   0.83503   0.15568   0.00000  Uiso   1.00
C516   C     0.29847   0.85337   0.29311   0.00000  Uiso   1.00
C517   C     0.00922   0.87243   0.27487   0.00000  Uiso   1.00
C518   C     0.00786   0.91164   0.25452   0.00000  Uiso   1.00
C519   C     0.29546   0.93160   0.25193   0.00000  Uiso   1.00
C520   C     0.25170   0.91247   0.27028   0.00000  Uiso   1.00
C521   C     0.08056   0.79312   0.04211   0.00000  Uiso   1.00
C522   C     0.08122   0.75429   0.06378   0.00000  Uiso   1.00
C523   C     0.03723   0.73557   0.08212   0.00000  Uiso   1.00
C524   C     0.32506   0.75583   0.07929   0.00000  Uiso   1.00
C525   C     0.32411   0.79495   0.05870   0.00000  Uiso   1.00
C526   C     0.26533   0.83167   0.17766   0.00000  Uiso   1.00
C527   C     0.03508   0.81365   0.04050   0.00000  Uiso   1.00
C528   C     0.01473   0.84269   0.15176   0.00000  Uiso   1.00
C529   C     0.31862   0.82405   0.18160   0.00000  Uiso   1.00
C530   C     0.17498   0.69062   0.12882   0.00000  Uiso   1.00
C531   C     0.15879   0.97612   0.20454   0.00000  Uiso   1.00
C532   C     0.16634   0.98179   0.12573   0.00000  Uiso   1.00
H533   H     0.18205   0.70872   0.09922   0.00000  Uiso   1.00
H534   H     0.25637   0.72290   0.24671   0.00000  Uiso   1.00
H535   H     0.27022   0.75030   0.32200   0.00000  Uiso   1.00
H536   H     0.19880   0.74304   0.03716   0.00000  Uiso   1.00
H537   H     0.11338   0.70347   0.01033   0.00000  Uiso   1.00
H538   H     0.09807   0.68079   0.26838   0.00000  Uiso   1.00
H539   H     0.23276   0.88394   0.07815   0.00000  Uiso   1.00
H540   H     0.06540   0.77290   0.29813   0.00000  Uiso   1.00
H541   H     0.29873   0.82201   0.30601   0.00000  Uiso   1.00
H542   H     0.04424   0.85668   0.27585   0.00000  Uiso   1.00
H543   H     0.04188   0.92618   0.24023   0.00000  Uiso   1.00
H544   H     0.15159   0.95806   0.23412   0.00000  Uiso   1.00
H545   H     0.29367   0.96168   0.23542   0.00000  Uiso   1.00
H546   H     0.21659   0.92755   0.26675   0.00000  Uiso   1.00
H547   H     0.11602   0.73877   0.06723   0.00000  Uiso   1.00
H548   H     0.03864   0.70549   0.09871   0.00000  Uiso   1.00
H549   H     0.29087   0.74157   0.09354   0.00000  Uiso   1.00
H550   H     0.28925   0.81095   0.05751   0.00000  Uiso   1.00
H551   H     0.03510   0.84491   0.02729   0.00000  Uiso   1.00
H552   H     0.02403   0.88313   0.10312   0.00000  Uiso   1.00
H553   H     0.30929   0.78353   0.23017   0.00000  Uiso   1.00
H554   H     0.23482   0.98679   0.06418   0.00000  Uiso   1.00
H555   H     0.21864   0.96461   0.32207   0.00000  Uiso   1.00
H556   H     0.13343   0.92432   0.29596   0.00000  Uiso   1.00
H557   H     0.06281   0.91631   0.01188   0.00000  Uiso   1.00
H558   H     0.07738   0.94338   0.08729   0.00000  Uiso   1.00
N559   N     0.16665   0.83332   0.28573   0.00000  Uiso   1.00
N560   N     0.16668   0.83334   0.04760   0.00000  Uiso   1.00
O561   O     0.16666   0.77225   0.20487   0.00000  Uiso   1.00
O562   O     0.00434   0.79493   0.21243   0.00000  Uiso   1.00
O563   O     0.24470   0.87887   0.04916   0.00000  Uiso   1.00
O564   O     0.08945   0.78972   0.27989   0.00000  Uiso   1.00
O565   O     0.16667   0.89442   0.12846   0.00000  Uiso   1.00
O566   O     0.16666   0.77226   0.12843   0.00000  Uiso   1.00
O567   O     0.16667   0.89441   0.20490   0.00000  Uiso   1.00
O568   O     0.09058   0.83333   0.19595   0.00000  Uiso   1.00
O569   O     0.24275   0.83334   0.13739   0.00000  Uiso   1.00
O570   O     0.09058   0.83334   0.11950   0.00000  Uiso   1.00
O571   O     0.24275   0.83333   0.21383   0.00000  Uiso   1.00
O572   O     0.32900   0.87178   0.12090   0.00000  Uiso   1.00
Zn573  Zn    0.16667   0.83333   0.21771   0.00000  Uiso   1.00
Zn574  Zn    0.16667   0.83334   0.11563   0.00000  Uiso   1.00
C575   C     0.50256   0.75367   0.16767   0.00000  Uiso   1.00
C576   C     0.50076   0.68494   0.20762   0.00000  Uiso   1.00
C577   C     0.49462   0.95733   0.16448   0.00000  Uiso   1.00
C578   C     0.50574   0.70939   0.16888   0.00000  Uiso   1.00
C579   C     0.53916   0.85461   0.02597   0.00000  Uiso   1.00
C580   C     0.46062   0.81211   0.30656   0.00000  Uiso   1.00
C581   C     0.54003   0.85351   0.31203   0.00000  Uiso   1.00
C582   C     0.45997   0.81267   0.02126   0.00000  Uiso   1.00
C583   C     0.49111   0.96536   0.08125   0.00000  Uiso   1.00
C584   C     0.53076   0.97092   0.05317   0.00000  Uiso   1.00
C585   C     0.52169   0.95720   0.01020   0.00000  Uiso   1.00
C586   C     0.49754   0.91302   0.16567   0.00000  Uiso   1.00
C587   C     0.47365   0.93633   0.32882   0.00000  Uiso   1.00
C588   C     0.43372   0.93129   0.02338   0.00000  Uiso   1.00
C589   C     0.44210   0.94638   0.06603   0.00000  Uiso   1.00
C590   C     0.50900   0.70143   0.25208   0.00000  Uiso   1.00
C591   C     0.55801   0.72019   0.26764   0.00000  Uiso   1.00
C592   C     0.56598   0.73547   0.31023   0.00000  Uiso   1.00
C593   C     0.52560   0.73087   0.00436   0.00000  Uiso   1.00
C594   C     0.47749   0.71032   0.32259   0.00000  Uiso   1.00
C595   C     0.46887   0.69640   0.27970   0.00000  Uiso   1.00
C596   C     0.58618   0.87365   0.29184   0.00000  Uiso   1.00
C597   C     0.40134   0.83503   0.15568   0.00000  Uiso   1.00
C598   C     0.63180   0.85337   0.29311   0.00000  Uiso   1.00
C599   C     0.34255   0.87243   0.27487   0.00000  Uiso   1.00
C600   C     0.34119   0.91164   0.25452   0.00000  Uiso   1.00
C601   C     0.62880   0.93160   0.25193   0.00000  Uiso   1.00
C602   C     0.58504   0.91247   0.27028   0.00000  Uiso   1.00
C603   C     0.41389   0.79312   0.04211   0.00000  Uiso   1.00
C604   C     0.41456   0.75429   0.06378   0.00000  Uiso   1.00
C605   C     0.37057   0.73557   0.08212   0.00000  Uiso   1.00
C606   C     0.65839   0.75583   0.07929   0.00000  Uiso   1.00
C607   C     0.65744   0.79495   0.05870   0.00000  Uiso   1.00
C608   C     0.59866   0.83167   0.17766   0.00000  Uiso   1.00
C609   C     0.36842   0.81365   0.04050   0.00000  Uiso   1.00
C610   C     0.34806   0.84269   0.15176   0.00000  Uiso   1.00
C611   C     0.65195   0.82405   0.18160   0.00000  Uiso   1.00
C612   C     0.50832   0.69062   0.12882   0.00000  Uiso   1.00
C613   C     0.49213   0.97612   0.20454   0.00000  Uiso   1.00
C614   C     0.49967   0.98179   0.12573   0.00000  Uiso   1.00
H615   H     0.51539   0.70872   0.09922   0.00000  Uiso   1.00
H616   H     0.58970   0.72290   0.24671   0.00000  Uiso   1.00
H617   H     0.60355   0.75030   0.32200   0.00000  Uiso   1.00
H618   H     0.53213   0.74304   0.03716   0.00000  Uiso   1.00
H619   H     0.44671   0.70347   0.01033   0.00000  Uiso   1.00
H620   H     0.43140   0.68079   0.26838   0.00000  Uiso   1.00
H621   H     0.56610   0.88394   0.07815   0.00000  Uiso   1.00
H622   H     0.39873   0.77290   0.29813   0.00000  Uiso   1.00
H623   H     0.63206   0.82201   0.30601   0.00000  Uiso   1.00
H624   H     0.37757   0.85668   0.27585   0.00000  Uiso   1.00
H625   H     0.37521   0.92618   0.24023   0.00000  Uiso   1.00
H626   H     0.48492   0.95806   0.23412   0.00000  Uiso   1.00
H627   H     0.62701   0.96168   0.23542   0.00000  Uiso   1.00
H628   H     0.54992   0.92755   0.26675   0.00000  Uiso   1.00
H629   H     0.44935   0.73877   0.06723   0.00000  Uiso   1.00
H630   H     0.37197   0.70549   0.09871   0.00000  Uiso   1.00
H631   H     0.62420   0.74157   0.09354   0.00000  Uiso   1.00
H632   H     0.62259   0.81095   0.05751   0.00000  Uiso   1.00
H633   H     0.36844   0.84491   0.02729   0.00000  Uiso   1.00
H634   H     0.35736   0.88313   0.10312   0.00000  Uiso   1.00
H635   H     0.64262   0.78353   0.23017   0.00000  Uiso   1.00
H636   H     0.56815   0.98679   0.06418   0.00000  Uiso   1.00
H637   H     0.55197   0.96461   0.32207   0.00000  Uiso   1.00
H638   H     0.46676   0.92432   0.29596   0.00000  Uiso   1.00
H639   H     0.39615   0.91631   0.01188   0.00000  Uiso   1.00
H640   H     0.41072   0.94338   0.08729   0.00000  Uiso   1.00
N641   N     0.49999   0.83332   0.28573   0.00000  Uiso   1.00
N642   N     0.50001   0.83334   0.04760   0.00000  Uiso   1.00
O643   O     0.50000   0.77225   0.20487   0.00000  Uiso   1.00
O644   O     0.33768   0.79493   0.21243   0.00000  Uiso   1.00
O645   O     0.57803   0.87887   0.04916   0.00000  Uiso   1.00
O646   O     0.42278   0.78972   0.27989   0.00000  Uiso   1.00
O647   O     0.50000   0.89442   0.12846   0.00000  Uiso   1.00
O648   O     0.50000   0.77226   0.12843   0.00000  Uiso   1.00
O649   O     0.50000   0.89441   0.20490   0.00000  Uiso   1.00
O650   O     0.42392   0.83333   0.19595   0.00000  Uiso   1.00
O651   O     0.57608   0.83334   0.13739   0.00000  Uiso   1.00
O652   O     0.42392   0.83334   0.11950   0.00000  Uiso   1.00
O653   O     0.57608   0.83333   0.21383   0.00000  Uiso   1.00
O654   O     0.66233   0.87178   0.12090   0.00000  Uiso   1.00
Zn655  Zn    0.50000   0.83333   0.21771   0.00000  Uiso   1.00
Zn656  Zn    0.50000   0.83334   0.11563   0.00000  Uiso   1.00
C657   C     0.83589   0.75367   0.16767   0.00000  Uiso   1.00
C658   C     0.83409   0.68494   0.20762   0.00000  Uiso   1.00
C659   C     0.82795   0.95733   0.16448   0.00000  Uiso   1.00
C660   C     0.83907   0.70939   0.16888   0.00000  Uiso   1.00
C661   C     0.87250   0.85461   0.02597   0.00000  Uiso   1.00
C662   C     0.79395   0.81211   0.30656   0.00000  Uiso   1.00
C663   C     0.87337   0.85351   0.31203   0.00000  Uiso   1.00
C664   C     0.79330   0.81267   0.02126   0.00000  Uiso   1.00
C665   C     0.82444   0.96536   0.08125   0.00000  Uiso   1.00
C666   C     0.86409   0.97092   0.05317   0.00000  Uiso   1.00
C667   C     0.85502   0.95720   0.01020   0.00000  Uiso   1.00
C668   C     0.83087   0.91302   0.16567   0.00000  Uiso   1.00
C669   C     0.80698   0.93633   0.32882   0.00000  Uiso   1.00
C670   C     0.76705   0.93129   0.02338   0.00000  Uiso   1.00
C671   C     0.77543   0.94638   0.06603   0.00000  Uiso   1.00
C672   C     0.84233   0.70143   0.25208   0.00000  Uiso   1.00
C673   C     0.89135   0.72019   0.26764   0.00000  Uiso   1.00
C674   C     0.89932   0.73547   0.31023   0.00000  Uiso   1.00
C675   C     0.85894   0.73087   0.00436   0.00000  Uiso   1.00
C676   C     0.81082   0.71032   0.32259   0.00000  Uiso   1.00
C677   C     0.80220   0.69640   0.27970   0.00000  Uiso   1.00
C678   C     0.91951   0.87365   0.29184   0.00000  Uiso   1.00
C679   C     0.73468   0.83503   0.15568   0.00000  Uiso   1.00
C680   C     0.96514   0.85337   0.29311   0.00000  Uiso   1.00
C681   C     0.67589   0.87243   0.27487   0.00000  Uiso   1.00
C682   C     0.67453   0.91164   0.25452   0.00000  Uiso   1.00
C683   C     0.96213   0.93160   0.25193   0.00000  Uiso   1.00
C684   C     0.91837   0.91247   0.27028   0.00000  Uiso   1.00
C685   C     0.74722   0.79312   0.04211   0.00000  Uiso   1.00
C686   C     0.74789   0.75429   0.06378   0.00000  Uiso   1.00
C687   C     0.70390   0.73557   0.08212   0.00000  Uiso   1.00
C688   C     0.99172   0.75583   0.07929   0.00000  Uiso   1.00
C689   C     0.99078   0.79495   0.05870   0.00000  Uiso   1.00
C690   C     0.93200   0.83167   0.17766   0.00000  Uiso   1.00
C691   C     0.70175   0.81365   0.04050   0.00000  Uiso   1.00
C692   C     0.68140   0.84269   0.15176   0.00000  Uiso   1.00
C693   C     0.98529   0.82405   0.18160   0.00000  Uiso   1.00
C694   C     0.84165   0.69062   0.12882   0.00000  Uiso   1.00
C695   C     0.82546   0.97612   0.20454   0.00000  Uiso   1.00
C696   C     0.83301   0.98179   0.12573   0.00000  Uiso   1.00
H697   H     0.84872   0.70872   0.09922   0.00000  Uiso   1.00
H698   H     0.92303   0.72290   0.24671   0.00000  Uiso   1.00
H699   H     0.93688   0.75030   0.32200   0.00000  Uiso   1.00
H700   H     0.86547   0.74304   0.03716   0.00000  Uiso   1.00
H701   H     0.78004   0.70347   0.01033   0.00000  Uiso   1.00
H702   H     0.76474   0.68079   0.26838   0.00000  Uiso   1.00
H703   H     0.89943   0.88394   0.07815   0.00000  Uiso   1.00
H704   H     0.73207   0.77290   0.29813   0.00000  Uiso   1.00
H705   H     0.96540   0.82201   0.30601   0.00000  Uiso   1.00
H706   H     0.71090   0.85668   0.27585   0.00000  Uiso   1.00
H707   H     0.70855   0.92618   0.24023   0.00000  Uiso   1.00
H708   H     0.81825   0.95806   0.23412   0.00000  Uiso   1.00
H709   H     0.96034   0.96168   0.23542   0.00000  Uiso   1.00
H710   H     0.88326   0.92755   0.26675   0.00000  Uiso   1.00
H711   H     0.78268   0.73877   0.06723   0.00000  Uiso   1.00
H712   H     0.70531   0.70549   0.09871   0.00000  Uiso   1.00
H713   H     0.95753   0.74157   0.09354   0.00000  Uiso   1.00
H714   H     0.95592   0.81095   0.05751   0.00000  Uiso   1.00
H715   H     0.70177   0.84491   0.02729   0.00000  Uiso   1.00
H716   H     0.69069   0.88313   0.10312   0.00000  Uiso   1.00
H717   H     0.97596   0.78353   0.23017   0.00000  Uiso   1.00
H718   H     0.90149   0.98679   0.06418   0.00000  Uiso   1.00
H719   H     0.88530   0.96461   0.32207   0.00000  Uiso   1.00
H720   H     0.80010   0.92432   0.29596   0.00000  Uiso   1.00
H721   H     0.72948   0.91631   0.01188   0.00000  Uiso   1.00
H722   H     0.74405   0.94338   0.08729   0.00000  Uiso   1.00
N723   N     0.83332   0.83332   0.28573   0.00000  Uiso   1.00
N724   N     0.83335   0.83334   0.04760   0.00000  Uiso   1.00
O725   O     0.83333   0.77225   0.20487   0.00000  Uiso   1.00
O726   O     0.67101   0.79493   0.21243   0.00000  Uiso   1.00
O727   O     0.91136   0.87887   0.04916   0.00000  Uiso   1.00
O728   O     0.75611   0.78972   0.27989   0.00000  Uiso   1.00
O729   O     0.83334   0.89442   0.12846   0.00000  Uiso   1.00
O730   O     0.83333   0.77226   0.12843   0.00000  Uiso   1.00
O731   O     0.83334   0.89441   0.20490   0.00000  Uiso   1.00
O732   O     0.75725   0.83333   0.19595   0.00000  Uiso   1.00
O733   O     0.90942   0.83334   0.13739   0.00000  Uiso   1.00
O734   O     0.75725   0.83334   0.11950   0.00000  Uiso   1.00
O735   O     0.90942   0.83333   0.21383   0.00000  Uiso   1.00
O736   O     0.99566   0.87178   0.12090   0.00000  Uiso   1.00
Zn737  Zn    0.83333   0.83333   0.21771   0.00000  Uiso   1.00
Zn738  Zn    0.83333   0.83334   0.11563   0.00000  Uiso   1.00
C739   C     0.16923   0.08700   0.50100   0.00000  Uiso   1.00
C740   C     0.16743   0.01827   0.54096   0.00000  Uiso   1.00
C741   C     0.16129   0.29067   0.49781   0.00000  Uiso   1.00
C742   C     0.17240   0.04272   0.50221   0.00000  Uiso   1.00
C743   C     0.20583   0.18795   0.35930   0.00000  Uiso   1.00
C744   C     0.12729   0.14545   0.63990   0.00000  Uiso   1.00
C745   C     0.20670   0.18685   0.64537   0.00000  Uiso   1.00
C746   C     0.12663   0.14600   0.35459   0.00000  Uiso   1.00
C747   C     0.15777   0.29869   0.41458   0.00000  Uiso   1.00
C748   C     0.19742   0.30425   0.38650   0.00000  Uiso   1.00
C749   C     0.18836   0.29054   0.34354   0.00000  Uiso   1.00
C750   C     0.16420   0.24635   0.49900   0.00000  Uiso   1.00
C751   C     0.14031   0.26966   0.66216   0.00000  Uiso   1.00
C752   C     0.10039   0.26462   0.35672   0.00000  Uiso   1.00
C753   C     0.10876   0.27972   0.39937   0.00000  Uiso   1.00
C754   C     0.17567   0.03476   0.58542   0.00000  Uiso   1.00
C755   C     0.22468   0.05352   0.60097   0.00000  Uiso   1.00
C756   C     0.23265   0.06880   0.64356   0.00000  Uiso   1.00
C757   C     0.19227   0.06420   0.33769   0.00000  Uiso   1.00
C758   C     0.14415   0.04366   0.65593   0.00000  Uiso   1.00
C759   C     0.13553   0.02973   0.61303   0.00000  Uiso   1.00
C760   C     0.25284   0.20698   0.62517   0.00000  Uiso   1.00
C761   C     0.06801   0.16837   0.48901   0.00000  Uiso   1.00
C762   C     0.29847   0.18671   0.62645   0.00000  Uiso   1.00
C763   C     0.00922   0.20577   0.60820   0.00000  Uiso   1.00
C764   C     0.00786   0.24497   0.58786   0.00000  Uiso   1.00
C765   C     0.29546   0.26493   0.58526   0.00000  Uiso   1.00
C766   C     0.25170   0.24581   0.60362   0.00000  Uiso   1.00
C767   C     0.08056   0.12646   0.37544   0.00000  Uiso   1.00
C768   C     0.08122   0.08763   0.39711   0.00000  Uiso   1.00
C769   C     0.03723   0.06890   0.41545   0.00000  Uiso   1.00
C770   C     0.32506   0.08917   0.41262   0.00000  Uiso   1.00
C771   C     0.32411   0.12829   0.39203   0.00000  Uiso   1.00
C772   C     0.26533   0.16500   0.51099   0.00000  Uiso   1.00
C773   C     0.03508   0.14698   0.37384   0.00000  Uiso   1.00
C774   C     0.01473   0.17602   0.48509   0.00000  Uiso   1.00
C775   C     0.31862   0.15738   0.51493   0.00000  Uiso   1.00
C776   C     0.17498   0.02395   0.46215   0.00000  Uiso   1.00
C777   C     0.15879   0.30946   0.53787   0.00000  Uiso   1.00
C778   C     0.16634   0.31512   0.45906   0.00000  Uiso   1.00
H779   H     0.18205   0.04205   0.43255   0.00000  Uiso   1.00
H780   H     0.25637   0.05624   0.58004   0.00000  Uiso   1.00
H781   H     0.27022   0.08364   0.65533   0.00000  Uiso   1.00
H782   H     0.19880   0.07637   0.37050   0.00000  Uiso   1.00
H783   H     0.11338   0.03680   0.34366   0.00000  Uiso   1.00
H784   H     0.09807   0.01413   0.60171   0.00000  Uiso   1.00
H785   H     0.23276   0.21727   0.41148   0.00000  Uiso   1.00
H786   H     0.06540   0.10624   0.63146   0.00000  Uiso   1.00
H787   H     0.29873   0.15535   0.63935   0.00000  Uiso   1.00
H788   H     0.04424   0.19001   0.60919   0.00000  Uiso   1.00
H789   H     0.04188   0.25951   0.57356   0.00000  Uiso   1.00
H790   H     0.15159   0.29139   0.56745   0.00000  Uiso   1.00
H791   H     0.29367   0.29502   0.56875   0.00000  Uiso   1.00
H792   H     0.21659   0.26089   0.60008   0.00000  Uiso   1.00
H793   H     0.11602   0.07210   0.40056   0.00000  Uiso   1.00
H794   H     0.03864   0.03882   0.43204   0.00000  Uiso   1.00
H795   H     0.29087   0.07490   0.42688   0.00000  Uiso   1.00
H796   H     0.28925   0.14428   0.39084   0.00000  Uiso   1.00
H797   H     0.03510   0.17824   0.36062   0.00000  Uiso   1.00
H798   H     0.02403   0.21647   0.43645   0.00000  Uiso   1.00
H799   H     0.30929   0.11686   0.56350   0.00000  Uiso   1.00
H800   H     0.23482   0.32013   0.39751   0.00000  Uiso   1.00
H801   H     0.21864   0.29794   0.65541   0.00000  Uiso   1.00
H802   H     0.13343   0.25765   0.62929   0.00000  Uiso   1.00
H803   H     0.06281   0.24965   0.34521   0.00000  Uiso   1.00
H804   H     0.07738   0.27672   0.42062   0.00000  Uiso   1.00
N805   N     0.16665   0.16666   0.61907   0.00000  Uiso   1.00
N806   N     0.16668   0.16668   0.38093   0.00000  Uiso   1.00
O807   O     0.16666   0.10558   0.53821   0.00000  Uiso   1.00
O808   O     0.00434   0.12827   0.54577   0.00000  Uiso   1.00
O809   O     0.24470   0.21220   0.38250   0.00000  Uiso   1.00
O810   O     0.08945   0.12305   0.61322   0.00000  Uiso   1.00
O811   O     0.16667   0.22775   0.46179   0.00000  Uiso   1.00
O812   O     0.16666   0.10559   0.46176   0.00000  Uiso   1.00
O813   O     0.16667   0.22774   0.53824   0.00000  Uiso   1.00
O814   O     0.09058   0.16666   0.52928   0.00000  Uiso   1.00
O815   O     0.24275   0.16667   0.47072   0.00000  Uiso   1.00
O816   O     0.09058   0.16667   0.45284   0.00000  Uiso   1.00
O817   O     0.24275   0.16666   0.54716   0.00000  Uiso   1.00
O818   O     0.32900   0.20512   0.45424   0.00000  Uiso   1.00
Zn819  Zn    0.16667   0.16666   0.55104   0.00000  Uiso   1.00
Zn820  Zn    0.16667   0.16667   0.44896   0.00000  Uiso   1.00
C821   C     0.50256   0.08700   0.50100   0.00000  Uiso   1.00
C822   C     0.50076   0.01827   0.54096   0.00000  Uiso   1.00
C823   C     0.49462   0.29067   0.49781   0.00000  Uiso   1.00
C824   C     0.50574   0.04272   0.50221   0.00000  Uiso   1.00
C825   C     0.53916   0.18795   0.35930   0.00000  Uiso   1.00
C826   C     0.46062   0.14545   0.63990   0.00000  Uiso   1.00
C827   C     0.54003   0.18685   0.64537   0.00000  Uiso   1.00
C828   C     0.45997   0.14600   0.35459   0.00000  Uiso   1.00
C829   C     0.49111   0.29869   0.41458   0.00000  Uiso   1.00
C830   C     0.53076   0.30425   0.38650   0.00000  Uiso   1.00
C831   C     0.52169   0.29054   0.34354   0.00000  Uiso   1.00
C832   C     0.49754   0.24635   0.49900   0.00000  Uiso   1.00
C833   C     0.47365   0.26966   0.66216   0.00000  Uiso   1.00
C834   C     0.43372   0.26462   0.35672   0.00000  Uiso   1.00
C835   C     0.44210   0.27972   0.39937   0.00000  Uiso   1.00
C836   C     0.50900   0.03476   0.58542   0.00000  Uiso   1.00
C837   C     0.55801   0.05352   0.60097   0.00000  Uiso   1.00
C838   C     0.56598   0.06880   0.64356   0.00000  Uiso   1.00
C839   C     0.52560   0.06420   0.33769   0.00000  Uiso   1.00
C840   C     0.47749   0.04366   0.65593   0.00000  Uiso   1.00
C841   C     0.46887   0.02973   0.61303   0.00000  Uiso   1.00
C842   C     0.58618   0.20698   0.62517   0.00000  Uiso   1.00
C843   C     0.40134   0.16837   0.48901   0.00000  Uiso   1.00
C844   C     0.63180   0.18671   0.62645   0.00000  Uiso   1.00
C845   C     0.34255   0.20577   0.60820   0.00000  Uiso   1.00
C846   C     0.34119   0.24497   0.58786   0.00000  Uiso   1.00
C847   C     0.62880   0.26493   0.58526   0.00000  Uiso   1.00
C848   C     0.58504   0.24581   0.60362   0.00000  Uiso   1.00
C849   C     0.41389   0.12646   0.37544   0.00000  Uiso   1.00
C850   C     0.41456   0.08763   0.39711   0.00000  Uiso   1.00
C851   C     0.37057   0.06890   0.41545   0.00000  Uiso   1.00
C852   C     0.65839   0.08917   0.41262   0.00000  Uiso   1.00
C853   C     0.65744   0.12829   0.39203   0.00000  Uiso   1.00
C854   C     0.59866   0.16500   0.51099   0.00000  Uiso   1.00
C855   C     0.36842   0.14698   0.37384   0.00000  Uiso   1.00
C856   C     0.34806   0.17602   0.48509   0.00000  Uiso   1.00
C857   C     0.65195   0.15738   0.51493   0.00000  Uiso   1.00
C858   C     0.50832   0.02395   0.46215   0.00000  Uiso   1.00
C859   C     0.49213   0.30946   0.53787   0.00000  Uiso   1.00
C860   C     0.49967   0.31512   0.45906   0.00000  Uiso   1.00
H861   H     0.51539   0.04205   0.43255   0.00000  Uiso   1.00
H862   H     0.58970   0.05624   0.58004   0.00000  Uiso   1.00
H863   H     0.60355   0.08364   0.65533   0.00000  Uiso   1.00
H864   H     0.53213   0.07637   0.37050   0.00000  Uiso   1.00
H865   H     0.44671   0.03680   0.34366   0.00000  Uiso   1.00
H866   H     0.43140   0.01413   0.60171   0.00000  Uiso   1.00
H867   H     0.56610   0.21727   0.41148   0.00000  Uiso   1.00
H868   H     0.39873   0.10624   0.63146   0.00000  Uiso   1.00
H869   H     0.63206   0.15535   0.63935   0.00000  Uiso   1.00
H870   H     0.37757   0.19001   0.60919   0.00000  Uiso   1.00
H871   H     0.37521   0.25951   0.57356   0.00000  Uiso   1.00
H872   H     0.48492   0.29139   0.56745   0.00000  Uiso   1.00
H873   H     0.62701   0.29502   0.56875   0.00000  Uiso   1.00
H874   H     0.54992   0.26089   0.60008   0.00000  Uiso   1.00
H875   H     0.44935   0.07210   0.40056   0.00000  Uiso   1.00
H876   H     0.37197   0.03882   0.43204   0.00000  Uiso   1.00
H877   H     0.62420   0.07490   0.42688   0.00000  Uiso   1.00
H878   H     0.62259   0.14428   0.39084   0.00000  Uiso   1.00
H879   H     0.36844   0.17824   0.36062   0.00000  Uiso   1.00
H880   H     0.35736   0.21647   0.43645   0.00000  Uiso   1.00
H881   H     0.64262   0.11686   0.56350   0.00000  Uiso   1.00
H882   H     0.56815   0.32013   0.39751   0.00000  Uiso   1.00
H883   H     0.55197   0.29794   0.65541   0.00000  Uiso   1.00
H884   H     0.46676   0.25765   0.62929   0.00000  Uiso   1.00
H885   H     0.39615   0.24965   0.34521   0.00000  Uiso   1.00
H886   H     0.41072   0.27672   0.42062   0.00000  Uiso   1.00
N887   N     0.49999   0.16666   0.61907   0.00000  Uiso   1.00
N888   N     0.50001   0.16668   0.38093   0.00000  Uiso   1.00
O889   O     0.50000   0.10558   0.53821   0.00000  Uiso   1.00
O890   O     0.33768   0.12827   0.54577   0.00000  Uiso   1.00
O891   O     0.57803   0.21220   0.38250   0.00000  Uiso   1.00
O892   O     0.42278   0.12305   0.61322   0.00000  Uiso   1.00
O893   O     0.50000   0.22775   0.46179   0.00000  Uiso   1.00
O894   O     0.50000   0.10559   0.46176   0.00000  Uiso   1.00
O895   O     0.50000   0.22774   0.53824   0.00000  Uiso   1.00
O896   O     0.42392   0.16666   0.52928   0.00000  Uiso   1.00
O897   O     0.57608   0.16667   0.47072   0.00000  Uiso   1.00
O898   O     0.42392   0.16667   0.45284   0.00000  Uiso   1.00
O899   O     0.57608   0.16666   0.54716   0.00000  Uiso   1.00
O900   O     0.66233   0.20512   0.45424   0.00000  Uiso   1.00
Zn901  Zn    0.50000   0.16666   0.55104   0.00000  Uiso   1.00
Zn902  Zn    0.50000   0.16667   0.44896   0.00000  Uiso   1.00
C903   C     0.83589   0.08700   0.50100   0.00000  Uiso   1.00
C904   C     0.83409   0.01827   0.54096   0.00000  Uiso   1.00
C905   C     0.82795   0.29067   0.49781   0.00000  Uiso   1.00
C906   C     0.83907   0.04272   0.50221   0.00000  Uiso   1.00
C907   C     0.87250   0.18795   0.35930   0.00000  Uiso   1.00
C908   C     0.79395   0.14545   0.63990   0.00000  Uiso   1.00
C909   C     0.87337   0.18685   0.64537   0.00000  Uiso   1.00
C910   C     0.79330   0.14600   0.35459   0.00000  Uiso   1.00
C911   C     0.82444   0.29869   0.41458   0.00000  Uiso   1.00
C912   C     0.86409   0.30425   0.38650   0.00000  Uiso   1.00
C913   C     0.85502   0.29054   0.34354   0.00000  Uiso   1.00
C914   C     0.83087   0.24635   0.49900   0.00000  Uiso   1.00
C915   C     0.80698   0.26966   0.66216   0.00000  Uiso   1.00
C916   C     0.76705   0.26462   0.35672   0.00000  Uiso   1.00
C917   C     0.77543   0.27972   0.39937   0.00000  Uiso   1.00
C918   C     0.84233   0.03476   0.58542   0.00000  Uiso   1.00
C919   C     0.89135   0.05352   0.60097   0.00000  Uiso   1.00
C920   C     0.89932   0.06880   0.64356   0.00000  Uiso   1.00
C921   C     0.85894   0.06420   0.33769   0.00000  Uiso   1.00
C922   C     0.81082   0.04366   0.65593   0.00000  Uiso   1.00
C923   C     0.80220   0.02973   0.61303   0.00000  Uiso   1.00
C924   C     0.91951   0.20698   0.62517   0.00000  Uiso   1.00
C925   C     0.73468   0.16837   0.48901   0.00000  Uiso   1.00
C926   C     0.96514   0.18671   0.62645   0.00000  Uiso   1.00
C927   C     0.67589   0.20577   0.60820   0.00000  Uiso   1.00
C928   C     0.67453   0.24497   0.58786   0.00000  Uiso   1.00
C929   C     0.96213   0.26493   0.58526   0.00000  Uiso   1.00
C930   C     0.91837   0.24581   0.60362   0.00000  Uiso   1.00
C931   C     0.74722   0.12646   0.37544   0.00000  Uiso   1.00
C932   C     0.74789   0.08763   0.39711   0.00000  Uiso   1.00
C933   C     0.70390   0.06890   0.41545   0.00000  Uiso   1.00
C934   C     0.99172   0.08917   0.41262   0.00000  Uiso   1.00
C935   C     0.99078   0.12829   0.39203   0.00000  Uiso   1.00
C936   C     0.93200   0.16500   0.51099   0.00000  Uiso   1.00
C937   C     0.70175   0.14698   0.37384   0.00000  Uiso   1.00
C938   C     0.68140   0.17602   0.48509   0.00000  Uiso   1.00
C939   C     0.98529   0.15738   0.51493   0.00000  Uiso   1.00
C940   C     0.84165   0.02395   0.46215   0.00000  Uiso   1.00
C941   C     0.82546   0.30946   0.53787   0.00000  Uiso   1.00
C942   C     0.83301   0.31512   0.45906   0.00000  Uiso   1.00
H943   H     0.84872   0.04205   0.43255   0.00000  Uiso   1.00
H944   H     0.92303   0.05624   0.58004   0.00000  Uiso   1.00
H945   H     0.93688   0.08364   0.65533   0.00000  Uiso   1.00
H946   H     0.86547   0.07637   0.37050   0.00000  Uiso   1.00
H947   H     0.78004   0.03680   0.34366   0.00000  Uiso   1.00
H948   H     0.76474   0.01413   0.60171   0.00000  Uiso   1.00
H949   H     0.89943   0.21727   0.41148   0.00000  Uiso   1.00
H950   H     0.73207   0.10624   0.63146   0.00000  Uiso   1.00
H951   H     0.96540   0.15535   0.63935   0.00000  Uiso   1.00
H952   H     0.71090   0.19001   0.60919   0.00000  Uiso   1.00
H953   H     0.70855   0.25951   0.57356   0.00000  Uiso   1.00
H954   H     0.81825   0.29139   0.56745   0.00000  Uiso   1.00
H955   H     0.96034   0.29502   0.56875   0.00000  Uiso   1.00
H956   H     0.88326   0.26089   0.60008   0.00000  Uiso   1.00
H957   H     0.78268   0.07210   0.40056   0.00000  Uiso   1.00
H958   H     0.70531   0.03882   0.43204   0.00000  Uiso   1.00
H959   H     0.95753   0.07490   0.42688   0.00000  Uiso   1.00
H960   H     0.95592   0.14428   0.39084   0.00000  Uiso   1.00
H961   H     0.70177   0.17824   0.36062   0.00000  Uiso   1.00
H962   H     0.69069   0.21647   0.43645   0.00000  Uiso   1.00
H963   H     0.97596   0.11686   0.56350   0.00000  Uiso   1.00
H964   H     0.90149   0.32013   0.39751   0.00000  Uiso   1.00
H965   H     0.88530   0.29794   0.65541   0.00000  Uiso   1.00
H966   H     0.80010   0.25765   0.62929   0.00000  Uiso   1.00
H967   H     0.72948   0.24965   0.34521   0.00000  Uiso   1.00
H968   H     0.74405   0.27672   0.42062   0.00000  Uiso   1.00
N969   N     0.83332   0.16666   0.61907   0.00000  Uiso   1.00
N970   N     0.83335   0.16668   0.38093   0.00000  Uiso   1.00
O971   O     0.83333   0.10558   0.53821   0.00000  Uiso   1.00
O972   O     0.67101   0.12827   0.54577   0.00000  Uiso   1.00
O973   O     0.91136   0.21220   0.38250   0.00000  Uiso   1.00
O974   O     0.75611   0.12305   0.61322   0.00000  Uiso   1.00
O975   O     0.83334   0.22775   0.46179   0.00000  Uiso   1.00
O976   O     0.83333   0.10559   0.46176   0.00000  Uiso   1.00
O977   O     0.83334   0.22774   0.53824   0.00000  Uiso   1.00
O978   O     0.75725   0.16666   0.52928   0.00000  Uiso   1.00
O979   O     0.90942   0.16667   0.47072   0.00000  Uiso   1.00
O980   O     0.75725   0.16667   0.45284   0.00000  Uiso   1.00
O981   O     0.90942   0.16666   0.54716   0.00000  Uiso   1.00
O982   O     0.99566   0.20512   0.45424   0.00000  Uiso   1.00
Zn983  Zn    0.83333   0.16666   0.55104   0.00000  Uiso   1.00
Zn984  Zn    0.83333   0.16667   0.44896   0.00000  Uiso   1.00
C985   C     0.16923   0.42034   0.50100   0.00000  Uiso   1.00
C986   C     0.16743   0.35161   0.54096   0.00000  Uiso   1.00
C987   C     0.16129   0.62400   0.49781   0.00000  Uiso   1.00
C988   C     0.17240   0.37606   0.50221   0.00000  Uiso   1.00
C989   C     0.20583   0.52128   0.35930   0.00000  Uiso   1.00
C990   C     0.12729   0.47878   0.63990   0.00000  Uiso   1.00
C991   C     0.20670   0.52018   0.64537   0.00000  Uiso   1.00
C992   C     0.12663   0.47933   0.35459   0.00000  Uiso   1.00
C993   C     0.15777   0.63203   0.41458   0.00000  Uiso   1.00
C994   C     0.19742   0.63758   0.38650   0.00000  Uiso   1.00
C995   C     0.18836   0.62387   0.34354   0.00000  Uiso   1.00
C996   C     0.16420   0.57968   0.49900   0.00000  Uiso   1.00
C997   C     0.14031   0.60299   0.66216   0.00000  Uiso   1.00
C998   C     0.10039   0.59795   0.35672   0.00000  Uiso   1.00
C999   C     0.10876   0.61305   0.39937   0.00000  Uiso   1.00
C1000  C     0.17567   0.36810   0.58542   0.00000  Uiso   1.00
C1001  C     0.22468   0.38686   0.60097   0.00000  Uiso   1.00
C1002  C     0.23265   0.40214   0.64356   0.00000  Uiso   1.00
C1003  C     0.19227   0.39754   0.33769   0.00000  Uiso   1.00
C1004  C     0.14415   0.37699   0.65593   0.00000  Uiso   1.00
C1005  C     0.13553   0.36306   0.61303   0.00000  Uiso   1.00
C1006  C     0.25284   0.54031   0.62517   0.00000  Uiso   1.00
C1007  C     0.06801   0.50170   0.48901   0.00000  Uiso   1.00
C1008  C     0.29847   0.52004   0.62645   0.00000  Uiso   1.00
C1009  C     0.00922   0.53910   0.60820   0.00000  Uiso   1.00
C1010  C     0.00786   0.57830   0.58786   0.00000  Uiso   1.00
C1011  C     0.29546   0.59826   0.58526   0.00000  Uiso   1.00
C1012  C     0.25170   0.57914   0.60362   0.00000  Uiso   1.00
C1013  C     0.08056   0.45979   0.37544   0.00000  Uiso   1.00
C1014  C     0.08122   0.42096   0.39711   0.00000  Uiso   1.00
C1015  C     0.03723   0.40223   0.41545   0.00000  Uiso   1.00
C1016  C     0.32506   0.42250   0.41262   0.00000  Uiso   1.00
C1017  C     0.32411   0.46162   0.39203   0.00000  Uiso   1.00
C1018  C     0.26533   0.49834   0.51099   0.00000  Uiso   1.00
C1019  C     0.03508   0.48032   0.37384   0.00000  Uiso   1.00
C1020  C     0.01473   0.50936   0.48509   0.00000  Uiso   1.00
C1021  C     0.31862   0.49072   0.51493   0.00000  Uiso   1.00
C1022  C     0.17498   0.35728   0.46215   0.00000  Uiso   1.00
C1023  C     0.15879   0.64279   0.53787   0.00000  Uiso   1.00
C1024  C     0.16634   0.64846   0.45906   0.00000  Uiso   1.00
H1025  H     0.18205   0.37538   0.43255   0.00000  Uiso   1.00
H1026  H     0.25637   0.38957   0.58004   0.00000  Uiso   1.00
H1027  H     0.27022   0.41697   0.65533   0.00000  Uiso   1.00
H1028  H     0.19880   0.40970   0.37050   0.00000  Uiso   1.00
H1029  H     0.11338   0.37014   0.34366   0.00000  Uiso   1.00
H1030  H     0.09807   0.34746   0.60171   0.00000  Uiso   1.00
H1031  H     0.23276   0.55060   0.41148   0.00000  Uiso   1.00
H1032  H     0.06540   0.43957   0.63146   0.00000  Uiso   1.00
H1033  H     0.29873   0.48868   0.63935   0.00000  Uiso   1.00
H1034  H     0.04424   0.52335   0.60919   0.00000  Uiso   1.00
H1035  H     0.04188   0.59285   0.57356   0.00000  Uiso   1.00
H1036  H     0.15159   0.62472   0.56745   0.00000  Uiso   1.00
H1037  H     0.29367   0.62835   0.56875   0.00000  Uiso   1.00
H1038  H     0.21659   0.59422   0.60008   0.00000  Uiso   1.00
H1039  H     0.11602   0.40543   0.40056   0.00000  Uiso   1.00
H1040  H     0.03864   0.37216   0.43204   0.00000  Uiso   1.00
H1041  H     0.29087   0.40824   0.42688   0.00000  Uiso   1.00
H1042  H     0.28925   0.47761   0.39084   0.00000  Uiso   1.00
H1043  H     0.03510   0.51158   0.36062   0.00000  Uiso   1.00
H1044  H     0.02403   0.54980   0.43645   0.00000  Uiso   1.00
H1045  H     0.30929   0.45019   0.56350   0.00000  Uiso   1.00
H1046  H     0.23482   0.65346   0.39751   0.00000  Uiso   1.00
H1047  H     0.21864   0.63127   0.65541   0.00000  Uiso   1.00
H1048  H     0.13343   0.59098   0.62929   0.00000  Uiso   1.00
H1049  H     0.06281   0.58298   0.34521   0.00000  Uiso   1.00
H1050  H     0.07738   0.61005   0.42062   0.00000  Uiso   1.00
N1051  N     0.16665   0.49999   0.61907   0.00000  Uiso   1.00
N1052  N     0.16668   0.50001   0.38093   0.00000  Uiso   1.00
O1053  O     0.16666   0.43892   0.53821   0.00000  Uiso   1.00
O1054  O     0.00434   0.46160   0.54577   0.00000  Uiso   1.00
O1055  O     0.24470   0.54553   0.38250   0.00000  Uiso   1.00
O1056  O     0.08945   0.45639   0.61322   0.00000  Uiso   1.00
O1057  O     0.16667   0.56108   0.46179   0.00000  Uiso   1.00
O1058  O     0.16666   0.43893   0.46176   0.00000  Uiso   1.00
O1059  O     0.16667   0.56107   0.53824   0.00000  Uiso   1.00
O1060  O     0.09058   0.50000   0.52928   0.00000  Uiso   1.00
O1061  O     0.24275   0.50000   0.47072   0.00000  Uiso   1.00
O1062  O     0.09058   0.50000   0.45284   0.00000  Uiso   1.00
O1063  O     0.24275   0.50000   0.54716   0.00000  Uiso   1.00
O1064  O     0.32900   0.53845   0.45424   0.00000  Uiso   1.00
Zn1065 Zn    0.16667   0.49999   0.55104   0.00000  Uiso   1.00
Zn1066 Zn    0.16667   0.50001   0.44896   0.00000  Uiso   1.00
C1067  C     0.50256   0.42034   0.50100   0.00000  Uiso   1.00
C1068  C     0.50076   0.35161   0.54096   0.00000  Uiso   1.00
C1069  C     0.49462   0.62400   0.49781   0.00000  Uiso   1.00
C1070  C     0.50574   0.37606   0.50221   0.00000  Uiso   1.00
C1071  C     0.53916   0.52128   0.35930   0.00000  Uiso   1.00
C1072  C     0.46062   0.47878   0.63990   0.00000  Uiso   1.00
C1073  C     0.54003   0.52018   0.64537   0.00000  Uiso   1.00
C1074  C     0.45997   0.47933   0.35459   0.00000  Uiso   1.00
C1075  C     0.49111   0.63203   0.41458   0.00000  Uiso   1.00
C1076  C     0.53076   0.63758   0.38650   0.00000  Uiso   1.00
C1077  C     0.52169   0.62387   0.34354   0.00000  Uiso   1.00
C1078  C     0.49754   0.57968   0.49900   0.00000  Uiso   1.00
C1079  C     0.47365   0.60299   0.66216   0.00000  Uiso   1.00
C1080  C     0.43372   0.59795   0.35672   0.00000  Uiso   1.00
C1081  C     0.44210   0.61305   0.39937   0.00000  Uiso   1.00
C1082  C     0.50900   0.36810   0.58542   0.00000  Uiso   1.00
C1083  C     0.55801   0.38686   0.60097   0.00000  Uiso   1.00
C1084  C     0.56598   0.40214   0.64356   0.00000  Uiso   1.00
C1085  C     0.52560   0.39754   0.33769   0.00000  Uiso   1.00
C1086  C     0.47749   0.37699   0.65593   0.00000  Uiso   1.00
C1087  C     0.46887   0.36306   0.61303   0.00000  Uiso   1.00
C1088  C     0.58618   0.54031   0.62517   0.00000  Uiso   1.00
C1089  C     0.40134   0.50170   0.48901   0.00000  Uiso   1.00
C1090  C     0.63180   0.52004   0.62645   0.00000  Uiso   1.00
C1091  C     0.34255   0.53910   0.60820   0.00000  Uiso   1.00
C1092  C     0.34119   0.57830   0.58786   0.00000  Uiso   1.00
C1093  C     0.62880   0.59826   0.58526   0.00000  Uiso   1.00
C1094  C     0.58504   0.57914   0.60362   0.00000  Uiso   1.00
C1095  C     0.41389   0.45979   0.37544   0.00000  Uiso   1.00
C1096  C     0.41456   0.42096   0.39711   0.00000  Uiso   1.00
C1097  C     0.37057   0.40223   0.41545   0.00000  Uiso   1.00
C1098  C     0.65839   0.42250   0.41262   0.00000  Uiso   1.00
C1099  C     0.65744   0.46162   0.39203   0.00000  Uiso   1.00
C1100  C     0.59866   0.49834   0.51099   0.00000  Uiso   1.00
C1101  C     0.36842   0.48032   0.37384   0.00000  Uiso   1.00
C1102  C     0.34806   0.50936   0.48509   0.00000  Uiso   1.00
C1103  C     0.65195   0.49072   0.51493   0.00000  Uiso   1.00
C1104  C     0.50832   0.35728   0.46215   0.00000  Uiso   1.00
C1105  C     0.49213   0.64279   0.53787   0.00000  Uiso   1.00
C1106  C     0.49967   0.64846   0.45906   0.00000  Uiso   1.00
H1107  H     0.51539   0.37538   0.43255   0.00000  Uiso   1.00
H1108  H     0.58970   0.38957   0.58004   0.00000  Uiso   1.00
H1109  H     0.60355   0.41697   0.65533   0.00000  Uiso   1.00
H1110  H     0.53213   0.40970   0.37050   0.00000  Uiso   1.00
H1111  H     0.44671   0.37014   0.34366   0.00000  Uiso   1.00
H1112  H     0.43140   0.34746   0.60171   0.00000  Uiso   1.00
H1113  H     0.56610   0.55060   0.41148   0.00000  Uiso   1.00
H1114  H     0.39873   0.43957   0.63146   0.00000  Uiso   1.00
H1115  H     0.63206   0.48868   0.63935   0.00000  Uiso   1.00
H1116  H     0.37757   0.52335   0.60919   0.00000  Uiso   1.00
H1117  H     0.37521   0.59285   0.57356   0.00000  Uiso   1.00
H1118  H     0.48492   0.62472   0.56745   0.00000  Uiso   1.00
H1119  H     0.62701   0.62835   0.56875   0.00000  Uiso   1.00
H1120  H     0.54992   0.59422   0.60008   0.00000  Uiso   1.00
H1121  H     0.44935   0.40543   0.40056   0.00000  Uiso   1.00
H1122  H     0.37197   0.37216   0.43204   0.00000  Uiso   1.00
H1123  H     0.62420   0.40824   0.42688   0.00000  Uiso   1.00
H1124  H     0.62259   0.47761   0.39084   0.00000  Uiso   1.00
H1125  H     0.36844   0.51158   0.36062   0.00000  Uiso   1.00
H1126  H     0.35736   0.54980   0.43645   0.00000  Uiso   1.00
H1127  H     0.64262   0.45019   0.56350   0.00000  Uiso   1.00
H1128  H     0.56815   0.65346   0.39751   0.00000  Uiso   1.00
H1129  H     0.55197   0.63127   0.65541   0.00000  Uiso   1.00
H1130  H     0.46676   0.59098   0.62929   0.00000  Uiso   1.00
H1131  H     0.39615   0.58298   0.34521   0.00000  Uiso   1.00
H1132  H     0.41072   0.61005   0.42062   0.00000  Uiso   1.00
N1133  N     0.49999   0.49999   0.61907   0.00000  Uiso   1.00
N1134  N     0.50001   0.50001   0.38093   0.00000  Uiso   1.00
O1135  O     0.50000   0.43892   0.53821   0.00000  Uiso   1.00
O1136  O     0.33768   0.46160   0.54577   0.00000  Uiso   1.00
O1137  O     0.57803   0.54553   0.38250   0.00000  Uiso   1.00
O1138  O     0.42278   0.45639   0.61322   0.00000  Uiso   1.00
O1139  O     0.50000   0.56108   0.46179   0.00000  Uiso   1.00
O1140  O     0.50000   0.43893   0.46176   0.00000  Uiso   1.00
O1141  O     0.50000   0.56107   0.53824   0.00000  Uiso   1.00
O1142  O     0.42392   0.50000   0.52928   0.00000  Uiso   1.00
O1143  O     0.57608   0.50000   0.47072   0.00000  Uiso   1.00
O1144  O     0.42392   0.50000   0.45284   0.00000  Uiso   1.00
O1145  O     0.57608   0.50000   0.54716   0.00000  Uiso   1.00
O1146  O     0.66233   0.53845   0.45424   0.00000  Uiso   1.00
Zn1147 Zn    0.50000   0.49999   0.55104   0.00000  Uiso   1.00
Zn1148 Zn    0.50000   0.50001   0.44896   0.00000  Uiso   1.00
C1149  C     0.83589   0.42034   0.50100   0.00000  Uiso   1.00
C1150  C     0.83409   0.35161   0.54096   0.00000  Uiso   1.00
C1151  C     0.82795   0.62400   0.49781   0.00000  Uiso   1.00
C1152  C     0.83907   0.37606   0.50221   0.00000  Uiso   1.00
C1153  C     0.87250   0.52128   0.35930   0.00000  Uiso   1.00
C1154  C     0.79395   0.47878   0.63990   0.00000  Uiso   1.00
C1155  C     0.87337   0.52018   0.64537   0.00000  Uiso   1.00
C1156  C     0.79330   0.47933   0.35459   0.00000  Uiso   1.00
C1157  C     0.82444   0.63203   0.41458   0.00000  Uiso   1.00
C1158  C     0.86409   0.63758   0.38650   0.00000  Uiso   1.00
C1159  C     0.85502   0.62387   0.34354   0.00000  Uiso   1.00
C1160  C     0.83087   0.57968   0.49900   0.00000  Uiso   1.00
C1161  C     0.80698   0.60299   0.66216   0.00000  Uiso   1.00
C1162  C     0.76705   0.59795   0.35672   0.00000  Uiso   1.00
C1163  C     0.77543   0.61305   0.39937   0.00000  Uiso   1.00
C1164  C     0.84233   0.36810   0.58542   0.00000  Uiso   1.00
C1165  C     0.89135   0.38686   0.60097   0.00000  Uiso   1.00
C1166  C     0.89932   0.40214   0.64356   0.00000  Uiso   1.00
C1167  C     0.85894   0.39754   0.33769   0.00000  Uiso   1.00
C1168  C     0.81082   0.37699   0.65593   0.00000  Uiso   1.00
C1169  C     0.80220   0.36306   0.61303   0.00000  Uiso   1.00
C1170  C     0.91951   0.54031   0.62517   0.00000  Uiso   1.00
C1171  C     0.73468   0.50170   0.48901   0.00000  Uiso   1.00
C1172  C     0.96514   0.52004   0.62645   0.00000  Uiso   1.00
C1173  C     0.67589   0.53910   0.60820   0.00000  Uiso   1.00
C1174  C     0.67453   0.57830   0.58786   0.00000  Uiso   1.00
C1175  C     0.96213   0.59826   0.58526   0.00000  Uiso   1.00
C1176  C     0.91837   0.57914   0.60362   0.00000  Uiso   1.00
C1177  C     0.74722   0.45979   0.37544   0.00000  Uiso   1.00
C1178  C     0.74789   0.42096   0.39711   0.00000  Uiso   1.00
C1179  C     0.70390   0.40223   0.41545   0.00000  Uiso   1.00
C1180  C     0.99172   0.42250   0.41262   0.00000  Uiso   1.00
C1181  C     0.99078   0.46162   0.39203   0.00000  Uiso   1.00
C1182  C     0.93200   0.49834   0.51099   0.00000  Uiso   1.00
C1183  C     0.70175   0.48032   0.37384   0.00000  Uiso   1.00
C1184  C     0.68140   0.50936   0.48509   0.00000  Uiso   1.00
C1185  C     0.98529   0.49072   0.51493   0.00000  Uiso   1.00
C1186  C     0.84165   0.35728   0.46215   0.00000  Uiso   1.00
C1187  C     0.82546   0.64279   0.53787   0.00000  Uiso   1.00
C1188  C     0.83301   0.64846   0.45906   0.00000  Uiso   1.00
H1189  H     0.84872   0.37538   0.43255   0.00000  Uiso   1.00
H1190  H     0.92303   0.38957   0.58004   0.00000  Uiso   1.00
H1191  H     0.93688   0.41697   0.65533   0.00000  Uiso   1.00
H1192  H     0.86547   0.40970   0.37050   0.00000  Uiso   1.00
H1193  H     0.78004   0.37014   0.34366   0.00000  Uiso   1.00
H1194  H     0.76474   0.34746   0.60171   0.00000  Uiso   1.00
H1195  H     0.89943   0.55060   0.41148   0.00000  Uiso   1.00
H1196  H     0.73207   0.43957   0.63146   0.00000  Uiso   1.00
H1197  H     0.96540   0.48868   0.63935   0.00000  Uiso   1.00
H1198  H     0.71090   0.52335   0.60919   0.00000  Uiso   1.00
H1199  H     0.70855   0.59285   0.57356   0.00000  Uiso   1.00
H1200  H     0.81825   0.62472   0.56745   0.00000  Uiso   1.00
H1201  H     0.96034   0.62835   0.56875   0.00000  Uiso   1.00
H1202  H     0.88326   0.59422   0.60008   0.00000  Uiso   1.00
H1203  H     0.78268   0.40543   0.40056   0.00000  Uiso   1.00
H1204  H     0.70531   0.37216   0.43204   0.00000  Uiso   1.00
H1205  H     0.95753   0.40824   0.42688   0.00000  Uiso   1.00
H1206  H     0.95592   0.47761   0.39084   0.00000  Uiso   1.00
H1207  H     0.70177   0.51158   0.36062   0.00000  Uiso   1.00
H1208  H     0.69069   0.54980   0.43645   0.00000  Uiso   1.00
H1209  H     0.97596   0.45019   0.56350   0.00000  Uiso   1.00
H1210  H     0.90149   0.65346   0.39751   0.00000  Uiso   1.00
H1211  H     0.88530   0.63127   0.65541   0.00000  Uiso   1.00
H1212  H     0.80010   0.59098   0.62929   0.00000  Uiso   1.00
H1213  H     0.72948   0.58298   0.34521   0.00000  Uiso   1.00
H1214  H     0.74405   0.61005   0.42062   0.00000  Uiso   1.00
N1215  N     0.83332   0.49999   0.61907   0.00000  Uiso   1.00
N1216  N     0.83335   0.50001   0.38093   0.00000  Uiso   1.00
O1217  O     0.83333   0.43892   0.53821   0.00000  Uiso   1.00
O1218  O     0.67101   0.46160   0.54577   0.00000  Uiso   1.00
O1219  O     0.91136   0.54553   0.38250   0.00000  Uiso   1.00
O1220  O     0.75611   0.45639   0.61322   0.00000  Uiso   1.00
O1221  O     0.83334   0.56108   0.46179   0.00000  Uiso   1.00
O1222  O     0.83333   0.43893   0.46176   0.00000  Uiso   1.00
O1223  O     0.83334   0.56107   0.53824   0.00000  Uiso   1.00
O1224  O     0.75725   0.50000   0.52928   0.00000  Uiso   1.00
O1225  O     0.90942   0.50000   0.47072   0.00000  Uiso   1.00
O1226  O     0.75725   0.50000   0.45284   0.00000  Uiso   1.00
O1227  O     0.90942   0.50000   0.54716   0.00000  Uiso   1.00
O1228  O     0.99566   0.53845   0.45424   0.00000  Uiso   1.00
Zn1229 Zn    0.83333   0.49999   0.55104   0.00000  Uiso   1.00
Zn1230 Zn    0.83333   0.50001   0.44896   0.00000  Uiso   1.00
C1231  C     0.16923   0.75367   0.50100   0.00000  Uiso   1.00
C1232  C     0.16743   0.68494   0.54096   0.00000  Uiso   1.00
C1233  C     0.16129   0.95733   0.49781   0.00000  Uiso   1.00
C1234  C     0.17240   0.70939   0.50221   0.00000  Uiso   1.00
C1235  C     0.20583   0.85461   0.35930   0.00000  Uiso   1.00
C1236  C     0.12729   0.81211   0.63990   0.00000  Uiso   1.00
C1237  C     0.20670   0.85351   0.64537   0.00000  Uiso   1.00
C1238  C     0.12663   0.81267   0.35459   0.00000  Uiso   1.00
C1239  C     0.15777   0.96536   0.41458   0.00000  Uiso   1.00
C1240  C     0.19742   0.97092   0.38650   0.00000  Uiso   1.00
C1241  C     0.18836   0.95720   0.34354   0.00000  Uiso   1.00
C1242  C     0.16420   0.91302   0.49900   0.00000  Uiso   1.00
C1243  C     0.14031   0.93633   0.66216   0.00000  Uiso   1.00
C1244  C     0.10039   0.93129   0.35672   0.00000  Uiso   1.00
C1245  C     0.10876   0.94638   0.39937   0.00000  Uiso   1.00
C1246  C     0.17567   0.70143   0.58542   0.00000  Uiso   1.00
C1247  C     0.22468   0.72019   0.60097   0.00000  Uiso   1.00
C1248  C     0.23265   0.73547   0.64356   0.00000  Uiso   1.00
C1249  C     0.19227   0.73087   0.33769   0.00000  Uiso   1.00
C1250  C     0.14415   0.71032   0.65593   0.00000  Uiso   1.00
C1251  C     0.13553   0.69640   0.61303   0.00000  Uiso   1.00
C1252  C     0.25284   0.87365   0.62517   0.00000  Uiso   1.00
C1253  C     0.06801   0.83503   0.48901   0.00000  Uiso   1.00
C1254  C     0.29847   0.85337   0.62645   0.00000  Uiso   1.00
C1255  C     0.00922   0.87243   0.60820   0.00000  Uiso   1.00
C1256  C     0.00786   0.91164   0.58786   0.00000  Uiso   1.00
C1257  C     0.29546   0.93160   0.58526   0.00000  Uiso   1.00
C1258  C     0.25170   0.91247   0.60362   0.00000  Uiso   1.00
C1259  C     0.08056   0.79312   0.37544   0.00000  Uiso   1.00
C1260  C     0.08122   0.75429   0.39711   0.00000  Uiso   1.00
C1261  C     0.03723   0.73557   0.41545   0.00000  Uiso   1.00
C1262  C     0.32506   0.75583   0.41262   0.00000  Uiso   1.00
C1263  C     0.32411   0.79495   0.39203   0.00000  Uiso   1.00
C1264  C     0.26533   0.83167   0.51099   0.00000  Uiso   1.00
C1265  C     0.03508   0.81365   0.37384   0.00000  Uiso   1.00
C1266  C     0.01473   0.84269   0.48509   0.00000  Uiso   1.00
C1267  C     0.31862   0.82405   0.51493   0.00000  Uiso   1.00
C1268  C     0.17498   0.69062   0.46215   0.00000  Uiso   1.00
C1269  C     0.15879   0.97612   0.53787   0.00000  Uiso   1.00
C1270  C     0.16634   0.98179   0.45906   0.00000  Uiso   1.00
H1271  H     0.18205   0.70872   0.43255   0.00000  Uiso   1.00
H1272  H     0.25637   0.72290   0.58004   0.00000  Uiso   1.00
H1273  H     0.27022   0.75030   0.65533   0.00000  Uiso   1.00
H1274  H     0.19880   0.74304   0.37050   0.00000  Uiso   1.00
H1275  H     0.11338   0.70347   0.34366   0.00000  Uiso   1.00
H1276  H     0.09807   0.68079   0.60171   0.00000  Uiso   1.00
H1277  H     0.23276   0.88394   0.41148   0.00000  Uiso   1.00
H1278  H     0.06540   0.77290   0.63146   0.00000  Uiso   1.00
H1279  H     0.29873   0.82201   0.63935   0.00000  Uiso   1.00
H1280  H     0.04424   0.85668   0.60919   0.00000  Uiso   1.00
H1281  H     0.04188   0.92618   0.57356   0.00000  Uiso   1.00
H1282  H     0.15159   0.95806   0.56745   0.00000  Uiso   1.00
H1283  H     0.29367   0.96168   0.56875   0.00000  Uiso   1.00
H1284  H     0.21659   0.92755   0.60008   0.00000  Uiso   1.00
H1285  H     0.11602   0.73877   0.40056   0.00000  Uiso   1.00
H1286  H     0.03864   0.70549   0.43204   0.00000  Uiso   1.00
H1287  H     0.29087   0.74157   0.42688   0.00000  Uiso   1.00
H1288  H     0.28925   0.81095   0.39084   0.00000  Uiso   1.00
H1289  H     0.03510   0.84491   0.36062   0.00000  Uiso   1.00
H1290  H     0.02403   0.88313   0.43645   0.00000  Uiso   1.00
H1291  H     0.30929   0.78353   0.56350   0.00000  Uiso   1.00
H1292  H     0.23482   0.98679   0.39751   0.00000  Uiso   1.00
H1293  H     0.21864   0.96461   0.65541   0.00000  Uiso   1.00
H1294  H     0.13343   0.92432   0.62929   0.00000  Uiso   1.00
H1295  H     0.06281   0.91631   0.34521   0.00000  Uiso   1.00
H1296  H     0.07738   0.94338   0.42062   0.00000  Uiso   1.00
N1297  N     0.16665   0.83332   0.61907   0.00000  Uiso   1.00
N1298  N     0.16668   0.83334   0.38093   0.00000  Uiso   1.00
O1299  O     0.16666   0.77225   0.53821   0.00000  Uiso   1.00
O1300  O     0.00434   0.79493   0.54577   0.00000  Uiso   1.00
O1301  O     0.24470   0.87887   0.38250   0.00000  Uiso   1.00
O1302  O     0.08945   0.78972   0.61322   0.00000  Uiso   1.00
O1303  O     0.16667   0.89442   0.46179   0.00000  Uiso   1.00
O1304  O     0.16666   0.77226   0.46176   0.00000  Uiso   1.00
O1305  O     0.16667   0.89441   0.53824   0.00000  Uiso   1.00
O1306  O     0.09058   0.83333   0.52928   0.00000  Uiso   1.00
O1307  O     0.24275   0.83334   0.47072   0.00000  Uiso   1.00
O1308  O     0.09058   0.83334   0.45284   0.00000  Uiso   1.00
O1309  O     0.24275   0.83333   0.54716   0.00000  Uiso   1.00
O1310  O     0.32900   0.87178   0.45424   0.00000  Uiso   1.00
Zn1311 Zn    0.16667   0.83333   0.55104   0.00000  Uiso   1.00
Zn1312 Zn    0.16667   0.83334   0.44896   0.00000  Uiso   1.00
C1313  C     0.50256   0.75367   0.50100   0.00000  Uiso   1.00
C1314  C     0.50076   0.68494   0.54096   0.00000  Uiso   1.00
C1315  C     0.49462   0.95733   0.49781   0.00000  Uiso   1.00
C1316  C     0.50574   0.70939   0.50221   0.00000  Uiso   1.00
C1317  C     0.53916   0.85461   0.35930   0.00000  Uiso   1.00
C1318  C     0.46062   0.81211   0.63990   0.00000  Uiso   1.00
C1319  C     0.54003   0.85351   0.64537   0.00000  Uiso   1.00
C1320  C     0.45997   0.81267   0.35459   0.00000  Uiso   1.00
C1321  C     0.49111   0.96536   0.41458   0.00000  Uiso   1.00
C1322  C     0.53076   0.97092   0.38650   0.00000  Uiso   1.00
C1323  C     0.52169   0.95720   0.34354   0.00000  Uiso   1.00
C1324  C     0.49754   0.91302   0.49900   0.00000  Uiso   1.00
C1325  C     0.47365   0.93633   0.66216   0.00000  Uiso   1.00
C1326  C     0.43372   0.93129   0.35672   0.00000  Uiso   1.00
C1327  C     0.44210   0.94638   0.39937   0.00000  Uiso   1.00
C1328  C     0.50900   0.70143   0.58542   0.00000  Uiso   1.00
C1329  C     0.55801   0.72019   0.60097   0.00000  Uiso   1.00
C1330  C     0.56598   0.73547   0.64356   0.00000  Uiso   1.00
C1331  C     0.52560   0.73087   0.33769   0.00000  Uiso   1.00
C1332  C     0.47749   0.71032   0.65593   0.00000  Uiso   1.00
C1333  C     0.46887   0.69640   0.61303   0.00000  Uiso   1.00
C1334  C     0.58618   0.87365   0.62517   0.00000  Uiso   1.00
C1335  C     0.40134   0.83503   0.48901   0.00000  Uiso   1.00
C1336  C     0.63180   0.85337   0.62645   0.00000  Uiso   1.00
C1337  C     0.34255   0.87243   0.60820   0.00000  Uiso   1.00
C1338  C     0.34119   0.91164   0.58786   0.00000  Uiso   1.00
C1339  C     0.62880   0.93160   0.58526   0.00000  Uiso   1.00
C1340  C     0.58504   0.91247   0.60362   0.00000  Uiso   1.00
C1341  C     0.41389   0.79312   0.37544   0.00000  Uiso   1.00
C1342  C     0.41456   0.75429   0.39711   0.00000  Uiso   1.00
C1343  C     0.37057   0.73557   0.41545   0.00000  Uiso   1.00
C1344  C     0.65839   0.75583   0.41262   0.00000  Uiso   1.00
C1345  C     0.65744   0.79495   0.39203   0.00000  Uiso   1.00
C1346  C     0.59866   0.83167   0.51099   0.00000  Uiso   1.00
C1347  C     0.36842   0.81365   0.37384   0.00000  Uiso   1.00
C1348  C     0.34806   0.84269   0.48509   0.00000  Uiso   1.00
C1349  C     0.65195   0.82405   0.51493   0.00000  Uiso   1.00
C1350  C     0.50832   0.69062   0.46215   0.00000  Uiso   1.00
C1351  C     0.49213   0.97612   0.53787   0.00000  Uiso   1.00
C1352  C     0.49967   0.98179   0.45906   0.00000  Uiso   1.00
H1353  H     0.51539   0.70872   0.43255   0.00000  Uiso   1.00
H1354  H     0.58970   0.72290   0.58004   0.00000  Uiso   1.00
H1355  H     0.60355   0.75030   0.65533   0.00000  Uiso   1.00
H1356  H     0.53213   0.74304   0.37050   0.00000  Uiso   1.00
H1357  H     0.44671   0.70347   0.34366   0.00000  Uiso   1.00
H1358  H     0.43140   0.68079   0.60171   0.00000  Uiso   1.00
H1359  H     0.56610   0.88394   0.41148   0.00000  Uiso   1.00
H1360  H     0.39873   0.77290   0.63146   0.00000  Uiso   1.00
H1361  H     0.63206   0.82201   0.63935   0.00000  Uiso   1.00
H1362  H     0.37757   0.85668   0.60919   0.00000  Uiso   1.00
H1363  H     0.37521   0.92618   0.57356   0.00000  Uiso   1.00
H1364  H     0.48492   0.95806   0.56745   0.00000  Uiso   1.00
H1365  H     0.62701   0.96168   0.56875   0.00000  Uiso   1.00
H1366  H     0.54992   0.92755   0.60008   0.00000  Uiso   1.00
H1367  H     0.44935   0.73877   0.40056   0.00000  Uiso   1.00
H1368  H     0.37197   0.70549   0.43204   0.00000  Uiso   1.00
H1369  H     0.62420   0.74157   0.42688   0.00000  Uiso   1.00
H1370  H     0.62259   0.81095   0.39084   0.00000  Uiso   1.00
H1371  H     0.36844   0.84491   0.36062   0.00000  Uiso   1.00
H1372  H     0.35736   0.88313   0.43645   0.00000  Uiso   1.00
H1373  H     0.64262   0.78353   0.56350   0.00000  Uiso   1.00
H1374  H     0.56815   0.98679   0.39751   0.00000  Uiso   1.00
H1375  H     0.55197   0.96461   0.65541   0.00000  Uiso   1.00
H1376  H     0.46676   0.92432   0.62929   0.00000  Uiso   1.00
H1377  H     0.39615   0.91631   0.34521   0.00000  Uiso   1.00
H1378  H     0.41072   0.94338   0.42062   0.00000  Uiso   1.00
N1379  N     0.49999   0.83332   0.61907   0.00000  Uiso   1.00
N1380  N     0.50001   0.83334   0.38093   0.00000  Uiso   1.00
O1381  O     0.50000   0.77225   0.53821   0.00000  Uiso   1.00
O1382  O     0.33768   0.79493   0.54577   0.00000  Uiso   1.00
O1383  O     0.57803   0.87887   0.38250   0.00000  Uiso   1.00
O1384  O     0.42278   0.78972   0.61322   0.00000  Uiso   1.00
O1385  O     0.50000   0.89442   0.46179   0.00000  Uiso   1.00
O1386  O     0.50000   0.77226   0.46176   0.00000  Uiso   1.00
O1387  O     0.50000   0.89441   0.53824   0.00000  Uiso   1.00
O1388  O     0.42392   0.83333   0.52928   0.00000  Uiso   1.00
O1389  O     0.57608   0.83334   0.47072   0.00000  Uiso   1.00
O1390  O     0.42392   0.83334   0.45284   0.00000  Uiso   1.00
O1391  O     0.57608   0.83333   0.54716   0.00000  Uiso   1.00
O1392  O     0.66233   0.87178   0.45424   0.00000  Uiso   1.00
Zn1393 Zn    0.50000   0.83333   0.55104   0.00000  Uiso   1.00
Zn1394 Zn    0.50000   0.83334   0.44896   0.00000  Uiso   1.00
C1395  C     0.83589   0.75367   0.50100   0.00000  Uiso   1.00
C1396  C     0.83409   0.68494   0.54096   0.00000  Uiso   1.00
C1397  C     0.82795   0.95733   0.49781   0.00000  Uiso   1.00
C1398  C     0.83907   0.70939   0.50221   0.00000  Uiso   1.00
C1399  C     0.87250   0.85461   0.35930   0.00000  Uiso   1.00
C1400  C     0.79395   0.81211   0.63990   0.00000  Uiso   1.00
C1401  C     0.87337   0.85351   0.64537   0.00000  Uiso   1.00
C1402  C     0.79330   0.81267   0.35459   0.00000  Uiso   1.00
C1403  C     0.82444   0.96536   0.41458   0.00000  Uiso   1.00
C1404  C     0.86409   0.97092   0.38650   0.00000  Uiso   1.00
C1405  C     0.85502   0.95720   0.34354   0.00000  Uiso   1.00
C1406  C     0.83087   0.91302   0.49900   0.00000  Uiso   1.00
C1407  C     0.80698   0.93633   0.66216   0.00000  Uiso   1.00
C1408  C     0.76705   0.93129   0.35672   0.00000  Uiso   1.00
C1409  C     0.77543   0.94638   0.39937   0.00000  Uiso   1.00
C1410  C     0.84233   0.70143   0.58542   0.00000  Uiso   1.00
C1411  C     0.89135   0.72019   0.60097   0.00000  Uiso   1.00
C1412  C     0.89932   0.73547   0.64356   0.00000  Uiso   1.00
C1413  C     0.85894   0.73087   0.33769   0.00000  Uiso   1.00
C1414  C     0.81082   0.71032   0.65593   0.00000  Uiso   1.00
C1415  C     0.80220   0.69640   0.61303   0.00000  Uiso   1.00
C1416  C     0.91951   0.87365   0.62517   0.00000  Uiso   1.00
C1417  C     0.73468   0.83503   0.48901   0.00000  Uiso   1.00
C1418  C     0.96514   0.85337   0.62645   0.00000  Uiso   1.00
C1419  C     0.67589   0.87243   0.60820   0.00000  Uiso   1.00
C1420  C     0.67453   0.91164   0.58786   0.00000  Uiso   1.00
C1421  C     0.96213   0.93160   0.58526   0.00000  Uiso   1.00
C1422  C     0.91837   0.91247   0.60362   0.00000  Uiso   1.00
C1423  C     0.74722   0.79312   0.37544   0.00000  Uiso   1.00
C1424  C     0.74789   0.75429   0.39711   0.00000  Uiso   1.00
C1425  C     0.70390   0.73557   0.41545   0.00000  Uiso   1.00
C1426  C     0.99172   0.75583   0.41262   0.00000  Uiso   1.00
C1427  C     0.99078   0.79495   0.39203   0.00000  Uiso   1.00
C1428  C     0.93200   0.83167   0.51099   0.00000  Uiso   1.00
C1429  C     0.70175   0.81365   0.37384   0.00000  Uiso   1.00
C1430  C     0.68140   0.84269   0.48509   0.00000  Uiso   1.00
C1431  C     0.98529   0.82405   0.51493   0.00000  Uiso   1.00
C1432  C     0.84165   0.69062   0.46215   0.00000  Uiso   1.00
C1433  C     0.82546   0.97612   0.53787   0.00000  Uiso   1.00
C1434  C     0.83301   0.98179   0.45906   0.00000  Uiso   1.00
H1435  H     0.84872   0.70872   0.43255   0.00000  Uiso   1.00
H1436  H     0.92303   0.72290   0.58004   0.00000  Uiso   1.00
H1437  H     0.93688   0.75030   0.65533   0.00000  Uiso   1.00
H1438  H     0.86547   0.74304   0.37050   0.00000  Uiso   1.00
H1439  H     0.78004   0.70347   0.34366   0.00000  Uiso   1.00
H1440  H     0.76474   0.68079   0.60171   0.00000  Uiso   1.00
H1441  H     0.89943   0.88394   0.41148   0.00000  Uiso   1.00
H1442  H     0.73207   0.77290   0.63146   0.00000  Uiso   1.00
H1443  H     0.96540   0.82201   0.63935   0.00000  Uiso   1.00
H1444  H     0.71090   0.85668   0.60919   0.00000  Uiso   1.00
H1445  H     0.70855   0.92618   0.57356   0.00000  Uiso   1.00
H1446  H     0.81825   0.95806   0.56745   0.00000  Uiso   1.00
H1447  H     0.96034   0.96168   0.56875   0.00000  Uiso   1.00
H1448  H     0.88326   0.92755   0.60008   0.00000  Uiso   1.00
H1449  H     0.78268   0.73877   0.40056   0.00000  Uiso   1.00
H1450  H     0.70531   0.70549   0.43204   0.00000  Uiso   1.00
H1451  H     0.95753   0.74157   0.42688   0.00000  Uiso   1.00
H1452  H     0.95592   0.81095   0.39084   0.00000  Uiso   1.00
H1453  H     0.70177   0.84491   0.36062   0.00000  Uiso   1.00
H1454  H     0.69069   0.88313   0.43645   0.00000  Uiso   1.00
H1455  H     0.97596   0.78353   0.56350   0.00000  Uiso   1.00
H1456  H     0.90149   0.98679   0.39751   0.00000  Uiso   1.00
H1457  H     0.88530   0.96461   0.65541   0.00000  Uiso   1.00
H1458  H     0.80010   0.92432   0.62929   0.00000  Uiso   1.00
H1459  H     0.72948   0.91631   0.34521   0.00000  Uiso   1.00
H1460  H     0.74405   0.94338   0.42062   0.00000  Uiso   1.00
N1461  N     0.83332   0.83332   0.61907   0.00000  Uiso   1.00
N1462  N     0.83335   0.83334   0.38093   0.00000  Uiso   1.00
O1463  O     0.83333   0.77225   0.53821   0.00000  Uiso   1.00
O1464  O     0.67101   0.79493   0.54577   0.00000  Uiso   1.00
O1465  O     0.91136   0.87887   0.38250   0.00000  Uiso   1.00
O1466  O     0.75611   0.78972   0.61322   0.00000  Uiso   1.00
O1467  O     0.83334   0.89442   0.46179   0.00000  Uiso   1.00
O1468  O     0.83333   0.77226   0.46176   0.00000  Uiso   1.00
O1469  O     0.83334   0.89441   0.53824   0.00000  Uiso   1.00
O1470  O     0.75725   0.83333   0.52928   0.00000  Uiso   1.00
O1471  O     0.90942   0.83334   0.47072   0.00000  Uiso   1.00
O1472  O     0.75725   0.83334   0.45284   0.00000  Uiso   1.00
O1473  O     0.90942   0.83333   0.54716   0.00000  Uiso   1.00
O1474  O     0.99566   0.87178   0.45424   0.00000  Uiso   1.00
Zn1475 Zn    0.83333   0.83333   0.55104   0.00000  Uiso   1.00
Zn1476 Zn    0.83333   0.83334   0.44896   0.00000  Uiso   1.00
C1477  C     0.16923   0.08700   0.83434   0.00000  Uiso   1.00
C1478  C     0.16743   0.01827   0.87429   0.00000  Uiso   1.00
C1479  C     0.16129   0.29067   0.83115   0.00000  Uiso   1.00
C1480  C     0.17240   0.04272   0.83554   0.00000  Uiso   1.00
C1481  C     0.20583   0.18795   0.69263   0.00000  Uiso   1.00
C1482  C     0.12729   0.14545   0.97323   0.00000  Uiso   1.00
C1483  C     0.20670   0.18685   0.97870   0.00000  Uiso   1.00
C1484  C     0.12663   0.14600   0.68792   0.00000  Uiso   1.00
C1485  C     0.15777   0.29869   0.74791   0.00000  Uiso   1.00
C1486  C     0.19742   0.30425   0.71983   0.00000  Uiso   1.00
C1487  C     0.18836   0.29054   0.67687   0.00000  Uiso   1.00
C1488  C     0.16420   0.24635   0.83234   0.00000  Uiso   1.00
C1489  C     0.14031   0.26966   0.99549   0.00000  Uiso   1.00
C1490  C     0.10039   0.26462   0.69005   0.00000  Uiso   1.00
C1491  C     0.10876   0.27972   0.73270   0.00000  Uiso   1.00
C1492  C     0.17567   0.03476   0.91875   0.00000  Uiso   1.00
C1493  C     0.22468   0.05352   0.93431   0.00000  Uiso   1.00
C1494  C     0.23265   0.06880   0.97690   0.00000  Uiso   1.00
C1495  C     0.19227   0.06420   0.67103   0.00000  Uiso   1.00
C1496  C     0.14415   0.04366   0.98926   0.00000  Uiso   1.00
C1497  C     0.13553   0.02973   0.94636   0.00000  Uiso   1.00
C1498  C     0.25284   0.20698   0.95851   0.00000  Uiso   1.00
C1499  C     0.06801   0.16837   0.82234   0.00000  Uiso   1.00
C1500  C     0.29847   0.18671   0.95978   0.00000  Uiso   1.00
C1501  C     0.00922   0.20577   0.94153   0.00000  Uiso   1.00
C1502  C     0.00786   0.24497   0.92119   0.00000  Uiso   1.00
C1503  C     0.29546   0.26493   0.91860   0.00000  Uiso   1.00
C1504  C     0.25170   0.24581   0.93695   0.00000  Uiso   1.00
C1505  C     0.08056   0.12646   0.70878   0.00000  Uiso   1.00
C1506  C     0.08122   0.08763   0.73045   0.00000  Uiso   1.00
C1507  C     0.03723   0.06890   0.74879   0.00000  Uiso   1.00
C1508  C     0.32506   0.08917   0.74596   0.00000  Uiso   1.00
C1509  C     0.32411   0.12829   0.72537   0.00000  Uiso   1.00
C1510  C     0.26533   0.16500   0.84433   0.00000  Uiso   1.00
C1511  C     0.03508   0.14698   0.70717   0.00000  Uiso   1.00
C1512  C     0.01473   0.17602   0.81842   0.00000  Uiso   1.00
C1513  C     0.31862   0.15738   0.84827   0.00000  Uiso   1.00
C1514  C     0.17498   0.02395   0.79549   0.00000  Uiso   1.00
C1515  C     0.15879   0.30946   0.87121   0.00000  Uiso   1.00
C1516  C     0.16634   0.31512   0.79240   0.00000  Uiso   1.00
H1517  H     0.18205   0.04205   0.76588   0.00000  Uiso   1.00
H1518  H     0.25637   0.05624   0.91337   0.00000  Uiso   1.00
H1519  H     0.27022   0.08364   0.98866   0.00000  Uiso   1.00
H1520  H     0.19880   0.07637   0.70383   0.00000  Uiso   1.00
H1521  H     0.11338   0.03680   0.67699   0.00000  Uiso   1.00
H1522  H     0.09807   0.01413   0.93505   0.00000  Uiso   1.00
H1523  H     0.23276   0.21727   0.74481   0.00000  Uiso   1.00
H1524  H     0.06540   0.10624   0.96480   0.00000  Uiso   1.00
H1525  H     0.29873   0.15535   0.97268   0.00000  Uiso   1.00
H1526  H     0.04424   0.19001   0.94252   0.00000  Uiso   1.00
H1527  H     0.04188   0.25951   0.90690   0.00000  Uiso   1.00
H1528  H     0.15159   0.29139   0.90078   0.00000  Uiso   1.00
H1529  H     0.29367   0.29502   0.90209   0.00000  Uiso   1.00
H1530  H     0.21659   0.26089   0.93341   0.00000  Uiso   1.00
H1531  H     0.11602   0.07210   0.73389   0.00000  Uiso   1.00
H1532  H     0.03864   0.03882   0.76537   0.00000  Uiso   1.00
H1533  H     0.29087   0.07490   0.76021   0.00000  Uiso   1.00
H1534  H     0.28925   0.14428   0.72418   0.00000  Uiso   1.00
H1535  H     0.03510   0.17824   0.69395   0.00000  Uiso   1.00
H1536  H     0.02403   0.21647   0.76979   0.00000  Uiso   1.00
H1537  H     0.30929   0.11686   0.89684   0.00000  Uiso   1.00
H1538  H     0.23482   0.32013   0.73084   0.00000  Uiso   1.00
H1539  H     0.21864   0.29794   0.98874   0.00000  Uiso   1.00
H1540  H     0.13343   0.25765   0.96262   0.00000  Uiso   1.00
H1541  H     0.06281   0.24965   0.67855   0.00000  Uiso   1.00
H1542  H     0.07738   0.27672   0.75395   0.00000  Uiso   1.00
N1543  N     0.16665   0.16666   0.95240   0.00000  Uiso   1.00
N1544  N     0.16668   0.16668   0.71427   0.00000  Uiso   1.00
O1545  O     0.16666   0.10558   0.87154   0.00000  Uiso   1.00
O1546  O     0.00434   0.12827   0.87910   0.00000  Uiso   1.00
O1547  O     0.24470   0.21220   0.71583   0.00000  Uiso   1.00
O1548  O     0.08945   0.12305   0.94656   0.00000  Uiso   1.00
O1549  O     0.16667   0.22775   0.79513   0.00000  Uiso   1.00
O1550  O     0.16666   0.10559   0.79510   0.00000  Uiso   1.00
O1551  O     0.16667   0.22774   0.87157   0.00000  Uiso   1.00
O1552  O     0.09058   0.16666   0.86261   0.00000  Uiso   1.00
O1553  O     0.24275   0.16667   0.80405   0.00000  Uiso   1.00
O1554  O     0.09058   0.16667   0.78617   0.00000  Uiso   1.00
O1555  O     0.24275   0.16666   0.88050   0.00000  Uiso   1.00
O1556  O     0.32900   0.20512   0.78757   0.00000  Uiso   1.00
Zn1557 Zn    0.16667   0.16666   0.88437   0.00000  Uiso   1.00
Zn1558 Zn    0.16667   0.16667   0.78229   0.00000  Uiso   1.00
C1559  C     0.50256   0.08700   0.83434   0.00000  Uiso   1.00
C1560  C     0.50076   0.01827   0.87429   0.00000  Uiso   1.00
C1561  C     0.49462   0.29067   0.83115   0.00000  Uiso   1.00
C1562  C     0.50574   0.04272   0.83554   0.00000  Uiso   1.00
C1563  C     0.53916   0.18795   0.69263   0.00000  Uiso   1.00
C1564  C     0.46062   0.14545   0.97323   0.00000  Uiso   1.00
C1565  C     0.54003   0.18685   0.97870   0.00000  Uiso   1.00
C1566  C     0.45997   0.14600   0.68792   0.00000  Uiso   1.00
C1567  C     0.49111   0.29869   0.74791   0.00000  Uiso   1.00
C1568  C     0.53076   0.30425   0.71983   0.00000  Uiso   1.00
C1569  C     0.52169   0.29054   0.67687   0.00000  Uiso   1.00
C1570  C     0.49754   0.24635   0.83234   0.00000  Uiso   1.00
C1571  C     0.47365   0.26966   0.99549   0.00000  Uiso   1.00
C1572  C     0.43372   0.26462   0.69005   0.00000  Uiso   1.00
C1573  C     0.44210   0.27972   0.73270   0.00000  Uiso   1.00
C1574  C     0.50900   0.03476   0.91875   0.00000  Uiso   1.00
C1575  C     0.55801   0.05352   0.93431   0.00000  Uiso   1.00
C1576  C     0.56598   0.06880   0.97690   0.00000  Uiso   1.00
C1577  C     0.52560   0.06420   0.67103   0.00000  Uiso   1.00
C1578  C     0.47749   0.04366   0.98926   0.00000  Uiso   1.00
C1579  C     0.46887   0.02973   0.94636   0.00000  Uiso   1.00
C1580  C     0.58618   0.20698   0.95851   0.00000  Uiso   1.00
C1581  C     0.40134   0.16837   0.82234   0.00000  Uiso   1.00
C1582  C     0.63180   0.18671   0.95978   0.00000  Uiso   1.00
C1583  C     0.34255   0.20577   0.94153   0.00000  Uiso   1.00
C1584  C     0.34119   0.24497   0.92119   0.00000  Uiso   1.00
C1585  C     0.62880   0.26493   0.91860   0.00000  Uiso   1.00
C1586  C     0.58504   0.24581   0.93695   0.00000  Uiso   1.00
C1587  C     0.41389   0.12646   0.70878   0.00000  Uiso   1.00
C1588  C     0.41456   0.08763   0.73045   0.00000  Uiso   1.00
C1589  C     0.37057   0.06890   0.74879   0.00000  Uiso   1.00
C1590  C     0.65839   0.08917   0.74596   0.00000  Uiso   1.00
C1591  C     0.65744   0.12829   0.72537   0.00000  Uiso   1.00
C1592  C     0.59866   0.16500   0.84433   0.00000  Uiso   1.00
C1593  C     0.36842   0.14698   0.70717   0.00000  Uiso   1.00
C1594  C     0.34806   0.17602   0.81842   0.00000  Uiso   1.00
C1595  C     0.65195   0.15738   0.84827   0.00000  Uiso   1.00
C1596  C     0.50832   0.02395   0.79549   0.00000  Uiso   1.00
C1597  C     0.49213   0.30946   0.87121   0.00000  Uiso   1.00
C1598  C     0.49967   0.31512   0.79240   0.00000  Uiso   1.00
H1599  H     0.51539   0.04205   0.76588   0.00000  Uiso   1.00
H1600  H     0.58970   0.05624   0.91337   0.00000  Uiso   1.00
H1601  H     0.60355   0.08364   0.98866   0.00000  Uiso   1.00
H1602  H     0.53213   0.07637   0.70383   0.00000  Uiso   1.00
H1603  H     0.44671   0.03680   0.67699   0.00000  Uiso   1.00
H1604  H     0.43140   0.01413   0.93505   0.00000  Uiso   1.00
H1605  H     0.56610   0.21727   0.74481   0.00000  Uiso   1.00
H1606  H     0.39873   0.10624   0.96480   0.00000  Uiso   1.00
H1607  H     0.63206   0.15535   0.97268   0.00000  Uiso   1.00
H1608  H     0.37757   0.19001   0.94252   0.00000  Uiso   1.00
H1609  H     0.37521   0.25951   0.90690   0.00000  Uiso   1.00
H1610  H     0.48492   0.29139   0.90078   0.00000  Uiso   1.00
H1611  H     0.62701   0.29502   0.90209   0.00000  Uiso   1.00
H1612  H     0.54992   0.26089   0.93341   0.00000  Uiso   1.00
H1613  H     0.44935   0.07210   0.73389   0.00000  Uiso   1.00
H1614  H     0.37197   0.03882   0.76537   0.00000  Uiso   1.00
H1615  H     0.62420   0.07490   0.76021   0.00000  Uiso   1.00
H1616  H     0.62259   0.14428   0.72418   0.00000  Uiso   1.00
H1617  H     0.36844   0.17824   0.69395   0.00000  Uiso   1.00
H1618  H     0.35736   0.21647   0.76979   0.00000  Uiso   1.00
H1619  H     0.64262   0.11686   0.89684   0.00000  Uiso   1.00
H1620  H     0.56815   0.32013   0.73084   0.00000  Uiso   1.00
H1621  H     0.55197   0.29794   0.98874   0.00000  Uiso   1.00
H1622  H     0.46676   0.25765   0.96262   0.00000  Uiso   1.00
H1623  H     0.39615   0.24965   0.67855   0.00000  Uiso   1.00
H1624  H     0.41072   0.27672   0.75395   0.00000  Uiso   1.00
N1625  N     0.49999   0.16666   0.95240   0.00000  Uiso   1.00
N1626  N     0.50001   0.16668   0.71427   0.00000  Uiso   1.00
O1627  O     0.50000   0.10558   0.87154   0.00000  Uiso   1.00
O1628  O     0.33768   0.12827   0.87910   0.00000  Uiso   1.00
O1629  O     0.57803   0.21220   0.71583   0.00000  Uiso   1.00
O1630  O     0.42278   0.12305   0.94656   0.00000  Uiso   1.00
O1631  O     0.50000   0.22775   0.79513   0.00000  Uiso   1.00
O1632  O     0.50000   0.10559   0.79510   0.00000  Uiso   1.00
O1633  O     0.50000   0.22774   0.87157   0.00000  Uiso   1.00
O1634  O     0.42392   0.16666   0.86261   0.00000  Uiso   1.00
O1635  O     0.57608   0.16667   0.80405   0.00000  Uiso   1.00
O1636  O     0.42392   0.16667   0.78617   0.00000  Uiso   1.00
O1637  O     0.57608   0.16666   0.88050   0.00000  Uiso   1.00
O1638  O     0.66233   0.20512   0.78757   0.00000  Uiso   1.00
Zn1639 Zn    0.50000   0.16666   0.88437   0.00000  Uiso   1.00
Zn1640 Zn    0.50000   0.16667   0.78229   0.00000  Uiso   1.00
C1641  C     0.83589   0.08700   0.83434   0.00000  Uiso   1.00
C1642  C     0.83409   0.01827   0.87429   0.00000  Uiso   1.00
C1643  C     0.82795   0.29067   0.83115   0.00000  Uiso   1.00
C1644  C     0.83907   0.04272   0.83554   0.00000  Uiso   1.00
C1645  C     0.87250   0.18795   0.69263   0.00000  Uiso   1.00
C1646  C     0.79395   0.14545   0.97323   0.00000  Uiso   1.00
C1647  C     0.87337   0.18685   0.97870   0.00000  Uiso   1.00
C1648  C     0.79330   0.14600   0.68792   0.00000  Uiso   1.00
C1649  C     0.82444   0.29869   0.74791   0.00000  Uiso   1.00
C1650  C     0.86409   0.30425   0.71983   0.00000  Uiso   1.00
C1651  C     0.85502   0.29054   0.67687   0.00000  Uiso   1.00
C1652  C     0.83087   0.24635   0.83234   0.00000  Uiso   1.00
C1653  C     0.80698   0.26966   0.99549   0.00000  Uiso   1.00
C1654  C     0.76705   0.26462   0.69005   0.00000  Uiso   1.00
C1655  C     0.77543   0.27972   0.73270   0.00000  Uiso   1.00
C1656  C     0.84233   0.03476   0.91875   0.00000  Uiso   1.00
C1657  C     0.89135   0.05352   0.93431   0.00000  Uiso   1.00
C1658  C     0.89932   0.06880   0.97690   0.00000  Uiso   1.00
C1659  C     0.85894   0.06420   0.67103   0.00000  Uiso   1.00
C1660  C     0.81082   0.04366   0.98926   0.00000  Uiso   1.00
C1661  C     0.80220   0.02973   0.94636   0.00000  Uiso   1.00
C1662  C     0.91951   0.20698   0.95851   0.00000  Uiso   1.00
C1663  C     0.73468   0.16837   0.82234   0.00000  Uiso   1.00
C1664  C     0.96514   0.18671   0.95978   0.00000  Uiso   1.00
C1665  C     0.67589   0.20577   0.94153   0.00000  Uiso   1.00
C1666  C     0.67453   0.24497   0.92119   0.00000  Uiso   1.00
C1667  C     0.96213   0.26493   0.91860   0.00000  Uiso   1.00
C1668  C     0.91837   0.24581   0.93695   0.00000  Uiso   1.00
C1669  C     0.74722   0.12646   0.70878   0.00000  Uiso   1.00
C1670  C     0.74789   0.08763   0.73045   0.00000  Uiso   1.00
C1671  C     0.70390   0.06890   0.74879   0.00000  Uiso   1.00
C1672  C     0.99172   0.08917   0.74596   0.00000  Uiso   1.00
C1673  C     0.99078   0.12829   0.72537   0.00000  Uiso   1.00
C1674  C     0.93200   0.16500   0.84433   0.00000  Uiso   1.00
C1675  C     0.70175   0.14698   0.70717   0.00000  Uiso   1.00
C1676  C     0.68140   0.17602   0.81842   0.00000  Uiso   1.00
C1677  C     0.98529   0.15738   0.84827   0.00000  Uiso   1.00
C1678  C     0.84165   0.02395   0.79549   0.00000  Uiso   1.00
C1679  C     0.82546   0.30946   0.87121   0.00000  Uiso   1.00
C1680  C     0.83301   0.31512   0.79240   0.00000  Uiso   1.00
H1681  H     0.84872   0.04205   0.76588   0.00000  Uiso   1.00
H1682  H     0.92303   0.05624   0.91337   0.00000  Uiso   1.00
H1683  H     0.93688   0.08364   0.98866   0.00000  Uiso   1.00
H1684  H     0.86547   0.07637   0.70383   0.00000  Uiso   1.00
H1685  H     0.78004   0.03680   0.67699   0.00000  Uiso   1.00
H1686  H     0.76474   0.01413   0.93505   0.00000  Uiso   1.00
H1687  H     0.89943   0.21727   0.74481   0.00000  Uiso   1.00
H1688  H     0.73207   0.10624   0.96480   0.00000  Uiso   1.00
H1689  H     0.96540   0.15535   0.97268   0.00000  Uiso   1.00
H1690  H     0.71090   0.19001   0.94252   0.00000  Uiso   1.00
H1691  H     0.70855   0.25951   0.90690   0.00000  Uiso   1.00
H1692  H     0.81825   0.29139   0.90078   0.00000  Uiso   1.00
H1693  H     0.96034   0.29502   0.90209   0.00000  Uiso   1.00
H1694  H     0.88326   0.26089   0.93341   0.00000  Uiso   1.00
H1695  H     0.78268   0.07210   0.73389   0.00000  Uiso   1.00
H1696  H     0.70531   0.03882   0.76537   0.00000  Uiso   1.00
H1697  H     0.95753   0.07490   0.76021   0.00000  Uiso   1.00
H1698  H     0.95592   0.14428   0.72418   0.00000  Uiso   1.00
H1699  H     0.70177   0.17824   0.69395   0.00000  Uiso   1.00
H1700  H     0.69069   0.21647   0.76979   0.00000  Uiso   1.00
H1701  H     0.97596   0.11686   0.89684   0.00000  Uiso   1.00
H1702  H     0.90149   0.32013   0.73084   0.00000  Uiso   1.00
H1703  H     0.88530   0.29794   0.98874   0.00000  Uiso   1.00
H1704  H     0.80010   0.25765   0.96262   0.00000  Uiso   1.00
H1705  H     0.72948   0.24965   0.67855   0.00000  Uiso   1.00
H1706  H     0.74405   0.27672   0.75395   0.00000  Uiso   1.00
N1707  N     0.83332   0.16666   0.95240   0.00000  Uiso   1.00
N1708  N     0.83335   0.16668   0.71427   0.00000  Uiso   1.00
O1709  O     0.83333   0.10558   0.87154   0.00000  Uiso   1.00
O1710  O     0.67101   0.12827   0.87910   0.00000  Uiso   1.00
O1711  O     0.91136   0.21220   0.71583   0.00000  Uiso   1.00
O1712  O     0.75611   0.12305   0.94656   0.00000  Uiso   1.00
O1713  O     0.83334   0.22775   0.79513   0.00000  Uiso   1.00
O1714  O     0.83333   0.10559   0.79510   0.00000  Uiso   1.00
O1715  O     0.83334   0.22774   0.87157   0.00000  Uiso   1.00
O1716  O     0.75725   0.16666   0.86261   0.00000  Uiso   1.00
O1717  O     0.90942   0.16667   0.80405   0.00000  Uiso   1.00
O1718  O     0.75725   0.16667   0.78617   0.00000  Uiso   1.00
O1719  O     0.90942   0.16666   0.88050   0.00000  Uiso   1.00
O1720  O     0.99566   0.20512   0.78757   0.00000  Uiso   1.00
Zn1721 Zn    0.83333   0.16666   0.88437   0.00000  Uiso   1.00
Zn1722 Zn    0.83333   0.16667   0.78229   0.00000  Uiso   1.00
C1723  C     0.16923   0.42034   0.83434   0.00000  Uiso   1.00
C1724  C     0.16743   0.35161   0.87429   0.00000  Uiso   1.00
C1725  C     0.16129   0.62400   0.83115   0.00000  Uiso   1.00
C1726  C     0.17240   0.37606   0.83554   0.00000  Uiso   1.00
C1727  C     0.20583   0.52128   0.69263   0.00000  Uiso   1.00
C1728  C     0.12729   0.47878   0.97323   0.00000  Uiso   1.00
C1729  C     0.20670   0.52018   0.97870   0.00000  Uiso   1.00
C1730  C     0.12663   0.47933   0.68792   0.00000  Uiso   1.00
C1731  C     0.15777   0.63203   0.74791   0.00000  Uiso   1.00
C1732  C     0.19742   0.63758   0.71983   0.00000  Uiso   1.00
C1733  C     0.18836   0.62387   0.67687   0.00000  Uiso   1.00
C1734  C     0.16420   0.57968   0.83234   0.00000  Uiso   1.00
C1735  C     0.14031   0.60299   0.99549   0.00000  Uiso   1.00
C1736  C     0.10039   0.59795   0.69005   0.00000  Uiso   1.00
C1737  C     0.10876   0.61305   0.73270   0.00000  Uiso   1.00
C1738  C     0.17567   0.36810   0.91875   0.00000  Uiso   1.00
C1739  C     0.22468   0.38686   0.93431   0.00000  Uiso   1.00
C1740  C     0.23265   0.40214   0.97690   0.00000  Uiso   1.00
C1741  C     0.19227   0.39754   0.67103   0.00000  Uiso   1.00
C1742  C     0.14415   0.37699   0.98926   0.00000  Uiso   1.00
C1743  C     0.13553   0.36306   0.94636   0.00000  Uiso   1.00
C1744  C     0.25284   0.54031   0.95851   0.00000  Uiso   1.00
C1745  C     0.06801   0.50170   0.82234   0.00000  Uiso   1.00
C1746  C     0.29847   0.52004   0.95978   0.00000  Uiso   1.00
C1747  C     0.00922   0.53910   0.94153   0.00000  Uiso   1.00
C1748  C     0.00786   0.57830   0.92119   0.00000  Uiso   1.00
C1749  C     0.29546   0.59826   0.91860   0.00000  Uiso   1.00
C1750  C     0.25170   0.57914   0.93695   0.00000  Uiso   1.00
C1751  C     0.08056   0.45979   0.70878   0.00000  Uiso   1.00
C1752  C     0.08122   0.42096   0.73045   0.00000  Uiso   1.00
C1753  C     0.03723   0.40223   0.74879   0.00000  Uiso   1.00
C1754  C     0.32506   0.42250   0.74596   0.00000  Uiso   1.00
C1755  C     0.32411   0.46162   0.72537   0.00000  Uiso   1.00
C1756  C     0.26533   0.49834   0.84433   0.00000  Uiso   1.00
C1757  C     0.03508   0.48032   0.70717   0.00000  Uiso   1.00
C1758  C     0.01473   0.50936   0.81842   0.00000  Uiso   1.00
C1759  C     0.31862   0.49072   0.84827   0.00000  Uiso   1.00
C1760  C     0.17498   0.35728   0.79549   0.00000  Uiso   1.00
C1761  C     0.15879   0.64279   0.87121   0.00000  Uiso   1.00
C1762  C     0.16634   0.64846   0.79240   0.00000  Uiso   1.00
H1763  H     0.18205   0.37538   0.76588   0.00000  Uiso   1.00
H1764  H     0.25637   0.38957   0.91337   0.00000  Uiso   1.00
H1765  H     0.27022   0.41697   0.98866   0.00000  Uiso   1.00
H1766  H     0.19880   0.40970   0.70383   0.00000  Uiso   1.00
H1767  H     0.11338   0.37014   0.67699   0.00000  Uiso   1.00
H1768  H     0.09807   0.34746   0.93505   0.00000  Uiso   1.00
H1769  H     0.23276   0.55060   0.74481   0.00000  Uiso   1.00
H1770  H     0.06540   0.43957   0.96480   0.00000  Uiso   1.00
H1771  H     0.29873   0.48868   0.97268   0.00000  Uiso   1.00
H1772  H     0.04424   0.52335   0.94252   0.00000  Uiso   1.00
H1773  H     0.04188   0.59285   0.90690   0.00000  Uiso   1.00
H1774  H     0.15159   0.62472   0.90078   0.00000  Uiso   1.00
H1775  H     0.29367   0.62835   0.90209   0.00000  Uiso   1.00
H1776  H     0.21659   0.59422   0.93341   0.00000  Uiso   1.00
H1777  H     0.11602   0.40543   0.73389   0.00000  Uiso   1.00
H1778  H     0.03864   0.37216   0.76537   0.00000  Uiso   1.00
H1779  H     0.29087   0.40824   0.76021   0.00000  Uiso   1.00
H1780  H     0.28925   0.47761   0.72418   0.00000  Uiso   1.00
H1781  H     0.03510   0.51158   0.69395   0.00000  Uiso   1.00
H1782  H     0.02403   0.54980   0.76979   0.00000  Uiso   1.00
H1783  H     0.30929   0.45019   0.89684   0.00000  Uiso   1.00
H1784  H     0.23482   0.65346   0.73084   0.00000  Uiso   1.00
H1785  H     0.21864   0.63127   0.98874   0.00000  Uiso   1.00
H1786  H     0.13343   0.59098   0.96262   0.00000  Uiso   1.00
H1787  H     0.06281   0.58298   0.67855   0.00000  Uiso   1.00
H1788  H     0.07738   0.61005   0.75395   0.00000  Uiso   1.00
N1789  N     0.16665   0.49999   0.95240   0.00000  Uiso   1.00
N1790  N     0.16668   0.50001   0.71427   0.00000  Uiso   1.00
O1791  O     0.16666   0.43892   0.87154   0.00000  Uiso   1.00
O1792  O     0.00434   0.46160   0.87910   0.00000  Uiso   1.00
O1793  O     0.24470   0.54553   0.71583   0.00000  Uiso   1.00
O1794  O     0.08945   0.45639   0.94656   0.00000  Uiso   1.00
O1795  O     0.16667   0.56108   0.79513   0.00000  Uiso   1.00
O1796  O     0.16666   0.43893   0.79510   0.00000  Uiso   1.00
O1797  O     0.16667   0.56107   0.87157   0.00000  Uiso   1.00
O1798  O     0.09058   0.50000   0.86261   0.00000  Uiso   1.00
O1799  O     0.24275   0.50000   0.80405   0.00000  Uiso   1.00
O1800  O     0.09058   0.50000   0.78617   0.00000  Uiso   1.00
O1801  O     0.24275   0.50000   0.88050   0.00000  Uiso   1.00
O1802  O     0.32900   0.53845   0.78757   0.00000  Uiso   1.00
Zn1803 Zn    0.16667   0.49999   0.88437   0.00000  Uiso   1.00
Zn1804 Zn    0.16667   0.50001   0.78229   0.00000  Uiso   1.00
C1805  C     0.50256   0.42034   0.83434   0.00000  Uiso   1.00
C1806  C     0.50076   0.35161   0.87429   0.00000  Uiso   1.00
C1807  C     0.49462   0.62400   0.83115   0.00000  Uiso   1.00
C1808  C     0.50574   0.37606   0.83554   0.00000  Uiso   1.00
C1809  C     0.53916   0.52128   0.69263   0.00000  Uiso   1.00
C1810  C     0.46062   0.47878   0.97323   0.00000  Uiso   1.00
C1811  C     0.54003   0.52018   0.97870   0.00000  Uiso   1.00
C1812  C     0.45997   0.47933   0.68792   0.00000  Uiso   1.00
C1813  C     0.49111   0.63203   0.74791   0.00000  Uiso   1.00
C1814  C     0.53076   0.63758   0.71983   0.00000  Uiso   1.00
C1815  C     0.52169   0.62387   0.67687   0.00000  Uiso   1.00
C1816  C     0.49754   0.57968   0.83234   0.00000  Uiso   1.00
C1817  C     0.47365   0.60299   0.99549   0.00000  Uiso   1.00
C1818  C     0.43372   0.59795   0.69005   0.00000  Uiso   1.00
C1819  C     0.44210   0.61305   0.73270   0.00000  Uiso   1.00
C1820  C     0.50900   0.36810   0.91875   0.00000  Uiso   1.00
C1821  C     0.55801   0.38686   0.93431   0.00000  Uiso   1.00
C1822  C     0.56598   0.40214   0.97690   0.00000  Uiso   1.00
C1823  C     0.52560   0.39754   0.67103   0.00000  Uiso   1.00
C1824  C     0.47749   0.37699   0.98926   0.00000  Uiso   1.00
C1825  C     0.46887   0.36306   0.94636   0.00000  Uiso   1.00
C1826  C     0.58618   0.54031   0.95851   0.00000  Uiso   1.00
C1827  C     0.40134   0.50170   0.82234   0.00000  Uiso   1.00
C1828  C     0.63180   0.52004   0.95978   0.00000  Uiso   1.00
C1829  C     0.34255   0.53910   0.94153   0.00000  Uiso   1.00
C1830  C     0.34119   0.57830   0.92119   0.00000  Uiso   1.00
C1831  C     0.62880   0.59826   0.91860   0.00000  Uiso   1.00
C1832  C     0.58504   0.57914   0.93695   0.00000  Uiso   1.00
C1833  C     0.41389   0.45979   0.70878   0.00000  Uiso   1.00
C1834  C     0.41456   0.42096   0.73045   0.00000  Uiso   1.00
C1835  C     0.37057   0.40223   0.74879   0.00000  Uiso   1.00
C1836  C     0.65839   0.42250   0.74596   0.00000  Uiso   1.00
C1837  C     0.65744   0.46162   0.72537   0.00000  Uiso   1.00
C1838  C     0.59866   0.49834   0.84433   0.00000  Uiso   1.00
C1839  C     0.36842   0.48032   0.70717   0.00000  Uiso   1.00
C1840  C     0.34806   0.50936   0.81842   0.00000  Uiso   1.00
C1841  C     0.65195   0.49072   0.84827   0.00000  Uiso   1.00
C1842  C     0.50832   0.35728   0.79549   0.00000  Uiso   1.00
C1843  C     0.49213   0.64279   0.87121   0.00000  Uiso   1.00
C1844  C     0.49967   0.64846   0.79240   0.00000  Uiso   1.00
H1845  H     0.51539   0.37538   0.76588   0.00000  Uiso   1.00
H1846  H     0.58970   0.38957   0.91337   0.00000  Uiso   1.00
H1847  H     0.60355   0.41697   0.98866   0.00000  Uiso   1.00
H1848  H     0.53213   0.40970   0.70383   0.00000  Uiso   1.00
H1849  H     0.44671   0.37014   0.67699   0.00000  Uiso   1.00
H1850  H     0.43140   0.34746   0.93505   0.00000  Uiso   1.00
H1851  H     0.56610   0.55060   0.74481   0.00000  Uiso   1.00
H1852  H     0.39873   0.43957   0.96480   0.00000  Uiso   1.00
H1853  H     0.63206   0.48868   0.97268   0.00000  Uiso   1.00
H1854  H     0.37757   0.52335   0.94252   0.00000  Uiso   1.00
H1855  H     0.37521   0.59285   0.90690   0.00000  Uiso   1.00
H1856  H     0.48492   0.62472   0.90078   0.00000  Uiso   1.00
H1857  H     0.62701   0.62835   0.90209   0.00000  Uiso   1.00
H1858  H     0.54992   0.59422   0.93341   0.00000  Uiso   1.00
H1859  H     0.44935   0.40543   0.73389   0.00000  Uiso   1.00
H1860  H     0.37197   0.37216   0.76537   0.00000  Uiso   1.00
H1861  H     0.62420   0.40824   0.76021   0.00000  Uiso   1.00
H1862  H     0.62259   0.47761   0.72418   0.00000  Uiso   1.00
H1863  H     0.36844   0.51158   0.69395   0.00000  Uiso   1.00
H1864  H     0.35736   0.54980   0.76979   0.00000  Uiso   1.00
H1865  H     0.64262   0.45019   0.89684   0.00000  Uiso   1.00
H1866  H     0.56815   0.65346   0.73084   0.00000  Uiso   1.00
H1867  H     0.55197   0.63127   0.98874   0.00000  Uiso   1.00
H1868  H     0.46676   0.59098   0.96262   0.00000  Uiso   1.00
H1869  H     0.39615   0.58298   0.67855   0.00000  Uiso   1.00
H1870  H     0.41072   0.61005   0.75395   0.00000  Uiso   1.00
N1871  N     0.49999   0.49999   0.95240   0.00000  Uiso   1.00
N1872  N     0.50001   0.50001   0.71427   0.00000  Uiso   1.00
O1873  O     0.50000   0.43892   0.87154   0.00000  Uiso   1.00
O1874  O     0.33768   0.46160   0.87910   0.00000  Uiso   1.00
O1875  O     0.57803   0.54553   0.71583   0.00000  Uiso   1.00
O1876  O     0.42278   0.45639   0.94656   0.00000  Uiso   1.00
O1877  O     0.50000   0.56108   0.79513   0.00000  Uiso   1.00
O1878  O     0.50000   0.43893   0.79510   0.00000  Uiso   1.00
O1879  O     0.50000   0.56107   0.87157   0.00000  Uiso   1.00
O1880  O     0.42392   0.50000   0.86261   0.00000  Uiso   1.00
O1881  O     0.57608   0.50000   0.80405   0.00000  Uiso   1.00
O1882  O     0.42392   0.50000   0.78617   0.00000  Uiso   1.00
O1883  O     0.57608   0.50000   0.88050   0.00000  Uiso   1.00
O1884  O     0.66233   0.53845   0.78757   0.00000  Uiso   1.00
Zn1885 Zn    0.50000   0.49999   0.88437   0.00000  Uiso   1.00
Zn1886 Zn    0.50000   0.50001   0.78229   0.00000  Uiso   1.00
C1887  C     0.83589   0.42034   0.83434   0.00000  Uiso   1.00
C1888  C     0.83409   0.35161   0.87429   0.00000  Uiso   1.00
C1889  C     0.82795   0.62400   0.83115   0.00000  Uiso   1.00
C1890  C     0.83907   0.37606   0.83554   0.00000  Uiso   1.00
C1891  C     0.87250   0.52128   0.69263   0.00000  Uiso   1.00
C1892  C     0.79395   0.47878   0.97323   0.00000  Uiso   1.00
C1893  C     0.87337   0.52018   0.97870   0.00000  Uiso   1.00
C1894  C     0.79330   0.47933   0.68792   0.00000  Uiso   1.00
C1895  C     0.82444   0.63203   0.74791   0.00000  Uiso   1.00
C1896  C     0.86409   0.63758   0.71983   0.00000  Uiso   1.00
C1897  C     0.85502   0.62387   0.67687   0.00000  Uiso   1.00
C1898  C     0.83087   0.57968   0.83234   0.00000  Uiso   1.00
C1899  C     0.80698   0.60299   0.99549   0.00000  Uiso   1.00
C1900  C     0.76705   0.59795   0.69005   0.00000  Uiso   1.00
C1901  C     0.77543   0.61305   0.73270   0.00000  Uiso   1.00
C1902  C     0.84233   0.36810   0.91875   0.00000  Uiso   1.00
C1903  C     0.89135   0.38686   0.93431   0.00000  Uiso   1.00
C1904  C     0.89932   0.40214   0.97690   0.00000  Uiso   1.00
C1905  C     0.85894   0.39754   0.67103   0.00000  Uiso   1.00
C1906  C     0.81082   0.37699   0.98926   0.00000  Uiso   1.00
C1907  C     0.80220   0.36306   0.94636   0.00000  Uiso   1.00
C1908  C     0.91951   0.54031   0.95851   0.00000  Uiso   1.00
C1909  C     0.73468   0.50170   0.82234   0.00000  Uiso   1.00
C1910  C     0.96514   0.52004   0.95978   0.00000  Uiso   1.00
C1911  C     0.67589   0.53910   0.94153   0.00000  Uiso   1.00
C1912  C     0.67453   0.57830   0.92119   0.00000  Uiso   1.00
C1913  C     0.96213   0.59826   0.91860   0.00000  Uiso   1.00
C1914  C     0.91837   0.57914   0.93695   0.00000  Uiso   1.00
C1915  C     0.74722   0.45979   0.70878   0.00000  Uiso   1.00
C1916  C     0.74789   0.42096   0.73045   0.00000  Uiso   1.00
C1917  C     0.70390   0.40223   0.74879   0.00000  Uiso   1.00
C1918  C     0.99172   0.42250   0.74596   0.00000  Uiso   1.00
C1919  C     0.99078   0.46162   0.72537   0.00000  Uiso   1.00
C1920  C     0.93200   0.49834   0.84433   0.00000  Uiso   1.00
C1921  C     0.70175   0.48032   0.70717   0.00000  Uiso   1.00
C1922  C     0.68140   0.50936   0.81842   0.00000  Uiso   1.00
C1923  C     0.98529   0.49072   0.84827   0.00000  Uiso   1.00
C1924  C     0.84165   0.35728   0.79549   0.00000  Uiso   1.00
C1925  C     0.82546   0.64279   0.87121   0.00000  Uiso   1.00
C1926  C     0.83301   0.64846   0.79240   0.00000  Uiso   1.00
H1927  H     0.84872   0.37538   0.76588   0.00000  Uiso   1.00
H1928  H     0.92303   0.38957   0.91337   0.00000  Uiso   1.00
H1929  H     0.93688   0.41697   0.98866   0.00000  Uiso   1.00
H1930  H     0.86547   0.40970   0.70383   0.00000  Uiso   1.00
H1931  H     0.78004   0.37014   0.67699   0.00000  Uiso   1.00
H1932  H     0.76474   0.34746   0.93505   0.00000  Uiso   1.00
H1933  H     0.89943   0.55060   0.74481   0.00000  Uiso   1.00
H1934  H     0.73207   0.43957   0.96480   0.00000  Uiso   1.00
H1935  H     0.96540   0.48868   0.97268   0.00000  Uiso   1.00
H1936  H     0.71090   0.52335   0.94252   0.00000  Uiso   1.00
H1937  H     0.70855   0.59285   0.90690   0.00000  Uiso   1.00
H1938  H     0.81825   0.62472   0.90078   0.00000  Uiso   1.00
H1939  H     0.96034   0.62835   0.90209   0.00000  Uiso   1.00
H1940  H     0.88326   0.59422   0.93341   0.00000  Uiso   1.00
H1941  H     0.78268   0.40543   0.73389   0.00000  Uiso   1.00
H1942  H     0.70531   0.37216   0.76537   0.00000  Uiso   1.00
H1943  H     0.95753   0.40824   0.76021   0.00000  Uiso   1.00
H1944  H     0.95592   0.47761   0.72418   0.00000  Uiso   1.00
H1945  H     0.70177   0.51158   0.69395   0.00000  Uiso   1.00
H1946  H     0.69069   0.54980   0.76979   0.00000  Uiso   1.00
H1947  H     0.97596   0.45019   0.89684   0.00000  Uiso   1.00
H1948  H     0.90149   0.65346   0.73084   0.00000  Uiso   1.00
H1949  H     0.88530   0.63127   0.98874   0.00000  Uiso   1.00
H1950  H     0.80010   0.59098   0.96262   0.00000  Uiso   1.00
H1951  H     0.72948   0.58298   0.67855   0.00000  Uiso   1.00
H1952  H     0.74405   0.61005   0.75395   0.00000  Uiso   1.00
N1953  N     0.83332   0.49999   0.95240   0.00000  Uiso   1.00
N1954  N     0.83335   0.50001   0.71427   0.00000  Uiso   1.00
O1955  O     0.83333   0.43892   0.87154   0.00000  Uiso   1.00
O1956  O     0.67101   0.46160   0.87910   0.00000  Uiso   1.00
O1957  O     0.91136   0.54553   0.71583   0.00000  Uiso   1.00
O1958  O     0.75611   0.45639   0.94656   0.00000  Uiso   1.00
O1959  O     0.83334   0.56108   0.79513   0.00000  Uiso   1.00
O1960  O     0.83333   0.43893   0.79510   0.00000  Uiso   1.00
O1961  O     0.83334   0.56107   0.87157   0.00000  Uiso   1.00
O1962  O     0.75725   0.50000   0.86261   0.00000  Uiso   1.00
O1963  O     0.90942   0.50000   0.80405   0.00000  Uiso   1.00
O1964  O     0.75725   0.50000   0.78617   0.00000  Uiso   1.00
O1965  O     0.90942   0.50000   0.88050   0.00000  Uiso   1.00
O1966  O     0.99566   0.53845   0.78757   0.00000  Uiso   1.00
Zn1967 Zn    0.83333   0.49999   0.88437   0.00000  Uiso   1.00
Zn1968 Zn    0.83333   0.50001   0.78229   0.00000  Uiso   1.00
C1969  C     0.16923   0.75367   0.83434   0.00000  Uiso   1.00
C1970  C     0.16743   0.68494   0.87429   0.00000  Uiso   1.00
C1971  C     0.16129   0.95733   0.83115   0.00000  Uiso   1.00
C1972  C     0.17240   0.70939   0.83554   0.00000  Uiso   1.00
C1973  C     0.20583   0.85461   0.69263   0.00000  Uiso   1.00
C1974  C     0.12729   0.81211   0.97323   0.00000  Uiso   1.00
C1975  C     0.20670   0.85351   0.97870   0.00000  Uiso   1.00
C1976  C     0.12663   0.81267   0.68792   0.00000  Uiso   1.00
C1977  C     0.15777   0.96536   0.74791   0.00000  Uiso   1.00
C1978  C     0.19742   0.97092   0.71983   0.00000  Uiso   1.00
C1979  C     0.18836   0.95720   0.67687   0.00000  Uiso   1.00
C1980  C     0.16420   0.91302   0.83234   0.00000  Uiso   1.00
C1981  C     0.14031   0.93633   0.99549   0.00000  Uiso   1.00
C1982  C     0.10039   0.93129   0.69005   0.00000  Uiso   1.00
C1983  C     0.10876   0.94638   0.73270   0.00000  Uiso   1.00
C1984  C     0.17567   0.70143   0.91875   0.00000  Uiso   1.00
C1985  C     0.22468   0.72019   0.93431   0.00000  Uiso   1.00
C1986  C     0.23265   0.73547   0.97690   0.00000  Uiso   1.00
C1987  C     0.19227   0.73087   0.67103   0.00000  Uiso   1.00
C1988  C     0.14415   0.71032   0.98926   0.00000  Uiso   1.00
C1989  C     0.13553   0.69640   0.94636   0.00000  Uiso   1.00
C1990  C     0.25284   0.87365   0.95851   0.00000  Uiso   1.00
C1991  C     0.06801   0.83503   0.82234   0.00000  Uiso   1.00
C1992  C     0.29847   0.85337   0.95978   0.00000  Uiso   1.00
C1993  C     0.00922   0.87243   0.94153   0.00000  Uiso   1.00
C1994  C     0.00786   0.91164   0.92119   0.00000  Uiso   1.00
C1995  C     0.29546   0.93160   0.91860   0.00000  Uiso   1.00
C1996  C     0.25170   0.91247   0.93695   0.00000  Uiso   1.00
C1997  C     0.08056   0.79312   0.70878   0.00000  Uiso   1.00
C1998  C     0.08122   0.75429   0.73045   0.00000  Uiso   1.00
C1999  C     0.03723   0.73557   0.74879   0.00000  Uiso   1.00
C2000  C     0.32506   0.75583   0.74596   0.00000  Uiso   1.00
C2001  C     0.32411   0.79495   0.72537   0.00000  Uiso   1.00
C2002  C     0.26533   0.83167   0.84433   0.00000  Uiso   1.00
C2003  C     0.03508   0.81365   0.70717   0.00000  Uiso   1.00
C2004  C     0.01473   0.84269   0.81842   0.00000  Uiso   1.00
C2005  C     0.31862   0.82405   0.84827   0.00000  Uiso   1.00
C2006  C     0.17498   0.69062   0.79549   0.00000  Uiso   1.00
C2007  C     0.15879   0.97612   0.87121   0.00000  Uiso   1.00
C2008  C     0.16634   0.98179   0.79240   0.00000  Uiso   1.00
H2009  H     0.18205   0.70872   0.76588   0.00000  Uiso   1.00
H2010  H     0.25637   0.72290   0.91337   0.00000  Uiso   1.00
H2011  H     0.27022   0.75030   0.98866   0.00000  Uiso   1.00
H2012  H     0.19880   0.74304   0.70383   0.00000  Uiso   1.00
H2013  H     0.11338   0.70347   0.67699   0.00000  Uiso   1.00
H2014  H     0.09807   0.68079   0.93505   0.00000  Uiso   1.00
H2015  H     0.23276   0.88394   0.74481   0.00000  Uiso   1.00
H2016  H     0.06540   0.77290   0.96480   0.00000  Uiso   1.00
H2017  H     0.29873   0.82201   0.97268   0.00000  Uiso   1.00
H2018  H     0.04424   0.85668   0.94252   0.00000  Uiso   1.00
H2019  H     0.04188   0.92618   0.90690   0.00000  Uiso   1.00
H2020  H     0.15159   0.95806   0.90078   0.00000  Uiso   1.00
H2021  H     0.29367   0.96168   0.90209   0.00000  Uiso   1.00
H2022  H     0.21659   0.92755   0.93341   0.00000  Uiso   1.00
H2023  H     0.11602   0.73877   0.73389   0.00000  Uiso   1.00
H2024  H     0.03864   0.70549   0.76537   0.00000  Uiso   1.00
H2025  H     0.29087   0.74157   0.76021   0.00000  Uiso   1.00
H2026  H     0.28925   0.81095   0.72418   0.00000  Uiso   1.00
H2027  H     0.03510   0.84491   0.69395   0.00000  Uiso   1.00
H2028  H     0.02403   0.88313   0.76979   0.00000  Uiso   1.00
H2029  H     0.30929   0.78353   0.89684   0.00000  Uiso   1.00
H2030  H     0.23482   0.98679   0.73084   0.00000  Uiso   1.00
H2031  H     0.21864   0.96461   0.98874   0.00000  Uiso   1.00
H2032  H     0.13343   0.92432   0.96262   0.00000  Uiso   1.00
H2033  H     0.06281   0.91631   0.67855   0.00000  Uiso   1.00
H2034  H     0.07738   0.94338   0.75395   0.00000  Uiso   1.00
N2035  N     0.16665   0.83332   0.95240   0.00000  Uiso   1.00
N2036  N     0.16668   0.83334   0.71427   0.00000  Uiso   1.00
O2037  O     0.16666   0.77225   0.87154   0.00000  Uiso   1.00
O2038  O     0.00434   0.79493   0.87910   0.00000  Uiso   1.00
O2039  O     0.24470   0.87887   0.71583   0.00000  Uiso   1.00
O2040  O     0.08945   0.78972   0.94656   0.00000  Uiso   1.00
O2041  O     0.16667   0.89442   0.79513   0.00000  Uiso   1.00
O2042  O     0.16666   0.77226   0.79510   0.00000  Uiso   1.00
O2043  O     0.16667   0.89441   0.87157   0.00000  Uiso   1.00
O2044  O     0.09058   0.83333   0.86261   0.00000  Uiso   1.00
O2045  O     0.24275   0.83334   0.80405   0.00000  Uiso   1.00
O2046  O     0.09058   0.83334   0.78617   0.00000  Uiso   1.00
O2047  O     0.24275   0.83333   0.88050   0.00000  Uiso   1.00
O2048  O     0.32900   0.87178   0.78757   0.00000  Uiso   1.00
Zn2049 Zn    0.16667   0.83333   0.88437   0.00000  Uiso   1.00
Zn2050 Zn    0.16667   0.83334   0.78229   0.00000  Uiso   1.00
C2051  C     0.50256   0.75367   0.83434   0.00000  Uiso   1.00
C2052  C     0.50076   0.68494   0.87429   0.00000  Uiso   1.00
C2053  C     0.49462   0.95733   0.83115   0.00000  Uiso   1.00
C2054  C     0.50574   0.70939   0.83554   0.00000  Uiso   1.00
C2055  C     0.53916   0.85461   0.69263   0.00000  Uiso   1.00
C2056  C     0.46062   0.81211   0.97323   0.00000  Uiso   1.00
C2057  C     0.54003   0.85351   0.97870   0.00000  Uiso   1.00
C2058  C     0.45997   0.81267   0.68792   0.00000  Uiso   1.00
C2059  C     0.49111   0.96536   0.74791   0.00000  Uiso   1.00
C2060  C     0.53076   0.97092   0.71983   0.00000  Uiso   1.00
C2061  C     0.52169   0.95720   0.67687   0.00000  Uiso   1.00
C2062  C     0.49754   0.91302   0.83234   0.00000  Uiso   1.00
C2063  C     0.47365   0.93633   0.99549   0.00000  Uiso   1.00
C2064  C     0.43372   0.93129   0.69005   0.00000  Uiso   1.00
C2065  C     0.44210   0.94638   0.73270   0.00000  Uiso   1.00
C2066  C     0.50900   0.70143   0.91875   0.00000  Uiso   1.00
C2067  C     0.55801   0.72019   0.93431   0.00000  Uiso   1.00
C2068  C     0.56598   0.73547   0.97690   0.00000  Uiso   1.00
C2069  C     0.52560   0.73087   0.67103   0.00000  Uiso   1.00
C2070  C     0.47749   0.71032   0.98926   0.00000  Uiso   1.00
C2071  C     0.46887   0.69640   0.94636   0.00000  Uiso   1.00
C2072  C     0.58618   0.87365   0.95851   0.00000  Uiso   1.00
C2073  C     0.40134   0.83503   0.82234   0.00000  Uiso   1.00
C2074  C     0.63180   0.85337   0.95978   0.00000  Uiso   1.00
C2075  C     0.34255   0.87243   0.94153   0.00000  Uiso   1.00
C2076  C     0.34119   0.91164   0.92119   0.00000  Uiso   1.00
C2077  C     0.62880   0.93160   0.91860   0.00000  Uiso   1.00
C2078  C     0.58504   0.91247   0.93695   0.00000  Uiso   1.00
C2079  C     0.41389   0.79312   0.70878   0.00000  Uiso   1.00
C2080  C     0.41456   0.75429   0.73045   0.00000  Uiso   1.00
C2081  C     0.37057   0.73557   0.74879   0.00000  Uiso   1.00
C2082  C     0.65839   0.75583   0.74596   0.00000  Uiso   1.00
C2083  C     0.65744   0.79495   0.72537   0.00000  Uiso   1.00
C2084  C     0.59866   0.83167   0.84433   0.00000  Uiso   1.00
C2085  C     0.36842   0.81365   0.70717   0.00000  Uiso   1.00
C2086  C     0.34806   0.84269   0.81842   0.00000  Uiso   1.00
C2087  C     0.65195   0.82405   0.84827   0.00000  Uiso   1.00
C2088  C     0.50832   0.69062   0.79549   0.00000  Uiso   1.00
C2089  C     0.49213   0.97612   0.87121   0.00000  Uiso   1.00
C2090  C     0.49967   0.98179   0.79240   0.00000  Uiso   1.00
H2091  H     0.51539   0.70872   0.76588   0.00000  Uiso   1.00
H2092  H     0.58970   0.72290   0.91337   0.00000  Uiso   1.00
H2093  H     0.60355   0.75030   0.98866   0.00000  Uiso   1.00
H2094  H     0.53213   0.74304   0.70383   0.00000  Uiso   1.00
H2095  H     0.44671   0.70347   0.67699   0.00000  Uiso   1.00
H2096  H     0.43140   0.68079   0.93505   0.00000  Uiso   1.00
H2097  H     0.56610   0.88394   0.74481   0.00000  Uiso   1.00
H2098  H     0.39873   0.77290   0.96480   0.00000  Uiso   1.00
H2099  H     0.63206   0.82201   0.97268   0.00000  Uiso   1.00
H2100  H     0.37757   0.85668   0.94252   0.00000  Uiso   1.00
H2101  H     0.37521   0.92618   0.90690   0.00000  Uiso   1.00
H2102  H     0.48492   0.95806   0.90078   0.00000  Uiso   1.00
H2103  H     0.62701   0.96168   0.90209   0.00000  Uiso   1.00
H2104  H     0.54992   0.92755   0.93341   0.00000  Uiso   1.00
H2105  H     0.44935   0.73877   0.73389   0.00000  Uiso   1.00
H2106  H     0.37197   0.70549   0.76537   0.00000  Uiso   1.00
H2107  H     0.62420   0.74157   0.76021   0.00000  Uiso   1.00
H2108  H     0.62259   0.81095   0.72418   0.00000  Uiso   1.00
H2109  H     0.36844   0.84491   0.69395   0.00000  Uiso   1.00
H2110  H     0.35736   0.88313   0.76979   0.00000  Uiso   1.00
H2111  H     0.64262   0.78353   0.89684   0.00000  Uiso   1.00
H2112  H     0.56815   0.98679   0.73084   0.00000  Uiso   1.00
H2113  H     0.55197   0.96461   0.98874   0.00000  Uiso   1.00
H2114  H     0.46676   0.92432   0.96262   0.00000  Uiso   1.00
H2115  H     0.39615   0.91631   0.67855   0.00000  Uiso   1.00
H2116  H     0.41072   0.94338   0.75395   0.00000  Uiso   1.00
N2117  N     0.49999   0.83332   0.95240   0.00000  Uiso   1.00
N2118  N     0.50001   0.83334   0.71427   0.00000  Uiso   1.00
O2119  O     0.50000   0.77225   0.87154   0.00000  Uiso   1.00
O2120  O     0.33768   0.79493   0.87910   0.00000  Uiso   1.00
O2121  O     0.57803   0.87887   0.71583   0.00000  Uiso   1.00
O2122  O     0.42278   0.78972   0.94656   0.00000  Uiso   1.00
O2123  O     0.50000   0.89442   0.79513   0.00000  Uiso   1.00
O2124  O     0.50000   0.77226   0.79510   0.00000  Uiso   1.00
O2125  O     0.50000   0.89441   0.87157   0.00000  Uiso   1.00
O2126  O     0.42392   0.83333   0.86261   0.00000  Uiso   1.00
O2127  O     0.57608   0.83334   0.80405   0.00000  Uiso   1.00
O2128  O     0.42392   0.83334   0.78617   0.00000  Uiso   1.00
O2129  O     0.57608   0.83333   0.88050   0.00000  Uiso   1.00
O2130  O     0.66233   0.87178   0.78757   0.00000  Uiso   1.00
Zn2131 Zn    0.50000   0.83333   0.88437   0.00000  Uiso   1.00
Zn2132 Zn    0.50000   0.83334   0.78229   0.00000  Uiso   1.00
C2133  C     0.83589   0.75367   0.83434   0.00000  Uiso   1.00
C2134  C     0.83409   0.68494   0.87429   0.00000  Uiso   1.00
C2135  C     0.82795   0.95733   0.83115   0.00000  Uiso   1.00
C2136  C     0.83907   0.70939   0.83554   0.00000  Uiso   1.00
C2137  C     0.87250   0.85461   0.69263   0.00000  Uiso   1.00
C2138  C     0.79395   0.81211   0.97323   0.00000  Uiso   1.00
C2139  C     0.87337   0.85351   0.97870   0.00000  Uiso   1.00
C2140  C     0.79330   0.81267   0.68792   0.00000  Uiso   1.00
C2141  C     0.82444   0.96536   0.74791   0.00000  Uiso   1.00
C2142  C     0.86409   0.97092   0.71983   0.00000  Uiso   1.00
C2143  C     0.85502   0.95720   0.67687   0.00000  Uiso   1.00
C2144  C     0.83087   0.91302   0.83234   0.00000  Uiso   1.00
C2145  C     0.80698   0.93633   0.99549   0.00000  Uiso   1.00
C2146  C     0.76705   0.93129   0.69005   0.00000  Uiso   1.00
C2147  C     0.77543   0.94638   0.73270   0.00000  Uiso   1.00
C2148  C     0.84233   0.70143   0.91875   0.00000  Uiso   1.00
C2149  C     0.89135   0.72019   0.93431   0.00000  Uiso   1.00
C2150  C     0.89932   0.73547   0.97690   0.00000  Uiso   1.00
C2151  C     0.85894   0.73087   0.67103   0.00000  Uiso   1.00
C2152  C     0.81082   0.71032   0.98926   0.00000  Uiso   1.00
C2153  C     0.80220   0.69640   0.94636   0.00000  Uiso   1.00
C2154  C     0.91951   0.87365   0.95851   0.00000  Uiso   1.00
C2155  C     0.73468   0.83503   0.82234   0.00000  Uiso   1.00
C2156  C     0.96514   0.85337   0.95978   0.00000  Uiso   1.00
C2157  C     0.67589   0.87243   0.94153   0.00000  Uiso   1.00
C2158  C     0.67453   0.91164   0.92119   0.00000  Uiso   1.00
C2159  C     0.96213   0.93160   0.91860   0.00000  Uiso   1.00
C2160  C     0.91837   0.91247   0.93695   0.00000  Uiso   1.00
C2161  C     0.74722   0.79312   0.70878   0.00000  Uiso   1.00
C2162  C     0.74789   0.75429   0.73045   0.00000  Uiso   1.00
C2163  C     0.70390   0.73557   0.74879   0.00000  Uiso   1.00
C2164  C     0.99172   0.75583   0.74596   0.00000  Uiso   1.00
C2165  C     0.99078   0.79495   0.72537   0.00000  Uiso   1.00
C2166  C     0.93200   0.83167   0.84433   0.00000  Uiso   1.00
C2167  C     0.70175   0.81365   0.70717   0.00000  Uiso   1.00
C2168  C     0.68140   0.84269   0.81842   0.00000  Uiso   1.00
C2169  C     0.98529   0.82405   0.84827   0.00000  Uiso   1.00
C2170  C     0.84165   0.69062   0.79549   0.00000  Uiso   1.00
C2171  C     0.82546   0.97612   0.87121   0.00000  Uiso   1.00
C2172  C     0.83301   0.98179   0.79240   0.00000  Uiso   1.00
H2173  H     0.84872   0.70872   0.76588   0.00000  Uiso   1.00
H2174  H     0.92303   0.72290   0.91337   0.00000  Uiso   1.00
H2175  H     0.93688   0.75030   0.98866   0.00000  Uiso   1.00
H2176  H     0.86547   0.74304   0.70383   0.00000  Uiso   1.00
H2177  H     0.78004   0.70347   0.67699   0.00000  Uiso   1.00
H2178  H     0.76474   0.68079   0.93505   0.00000  Uiso   1.00
H2179  H     0.89943   0.88394   0.74481   0.00000  Uiso   1.00
H2180  H     0.73207   0.77290   0.96480   0.00000  Uiso   1.00
H2181  H     0.96540   0.82201   0.97268   0.00000  Uiso   1.00
H2182  H     0.71090   0.85668   0.94252   0.00000  Uiso   1.00
H2183  H     0.70855   0.92618   0.90690   0.00000  Uiso   1.00
H2184  H     0.81825   0.95806   0.90078   0.00000  Uiso   1.00
H2185  H     0.96034   0.96168   0.90209   0.00000  Uiso   1.00
H2186  H     0.88326   0.92755   0.93341   0.00000  Uiso   1.00
H2187  H     0.78268   0.73877   0.73389   0.00000  Uiso   1.00
H2188  H     0.70531   0.70549   0.76537   0.00000  Uiso   1.00
H2189  H     0.95753   0.74157   0.76021   0.00000  Uiso   1.00
H2190  H     0.95592   0.81095   0.72418   0.00000  Uiso   1.00
H2191  H     0.70177   0.84491   0.69395   0.00000  Uiso   1.00
H2192  H     0.69069   0.88313   0.76979   0.00000  Uiso   1.00
H2193  H     0.97596   0.78353   0.89684   0.00000  Uiso   1.00
H2194  H     0.90149   0.98679   0.73084   0.00000  Uiso   1.00
H2195  H     0.88530   0.96461   0.98874   0.00000  Uiso   1.00
H2196  H     0.80010   0.92432   0.96262   0.00000  Uiso   1.00
H2197  H     0.72948   0.91631   0.67855   0.00000  Uiso   1.00
H2198  H     0.74405   0.94338   0.75395   0.00000  Uiso   1.00
N2199  N     0.83332   0.83332   0.95240   0.00000  Uiso   1.00
N2200  N     0.83335   0.83334   0.71427   0.00000  Uiso   1.00
O2201  O     0.83333   0.77225   0.87154   0.00000  Uiso   1.00
O2202  O     0.67101   0.79493   0.87910   0.00000  Uiso   1.00
O2203  O     0.91136   0.87887   0.71583   0.00000  Uiso   1.00
O2204  O     0.75611   0.78972   0.94656   0.00000  Uiso   1.00
O2205  O     0.83334   0.89442   0.79513   0.00000  Uiso   1.00
O2206  O     0.83333   0.77226   0.79510   0.00000  Uiso   1.00
O2207  O     0.83334   0.89441   0.87157   0.00000  Uiso   1.00
O2208  O     0.75725   0.83333   0.86261   0.00000  Uiso   1.00
O2209  O     0.90942   0.83334   0.80405   0.00000  Uiso   1.00
O2210  O     0.75725   0.83334   0.78617   0.00000  Uiso   1.00
O2211  O     0.90942   0.83333   0.88050   0.00000  Uiso   1.00
O2212  O     0.99566   0.87178   0.78757   0.00000  Uiso   1.00
Zn2213 Zn    0.83333   0.83333   0.88437   0.00000  Uiso   1.00
Zn2214 Zn    0.83333   0.83334   0.78229   0.00000  Uiso   1.00
loop_
_geom_bond_atom_site_label_1
_geom_bond_atom_site_label_2
_geom_bond_distance
_geom_bond_site_symmetry_2
_ccdc_geom_bond_type
C1     O69     1.313   .     A
C1     O74     1.308   .     A
C1     C4      1.450   .     S
C2     C16     1.460   .     S
C2     C4      1.399   .     A
C2     C531    1.377   1_545 S
C3     C12     1.450   .     S
C3     C39     1.393   .     A
C3     C40     1.400   .     A
C4     C38     1.393   .     A
C5     N68     1.381   .     A
C5     O71     1.375   .     S
C5     C1483   1.436   1_554 S
C6     O72     1.381   .     S
C6     N67     1.371   .     A
C6     C746    1.458   .     S
C7     C22     1.485   .     S
C7     N67     1.377   .     A
C7     C743    1.436   .     S
C8     C29     1.486   .     S
C8     N68     1.385   .     A
C8     C1482   1.458   1_554 S
C9     C10     1.393   .     A
C9     C40     1.460   .     S
C9     C15     1.403   .     A
C10    H62     1.084   .     S
C10    C11     1.385   .     A
C11    C1489   1.403   1_554 S
C11    H1539   1.073   1_554 S
C12    O73     1.313   .     A
C12    O75     1.308   .     A
C13    H64     1.078   .     S
C13    C749    1.403   .     S
C13    C752    1.395   .     S
C14    H65     1.079   .     S
C14    C15     1.392   .     A
C14    C1489   1.395   1_554 S
C15    H66     1.082   .     S
C16    C21     1.393   .     A
C16    C17     1.403   .     A
C17    H42     1.082   .     S
C17    C18     1.392   .     A
C18    H43     1.080   .     S
C18    C757    1.395   .     S
C19    H44     1.078   .     S
C19    C1494   1.395   1_554 S
C19    C1496   1.403   1_554 S
C20    C21     1.385   .     A
C20    C757    1.403   .     S
C20    H783    1.073   .     S
C21    H46     1.084   .     S
C22    C28     1.398   .     A
C22    C24     1.399   .     A
C23    O76     1.298   .     A
C23    O78     1.299   .     A
C23    C36     1.414   .     S
C24    H49     1.078   .     S
C24    C107    1.402   .     S
C25    H50     1.077   .     S
C25    C26     1.395   .     A
C25    C188    1.402   1_455 S
C26    H51     1.083   .     S
C26    C191    1.393   1_455 S
C27    H53     1.083   .     S
C27    C28     1.397   .     A
C27    C108    1.393   .     S
C28    H54     1.064   .     S
C29    C30     1.399   .     A
C29    C35     1.399   .     A
C30    C31     1.397   .     A
C30    H55     1.065   .     S
C31    H56     1.083   .     S
C31    C196    1.393   1_455 S
C32    H57     1.083   .     S
C32    C33     1.394   .     A
C32    C113    1.393   .     S
C33    H58     1.077   .     S
C33    C117    1.402   .     S
C34    C37     1.414   .     S
C34    O77     1.299   .     A
C34    O79     1.299   .     A
C35    H59     1.077   .     S
C35    C197    1.402   1_455 S
C36    C201    1.333   1_455 S
C36    O244    1.387   1_455 S
C37    C118    1.333   .     S
C37    O152    1.387   .     S
C38    H41     1.074   .     S
C38    C532    1.377   1_545 S
C39    H52     1.073   .     S
C39    C248    1.377   .     S
C40    C284    1.377   .     S
H45    C1496   1.073   1_554 S
H47    O71     0.985   .     S
H48    O72     0.988   .     S
H60    O244    0.990   1_455 S
H61    O152    0.990   .     S
H63    C749    1.073   .     S
N67    Zn81    2.061   .     S
N68    Zn82    2.061   .     S
O69    Zn81    2.043   .     S
O70    C201    1.387   1_455 S
O70    H225    0.990   1_455 S
O73    Zn82    2.043   .     S
O74    Zn82    2.009   .     S
O75    Zn81    2.009   .     S
O76    Zn81    2.010   .     S
O77    Zn82    2.010   .     S
O78    Zn82    1.984   .     S
O79    Zn81    1.984   .     S
O80    C118    1.387   .     S
O80    H142    0.990   .     S
C83    O151    1.313   .     A
C83    O156    1.308   .     A
C83    C86     1.450   .     S
C84    C98     1.460   .     S
C84    C86     1.399   .     A
C84    C613    1.377   1_545 S
C85    C94     1.450   .     S
C85    C121    1.393   .     A
C85    C122    1.400   .     A
C86    C120    1.393   .     A
C87    N150    1.381   .     A
C87    O153    1.375   .     S
C87    C1565   1.436   1_554 S
C88    O154    1.381   .     S
C88    N149    1.371   .     A
C88    C828    1.458   .     S
C89    C104    1.485   .     S
C89    N149    1.377   .     A
C89    C825    1.436   .     S
C90    C111    1.486   .     S
C90    N150    1.385   .     A
C90    C1564   1.458   1_554 S
C91    C92     1.393   .     A
C91    C122    1.460   .     S
C91    C97     1.403   .     A
C92    H144    1.084   .     S
C92    C93     1.385   .     A
C93    C1571   1.403   1_554 S
C93    H1621   1.073   1_554 S
C94    O155    1.313   .     A
C94    O157    1.308   .     A
C95    H146    1.078   .     S
C95    C831    1.403   .     S
C95    C834    1.395   .     S
C96    H147    1.079   .     S
C96    C97     1.392   .     A
C96    C1571   1.395   1_554 S
C97    H148    1.082   .     S
C98    C103    1.393   .     A
C98    C99     1.403   .     A
C99    H124    1.082   .     S
C99    C100    1.392   .     A
C100   H125    1.080   .     S
C100   C839    1.395   .     S
C101   H126    1.078   .     S
C101   C1576   1.395   1_554 S
C101   C1578   1.403   1_554 S
C102   C103    1.385   .     A
C102   C839    1.403   .     S
C102   H865    1.073   .     S
C103   H128    1.084   .     S
C104   C110    1.398   .     A
C104   C106    1.399   .     A
C105   O158    1.298   .     A
C105   O160    1.299   .     A
C105   C118    1.414   .     S
C106   H131    1.078   .     S
C106   C189    1.402   .     S
C107   H132    1.077   .     S
C107   C108    1.395   .     A
C108   H133    1.083   .     S
C109   H135    1.083   .     S
C109   C110    1.397   .     A
C109   C190    1.393   .     S
C110   H136    1.064   .     S
C111   C112    1.399   .     A
C111   C117    1.399   .     A
C112   C113    1.397   .     A
C112   H137    1.065   .     S
C113   H138    1.083   .     S
C114   H139    1.083   .     S
C114   C115    1.394   .     A
C114   C195    1.393   .     S
C115   H140    1.077   .     S
C115   C199    1.402   .     S
C116   C119    1.414   .     S
C116   O159    1.299   .     A
C116   O161    1.299   .     A
C117   H141    1.077   .     S
C119   C200    1.333   .     S
C119   O234    1.387   .     S
C120   H123    1.074   .     S
C120   C614    1.377   1_545 S
C121   H134    1.073   .     S
C121   C330    1.377   .     S
C122   C366    1.377   .     S
H127   C1578   1.073   1_554 S
H129   O153    0.985   .     S
H130   O154    0.988   .     S
H143   O234    0.990   .     S
H145   C831    1.073   .     S
N149   Zn163   2.061   .     S
N150   Zn164   2.061   .     S
O151   Zn163   2.043   .     S
O155   Zn164   2.043   .     S
O156   Zn164   2.009   .     S
O157   Zn163   2.009   .     S
O158   Zn163   2.010   .     S
O159   Zn164   2.010   .     S
O160   Zn164   1.984   .     S
O161   Zn163   1.984   .     S
O162   C200    1.387   .     S
O162   H224    0.990   .     S
C165   O233    1.313   .     A
C165   O238    1.308   .     A
C165   C168    1.450   .     S
C166   C180    1.460   .     S
C166   C168    1.399   .     A
C166   C695    1.377   1_545 S
C167   C176    1.450   .     S
C167   C203    1.393   .     A
C167   C204    1.400   .     A
C168   C202    1.393   .     A
C169   N232    1.381   .     A
C169   O235    1.375   .     S
C169   C1647   1.436   1_554 S
C170   O236    1.381   .     S
C170   N231    1.371   .     A
C170   C910    1.458   .     S
C171   C186    1.485   .     S
C171   N231    1.377   .     A
C171   C907    1.436   .     S
C172   C193    1.486   .     S
C172   N232    1.385   .     A
C172   C1646   1.458   1_554 S
C173   C174    1.393   .     A
C173   C204    1.460   .     S
C173   C179    1.403   .     A
C174   H226    1.084   .     S
C174   C175    1.385   .     A
C175   C1653   1.403   1_554 S
C175   H1703   1.073   1_554 S
C176   O237    1.313   .     A
C176   O239    1.308   .     A
C177   H228    1.078   .     S
C177   C913    1.403   .     S
C177   C916    1.395   .     S
C178   H229    1.079   .     S
C178   C179    1.392   .     A
C178   C1653   1.395   1_554 S
C179   H230    1.082   .     S
C180   C185    1.393   .     A
C180   C181    1.403   .     A
C181   H206    1.082   .     S
C181   C182    1.392   .     A
C182   H207    1.080   .     S
C182   C921    1.395   .     S
C183   H208    1.078   .     S
C183   C1658   1.395   1_554 S
C183   C1660   1.403   1_554 S
C184   C185    1.385   .     A
C184   C921    1.403   .     S
C184   H947    1.073   .     S
C185   H210    1.084   .     S
C186   C192    1.398   .     A
C186   C188    1.399   .     A
C187   O240    1.298   .     A
C187   O242    1.299   .     A
C187   C200    1.414   .     S
C188   H213    1.078   .     S
C188   C25     1.402   1_655 S
C189   H214    1.077   .     S
C189   C190    1.395   .     A
C190   H215    1.083   .     S
C191   H217    1.083   .     S
C191   C192    1.397   .     A
C191   C26     1.393   1_655 S
C192   H218    1.064   .     S
C193   C194    1.399   .     A
C193   C199    1.399   .     A
C194   C195    1.397   .     A
C194   H219    1.065   .     S
C195   H220    1.083   .     S
C196   H221    1.083   .     S
C196   C197    1.394   .     A
C196   C31     1.393   1_655 S
C197   H222    1.077   .     S
C197   C35     1.402   1_655 S
C198   C201    1.414   .     S
C198   O241    1.299   .     A
C198   O243    1.299   .     A
C199   H223    1.077   .     S
C201   C36     1.333   1_655 S
C201   O70     1.387   1_655 S
C202   H205    1.074   .     S
C202   C696    1.377   1_545 S
C203   H216    1.073   .     S
C203   C412    1.377   .     S
C204   C448    1.377   .     S
H209   C1660   1.073   1_554 S
H211   O235    0.985   .     S
H212   O236    0.988   .     S
H225   O70     0.990   1_655 S
H227   C913    1.073   .     S
N231   Zn245   2.061   .     S
N232   Zn246   2.061   .     S
O233   Zn245   2.043   .     S
O237   Zn246   2.043   .     S
O238   Zn246   2.009   .     S
O239   Zn245   2.009   .     S
O240   Zn245   2.010   .     S
O241   Zn246   2.010   .     S
O242   Zn246   1.984   .     S
O243   Zn245   1.984   .     S
O244   C36     1.387   1_655 S
O244   H60     0.990   1_655 S
C247   O315    1.313   .     A
C247   O320    1.308   .     A
C247   C250    1.450   .     S
C248   C262    1.460   .     S
C248   C250    1.399   .     A
C249   C258    1.450   .     S
C249   C285    1.393   .     A
C249   C286    1.400   .     A
C250   C284    1.393   .     A
C251   N314    1.381   .     A
C251   O317    1.375   .     S
C251   C1729   1.436   1_554 S
C252   O318    1.381   .     S
C252   N313    1.371   .     A
C252   C992    1.458   .     S
C253   C268    1.485   .     S
C253   N313    1.377   .     A
C253   C989    1.436   .     S
C254   C275    1.486   .     S
C254   N314    1.385   .     A
C254   C1728   1.458   1_554 S
C255   C256    1.393   .     A
C255   C286    1.460   .     S
C255   C261    1.403   .     A
C256   H308    1.084   .     S
C256   C257    1.385   .     A
C257   C1735   1.403   1_554 S
C257   H1785   1.073   1_554 S
C258   O319    1.313   .     A
C258   O321    1.308   .     A
C259   H310    1.078   .     S
C259   C995    1.403   .     S
C259   C998    1.395   .     S
C260   H311    1.079   .     S
C260   C261    1.392   .     A
C260   C1735   1.395   1_554 S
C261   H312    1.082   .     S
C262   C267    1.393   .     A
C262   C263    1.403   .     A
C263   H288    1.082   .     S
C263   C264    1.392   .     A
C264   H289    1.080   .     S
C264   C1003   1.395   .     S
C265   H290    1.078   .     S
C265   C1740   1.395   1_554 S
C265   C1742   1.403   1_554 S
C266   C267    1.385   .     A
C266   C1003   1.403   .     S
C266   H1029   1.073   .     S
C267   H292    1.084   .     S
C268   C274    1.398   .     A
C268   C270    1.399   .     A
C269   O322    1.298   .     A
C269   O324    1.299   .     A
C269   C282    1.414   .     S
C270   H295    1.078   .     S
C270   C353    1.402   .     S
C271   H296    1.077   .     S
C271   C272    1.395   .     A
C271   C434    1.402   1_455 S
C272   H297    1.083   .     S
C272   C437    1.393   1_455 S
C273   H299    1.083   .     S
C273   C274    1.397   .     A
C273   C354    1.393   .     S
C274   H300    1.064   .     S
C275   C276    1.399   .     A
C275   C281    1.399   .     A
C276   C277    1.397   .     A
C276   H301    1.065   .     S
C277   H302    1.083   .     S
C277   C442    1.393   1_455 S
C278   H303    1.083   .     S
C278   C279    1.394   .     A
C278   C359    1.393   .     S
C279   H304    1.077   .     S
C279   C363    1.402   .     S
C280   C283    1.414   .     S
C280   O323    1.299   .     A
C280   O325    1.299   .     A
C281   H305    1.077   .     S
C281   C443    1.402   1_455 S
C282   C447    1.333   1_455 S
C282   O490    1.387   1_455 S
C283   C364    1.333   .     S
C283   O398    1.387   .     S
C284   H287    1.074   .     S
C285   H298    1.073   .     S
C285   C494    1.377   .     S
C286   C530    1.377   .     S
H291   C1742   1.073   1_554 S
H293   O317    0.985   .     S
H294   O318    0.988   .     S
H306   O490    0.990   1_455 S
H307   O398    0.990   .     S
H309   C995    1.073   .     S
N313   Zn327   2.061   .     S
N314   Zn328   2.061   .     S
O315   Zn327   2.043   .     S
O316   C447    1.387   1_455 S
O316   H471    0.990   1_455 S
O319   Zn328   2.043   .     S
O320   Zn328   2.009   .     S
O321   Zn327   2.009   .     S
O322   Zn327   2.010   .     S
O323   Zn328   2.010   .     S
O324   Zn328   1.984   .     S
O325   Zn327   1.984   .     S
O326   C364    1.387   .     S
O326   H388    0.990   .     S
C329   O397    1.313   .     A
C329   O402    1.308   .     A
C329   C332    1.450   .     S
C330   C344    1.460   .     S
C330   C332    1.399   .     A
C331   C340    1.450   .     S
C331   C367    1.393   .     A
C331   C368    1.400   .     A
C332   C366    1.393   .     A
C333   N396    1.381   .     A
C333   O399    1.375   .     S
C333   C1811   1.436   1_554 S
C334   O400    1.381   .     S
C334   N395    1.371   .     A
C334   C1074   1.458   .     S
C335   C350    1.485   .     S
C335   N395    1.377   .     A
C335   C1071   1.436   .     S
C336   C357    1.486   .     S
C336   N396    1.385   .     A
C336   C1810   1.458   1_554 S
C337   C338    1.393   .     A
C337   C368    1.460   .     S
C337   C343    1.403   .     A
C338   H390    1.084   .     S
C338   C339    1.385   .     A
C339   C1817   1.403   1_554 S
C339   H1867   1.073   1_554 S
C340   O401    1.313   .     A
C340   O403    1.308   .     A
C341   H392    1.078   .     S
C341   C1077   1.403   .     S
C341   C1080   1.395   .     S
C342   H393    1.079   .     S
C342   C343    1.392   .     A
C342   C1817   1.395   1_554 S
C343   H394    1.082   .     S
C344   C349    1.393   .     A
C344   C345    1.403   .     A
C345   H370    1.082   .     S
C345   C346    1.392   .     A
C346   H371    1.080   .     S
C346   C1085   1.395   .     S
C347   H372    1.078   .     S
C347   C1822   1.395   1_554 S
C347   C1824   1.403   1_554 S
C348   C349    1.385   .     A
C348   C1085   1.403   .     S
C348   H1111   1.073   .     S
C349   H374    1.084   .     S
C350   C356    1.398   .     A
C350   C352    1.399   .     A
C351   O404    1.298   .     A
C351   O406    1.299   .     A
C351   C364    1.414   .     S
C352   H377    1.078   .     S
C352   C435    1.402   .     S
C353   H378    1.077   .     S
C353   C354    1.395   .     A
C354   H379    1.083   .     S
C355   H381    1.083   .     S
C355   C356    1.397   .     A
C355   C436    1.393   .     S
C356   H382    1.064   .     S
C357   C358    1.399   .     A
C357   C363    1.399   .     A
C358   C359    1.397   .     A
C358   H383    1.065   .     S
C359   H384    1.083   .     S
C360   H385    1.083   .     S
C360   C361    1.394   .     A
C360   C441    1.393   .     S
C361   H386    1.077   .     S
C361   C445    1.402   .     S
C362   C365    1.414   .     S
C362   O405    1.299   .     A
C362   O407    1.299   .     A
C363   H387    1.077   .     S
C365   C446    1.333   .     S
C365   O480    1.387   .     S
C366   H369    1.074   .     S
C367   H380    1.073   .     S
C367   C576    1.377   .     S
C368   C612    1.377   .     S
H373   C1824   1.073   1_554 S
H375   O399    0.985   .     S
H376   O400    0.988   .     S
H389   O480    0.990   .     S
H391   C1077   1.073   .     S
N395   Zn409   2.061   .     S
N396   Zn410   2.061   .     S
O397   Zn409   2.043   .     S
O401   Zn410   2.043   .     S
O402   Zn410   2.009   .     S
O403   Zn409   2.009   .     S
O404   Zn409   2.010   .     S
O405   Zn410   2.010   .     S
O406   Zn410   1.984   .     S
O407   Zn409   1.984   .     S
O408   C446    1.387   .     S
O408   H470    0.990   .     S
C411   O479    1.313   .     A
C411   O484    1.308   .     A
C411   C414    1.450   .     S
C412   C426    1.460   .     S
C412   C414    1.399   .     A
C413   C422    1.450   .     S
C413   C449    1.393   .     A
C413   C450    1.400   .     A
C414   C448    1.393   .     A
C415   N478    1.381   .     A
C415   O481    1.375   .     S
C415   C1893   1.436   1_554 S
C416   O482    1.381   .     S
C416   N477    1.371   .     A
C416   C1156   1.458   .     S
C417   C432    1.485   .     S
C417   N477    1.377   .     A
C417   C1153   1.436   .     S
C418   C439    1.486   .     S
C418   N478    1.385   .     A
C418   C1892   1.458   1_554 S
C419   C420    1.393   .     A
C419   C450    1.460   .     S
C419   C425    1.403   .     A
C420   H472    1.084   .     S
C420   C421    1.385   .     A
C421   C1899   1.403   1_554 S
C421   H1949   1.073   1_554 S
C422   O483    1.313   .     A
C422   O485    1.308   .     A
C423   H474    1.078   .     S
C423   C1159   1.403   .     S
C423   C1162   1.395   .     S
C424   H475    1.079   .     S
C424   C425    1.392   .     A
C424   C1899   1.395   1_554 S
C425   H476    1.082   .     S
C426   C431    1.393   .     A
C426   C427    1.403   .     A
C427   H452    1.082   .     S
C427   C428    1.392   .     A
C428   H453    1.080   .     S
C428   C1167   1.395   .     S
C429   H454    1.078   .     S
C429   C1904   1.395   1_554 S
C429   C1906   1.403   1_554 S
C430   C431    1.385   .     A
C430   C1167   1.403   .     S
C430   H1193   1.073   .     S
C431   H456    1.084   .     S
C432   C438    1.398   .     A
C432   C434    1.399   .     A
C433   O486    1.298   .     A
C433   O488    1.299   .     A
C433   C446    1.414   .     S
C434   H459    1.078   .     S
C434   C271    1.402   1_655 S
C435   H460    1.077   .     S
C435   C436    1.395   .     A
C436   H461    1.083   .     S
C437   H463    1.083   .     S
C437   C438    1.397   .     A
C437   C272    1.393   1_655 S
C438   H464    1.064   .     S
C439   C440    1.399   .     A
C439   C445    1.399   .     A
C440   C441    1.397   .     A
C440   H465    1.065   .     S
C441   H466    1.083   .     S
C442   H467    1.083   .     S
C442   C443    1.394   .     A
C442   C277    1.393   1_655 S
C443   H468    1.077   .     S
C443   C281    1.402   1_655 S
C444   C447    1.414   .     S
C444   O487    1.299   .     A
C444   O489    1.299   .     A
C445   H469    1.077   .     S
C447   C282    1.333   1_655 S
C447   O316    1.387   1_655 S
C448   H451    1.074   .     S
C449   H462    1.073   .     S
C449   C658    1.377   .     S
C450   C694    1.377   .     S
H455   C1906   1.073   1_554 S
H457   O481    0.985   .     S
H458   O482    0.988   .     S
H471   O316    0.990   1_655 S
H473   C1159   1.073   .     S
N477   Zn491   2.061   .     S
N478   Zn492   2.061   .     S
O479   Zn491   2.043   .     S
O483   Zn492   2.043   .     S
O484   Zn492   2.009   .     S
O485   Zn491   2.009   .     S
O486   Zn491   2.010   .     S
O487   Zn492   2.010   .     S
O488   Zn492   1.984   .     S
O489   Zn491   1.984   .     S
O490   C282    1.387   1_655 S
O490   H306    0.990   1_655 S
C493   O561    1.313   .     A
C493   O566    1.308   .     A
C493   C496    1.450   .     S
C494   C508    1.460   .     S
C494   C496    1.399   .     A
C495   C504    1.450   .     S
C495   C531    1.393   .     A
C495   C532    1.400   .     A
C496   C530    1.393   .     A
C497   N560    1.381   .     A
C497   O563    1.375   .     S
C497   C1975   1.436   1_554 S
C498   O564    1.381   .     S
C498   N559    1.371   .     A
C498   C1238   1.458   .     S
C499   C514    1.485   .     S
C499   N559    1.377   .     A
C499   C1235   1.436   .     S
C500   C521    1.486   .     S
C500   N560    1.385   .     A
C500   C1974   1.458   1_554 S
C501   C502    1.393   .     A
C501   C532    1.460   .     S
C501   C507    1.403   .     A
C502   H554    1.084   .     S
C502   C503    1.385   .     A
C503   C1981   1.403   1_554 S
C503   H2031   1.073   1_554 S
C504   O565    1.313   .     A
C504   O567    1.308   .     A
C505   H556    1.078   .     S
C505   C1241   1.403   .     S
C505   C1244   1.395   .     S
C506   H557    1.079   .     S
C506   C507    1.392   .     A
C506   C1981   1.395   1_554 S
C507   H558    1.082   .     S
C508   C513    1.393   .     A
C508   C509    1.403   .     A
C509   H534    1.082   .     S
C509   C510    1.392   .     A
C510   H535    1.080   .     S
C510   C1249   1.395   .     S
C511   H536    1.078   .     S
C511   C1986   1.395   1_554 S
C511   C1988   1.403   1_554 S
C512   C513    1.385   .     A
C512   C1249   1.403   .     S
C512   H1275   1.073   .     S
C513   H538    1.084   .     S
C514   C520    1.398   .     A
C514   C516    1.399   .     A
C515   O568    1.298   .     A
C515   O570    1.299   .     A
C515   C528    1.414   .     S
C516   H541    1.078   .     S
C516   C599    1.402   .     S
C517   H542    1.077   .     S
C517   C518    1.395   .     A
C517   C680    1.402   1_455 S
C518   H543    1.083   .     S
C518   C683    1.393   1_455 S
C519   H545    1.083   .     S
C519   C520    1.397   .     A
C519   C600    1.393   .     S
C520   H546    1.064   .     S
C521   C522    1.399   .     A
C521   C527    1.399   .     A
C522   C523    1.397   .     A
C522   H547    1.065   .     S
C523   H548    1.083   .     S
C523   C688    1.393   1_455 S
C524   H549    1.083   .     S
C524   C525    1.394   .     A
C524   C605    1.393   .     S
C525   H550    1.077   .     S
C525   C609    1.402   .     S
C526   C529    1.414   .     S
C526   O569    1.299   .     A
C526   O571    1.299   .     A
C527   H551    1.077   .     S
C527   C689    1.402   1_455 S
C528   C693    1.333   1_455 S
C528   O736    1.387   1_455 S
C529   C610    1.333   .     S
C529   O644    1.387   .     S
C530   H533    1.074   .     S
C531   H544    1.073   .     S
C531   C2      1.377   1_565 S
C532   C38     1.377   1_565 S
H537   C1988   1.073   1_554 S
H539   O563    0.985   .     S
H540   O564    0.988   .     S
H552   O736    0.990   1_455 S
H553   O644    0.990   .     S
H555   C1241   1.073   .     S
N559   Zn573   2.061   .     S
N560   Zn574   2.061   .     S
O561   Zn573   2.043   .     S
O562   C693    1.387   1_455 S
O562   H717    0.990   1_455 S
O565   Zn574   2.043   .     S
O566   Zn574   2.009   .     S
O567   Zn573   2.009   .     S
O568   Zn573   2.010   .     S
O569   Zn574   2.010   .     S
O570   Zn574   1.984   .     S
O571   Zn573   1.984   .     S
O572   C610    1.387   .     S
O572   H634    0.990   .     S
C575   O643    1.313   .     A
C575   O648    1.308   .     A
C575   C578    1.450   .     S
C576   C590    1.460   .     S
C576   C578    1.399   .     A
C577   C586    1.450   .     S
C577   C613    1.393   .     A
C577   C614    1.400   .     A
C578   C612    1.393   .     A
C579   N642    1.381   .     A
C579   O645    1.375   .     S
C579   C2057   1.436   1_554 S
C580   O646    1.381   .     S
C580   N641    1.371   .     A
C580   C1320   1.458   .     S
C581   C596    1.485   .     S
C581   N641    1.377   .     A
C581   C1317   1.436   .     S
C582   C603    1.486   .     S
C582   N642    1.385   .     A
C582   C2056   1.458   1_554 S
C583   C584    1.393   .     A
C583   C614    1.460   .     S
C583   C589    1.403   .     A
C584   H636    1.084   .     S
C584   C585    1.385   .     A
C585   C2063   1.403   1_554 S
C585   H2113   1.073   1_554 S
C586   O647    1.313   .     A
C586   O649    1.308   .     A
C587   H638    1.078   .     S
C587   C1323   1.403   .     S
C587   C1326   1.395   .     S
C588   H639    1.079   .     S
C588   C589    1.392   .     A
C588   C2063   1.395   1_554 S
C589   H640    1.082   .     S
C590   C595    1.393   .     A
C590   C591    1.403   .     A
C591   H616    1.082   .     S
C591   C592    1.392   .     A
C592   H617    1.080   .     S
C592   C1331   1.395   .     S
C593   H618    1.078   .     S
C593   C2068   1.395   1_554 S
C593   C2070   1.403   1_554 S
C594   C595    1.385   .     A
C594   C1331   1.403   .     S
C594   H1357   1.073   .     S
C595   H620    1.084   .     S
C596   C602    1.398   .     A
C596   C598    1.399   .     A
C597   O650    1.298   .     A
C597   O652    1.299   .     A
C597   C610    1.414   .     S
C598   H623    1.078   .     S
C598   C681    1.402   .     S
C599   H624    1.077   .     S
C599   C600    1.395   .     A
C600   H625    1.083   .     S
C601   H627    1.083   .     S
C601   C602    1.397   .     A
C601   C682    1.393   .     S
C602   H628    1.064   .     S
C603   C604    1.399   .     A
C603   C609    1.399   .     A
C604   C605    1.397   .     A
C604   H629    1.065   .     S
C605   H630    1.083   .     S
C606   H631    1.083   .     S
C606   C607    1.394   .     A
C606   C687    1.393   .     S
C607   H632    1.077   .     S
C607   C691    1.402   .     S
C608   C611    1.414   .     S
C608   O651    1.299   .     A
C608   O653    1.299   .     A
C609   H633    1.077   .     S
C611   C692    1.333   .     S
C611   O726    1.387   .     S
C612   H615    1.074   .     S
C613   H626    1.073   .     S
C613   C84     1.377   1_565 S
C614   C120    1.377   1_565 S
H619   C2070   1.073   1_554 S
H621   O645    0.985   .     S
H622   O646    0.988   .     S
H635   O726    0.990   .     S
H637   C1323   1.073   .     S
N641   Zn655   2.061   .     S
N642   Zn656   2.061   .     S
O643   Zn655   2.043   .     S
O647   Zn656   2.043   .     S
O648   Zn656   2.009   .     S
O649   Zn655   2.009   .     S
O650   Zn655   2.010   .     S
O651   Zn656   2.010   .     S
O652   Zn656   1.984   .     S
O653   Zn655   1.984   .     S
O654   C692    1.387   .     S
O654   H716    0.990   .     S
C657   O725    1.313   .     A
C657   O730    1.308   .     A
C657   C660    1.450   .     S
C658   C672    1.460   .     S
C658   C660    1.399   .     A
C659   C668    1.450   .     S
C659   C695    1.393   .     A
C659   C696    1.400   .     A
C660   C694    1.393   .     A
C661   N724    1.381   .     A
C661   O727    1.375   .     S
C661   C2139   1.436   1_554 S
C662   O728    1.381   .     S
C662   N723    1.371   .     A
C662   C1402   1.458   .     S
C663   C678    1.485   .     S
C663   N723    1.377   .     A
C663   C1399   1.436   .     S
C664   C685    1.486   .     S
C664   N724    1.385   .     A
C664   C2138   1.458   1_554 S
C665   C666    1.393   .     A
C665   C696    1.460   .     S
C665   C671    1.403   .     A
C666   H718    1.084   .     S
C666   C667    1.385   .     A
C667   C2145   1.403   1_554 S
C667   H2195   1.073   1_554 S
C668   O729    1.313   .     A
C668   O731    1.308   .     A
C669   H720    1.078   .     S
C669   C1405   1.403   .     S
C669   C1408   1.395   .     S
C670   H721    1.079   .     S
C670   C671    1.392   .     A
C670   C2145   1.395   1_554 S
C671   H722    1.082   .     S
C672   C677    1.393   .     A
C672   C673    1.403   .     A
C673   H698    1.082   .     S
C673   C674    1.392   .     A
C674   H699    1.080   .     S
C674   C1413   1.395   .     S
C675   H700    1.078   .     S
C675   C2150   1.395   1_554 S
C675   C2152   1.403   1_554 S
C676   C677    1.385   .     A
C676   C1413   1.403   .     S
C676   H1439   1.073   .     S
C677   H702    1.084   .     S
C678   C684    1.398   .     A
C678   C680    1.399   .     A
C679   O732    1.298   .     A
C679   O734    1.299   .     A
C679   C692    1.414   .     S
C680   H705    1.078   .     S
C680   C517    1.402   1_655 S
C681   H706    1.077   .     S
C681   C682    1.395   .     A
C682   H707    1.083   .     S
C683   H709    1.083   .     S
C683   C684    1.397   .     A
C683   C518    1.393   1_655 S
C684   H710    1.064   .     S
C685   C686    1.399   .     A
C685   C691    1.399   .     A
C686   C687    1.397   .     A
C686   H711    1.065   .     S
C687   H712    1.083   .     S
C688   H713    1.083   .     S
C688   C689    1.394   .     A
C688   C523    1.393   1_655 S
C689   H714    1.077   .     S
C689   C527    1.402   1_655 S
C690   C693    1.414   .     S
C690   O733    1.299   .     A
C690   O735    1.299   .     A
C691   H715    1.077   .     S
C693   C528    1.333   1_655 S
C693   O562    1.387   1_655 S
C694   H697    1.074   .     S
C695   H708    1.073   .     S
C695   C166    1.377   1_565 S
C696   C202    1.377   1_565 S
H701   C2152   1.073   1_554 S
H703   O727    0.985   .     S
H704   O728    0.988   .     S
H717   O562    0.990   1_655 S
H719   C1405   1.073   .     S
N723   Zn737   2.061   .     S
N724   Zn738   2.061   .     S
O725   Zn737   2.043   .     S
O729   Zn738   2.043   .     S
O730   Zn738   2.009   .     S
O731   Zn737   2.009   .     S
O732   Zn737   2.010   .     S
O733   Zn738   2.010   .     S
O734   Zn738   1.984   .     S
O735   Zn737   1.984   .     S
O736   C528    1.387   1_655 S
O736   H552    0.990   1_655 S
C739   O807    1.313   .     A
C739   O812    1.308   .     A
C739   C742    1.450   .     S
C740   C754    1.460   .     S
C740   C742    1.399   .     A
C740   C1269   1.377   1_545 S
C741   C750    1.450   .     S
C741   C777    1.393   .     A
C741   C778    1.400   .     A
C742   C776    1.393   .     A
C743   N806    1.381   .     A
C743   O809    1.375   .     S
C744   O810    1.381   .     S
C744   N805    1.371   .     A
C744   C1484   1.458   .     S
C745   C760    1.485   .     S
C745   N805    1.377   .     A
C745   C1481   1.436   .     S
C746   C767    1.486   .     S
C746   N806    1.385   .     A
C747   C748    1.393   .     A
C747   C778    1.460   .     S
C747   C753    1.403   .     A
C748   H800    1.084   .     S
C748   C749    1.385   .     A
C750   O811    1.313   .     A
C750   O813    1.308   .     A
C751   H802    1.078   .     S
C751   C1487   1.403   .     S
C751   C1490   1.395   .     S
C752   H803    1.079   .     S
C752   C753    1.392   .     A
C753   H804    1.082   .     S
C754   C759    1.393   .     A
C754   C755    1.403   .     A
C755   H780    1.082   .     S
C755   C756    1.392   .     A
C756   H781    1.080   .     S
C756   C1495   1.395   .     S
C757   H782    1.078   .     S
C758   C759    1.385   .     A
C758   C1495   1.403   .     S
C758   H1521   1.073   .     S
C759   H784    1.084   .     S
C760   C766    1.398   .     A
C760   C762    1.399   .     A
C761   O814    1.298   .     A
C761   O816    1.299   .     A
C761   C774    1.414   .     S
C762   H787    1.078   .     S
C762   C845    1.402   .     S
C763   H788    1.077   .     S
C763   C764    1.395   .     A
C763   C926    1.402   1_455 S
C764   H789    1.083   .     S
C764   C929    1.393   1_455 S
C765   H791    1.083   .     S
C765   C766    1.397   .     A
C765   C846    1.393   .     S
C766   H792    1.064   .     S
C767   C768    1.399   .     A
C767   C773    1.399   .     A
C768   C769    1.397   .     A
C768   H793    1.065   .     S
C769   H794    1.083   .     S
C769   C934    1.393   1_455 S
C770   H795    1.083   .     S
C770   C771    1.394   .     A
C770   C851    1.393   .     S
C771   H796    1.077   .     S
C771   C855    1.402   .     S
C772   C775    1.414   .     S
C772   O815    1.299   .     A
C772   O817    1.299   .     A
C773   H797    1.077   .     S
C773   C935    1.402   1_455 S
C774   C939    1.333   1_455 S
C774   O982    1.387   1_455 S
C775   C856    1.333   .     S
C775   O890    1.387   .     S
C776   H779    1.074   .     S
C776   C1270   1.377   1_545 S
C777   H790    1.073   .     S
C777   C986    1.377   .     S
C778   C1022   1.377   .     S
H785   O809    0.985   .     S
H786   O810    0.988   .     S
H798   O982    0.990   1_455 S
H799   O890    0.990   .     S
H801   C1487   1.073   .     S
N805   Zn819   2.061   .     S
N806   Zn820   2.061   .     S
O807   Zn819   2.043   .     S
O808   C939    1.387   1_455 S
O808   H963    0.990   1_455 S
O811   Zn820   2.043   .     S
O812   Zn820   2.009   .     S
O813   Zn819   2.009   .     S
O814   Zn819   2.010   .     S
O815   Zn820   2.010   .     S
O816   Zn820   1.984   .     S
O817   Zn819   1.984   .     S
O818   C856    1.387   .     S
O818   H880    0.990   .     S
C821   O889    1.313   .     A
C821   O894    1.308   .     A
C821   C824    1.450   .     S
C822   C836    1.460   .     S
C822   C824    1.399   .     A
C822   C1351   1.377   1_545 S
C823   C832    1.450   .     S
C823   C859    1.393   .     A
C823   C860    1.400   .     A
C824   C858    1.393   .     A
C825   N888    1.381   .     A
C825   O891    1.375   .     S
C826   O892    1.381   .     S
C826   N887    1.371   .     A
C826   C1566   1.458   .     S
C827   C842    1.485   .     S
C827   N887    1.377   .     A
C827   C1563   1.436   .     S
C828   C849    1.486   .     S
C828   N888    1.385   .     A
C829   C830    1.393   .     A
C829   C860    1.460   .     S
C829   C835    1.403   .     A
C830   H882    1.084   .     S
C830   C831    1.385   .     A
C832   O893    1.313   .     A
C832   O895    1.308   .     A
C833   H884    1.078   .     S
C833   C1569   1.403   .     S
C833   C1572   1.395   .     S
C834   H885    1.079   .     S
C834   C835    1.392   .     A
C835   H886    1.082   .     S
C836   C841    1.393   .     A
C836   C837    1.403   .     A
C837   H862    1.082   .     S
C837   C838    1.392   .     A
C838   H863    1.080   .     S
C838   C1577   1.395   .     S
C839   H864    1.078   .     S
C840   C841    1.385   .     A
C840   C1577   1.403   .     S
C840   H1603   1.073   .     S
C841   H866    1.084   .     S
C842   C848    1.398   .     A
C842   C844    1.399   .     A
C843   O896    1.298   .     A
C843   O898    1.299   .     A
C843   C856    1.414   .     S
C844   H869    1.078   .     S
C844   C927    1.402   .     S
C845   H870    1.077   .     S
C845   C846    1.395   .     A
C846   H871    1.083   .     S
C847   H873    1.083   .     S
C847   C848    1.397   .     A
C847   C928    1.393   .     S
C848   H874    1.064   .     S
C849   C850    1.399   .     A
C849   C855    1.399   .     A
C850   C851    1.397   .     A
C850   H875    1.065   .     S
C851   H876    1.083   .     S
C852   H877    1.083   .     S
C852   C853    1.394   .     A
C852   C933    1.393   .     S
C853   H878    1.077   .     S
C853   C937    1.402   .     S
C854   C857    1.414   .     S
C854   O897    1.299   .     A
C854   O899    1.299   .     A
C855   H879    1.077   .     S
C857   C938    1.333   .     S
C857   O972    1.387   .     S
C858   H861    1.074   .     S
C858   C1352   1.377   1_545 S
C859   H872    1.073   .     S
C859   C1068   1.377   .     S
C860   C1104   1.377   .     S
H867   O891    0.985   .     S
H868   O892    0.988   .     S
H881   O972    0.990   .     S
H883   C1569   1.073   .     S
N887   Zn901   2.061   .     S
N888   Zn902   2.061   .     S
O889   Zn901   2.043   .     S
O893   Zn902   2.043   .     S
O894   Zn902   2.009   .     S
O895   Zn901   2.009   .     S
O896   Zn901   2.010   .     S
O897   Zn902   2.010   .     S
O898   Zn902   1.984   .     S
O899   Zn901   1.984   .     S
O900   C938    1.387   .     S
O900   H962    0.990   .     S
C903   O971    1.313   .     A
C903   O976    1.308   .     A
C903   C906    1.450   .     S
C904   C918    1.460   .     S
C904   C906    1.399   .     A
C904   C1433   1.377   1_545 S
C905   C914    1.450   .     S
C905   C941    1.393   .     A
C905   C942    1.400   .     A
C906   C940    1.393   .     A
C907   N970    1.381   .     A
C907   O973    1.375   .     S
C908   O974    1.381   .     S
C908   N969    1.371   .     A
C908   C1648   1.458   .     S
C909   C924    1.485   .     S
C909   N969    1.377   .     A
C909   C1645   1.436   .     S
C910   C931    1.486   .     S
C910   N970    1.385   .     A
C911   C912    1.393   .     A
C911   C942    1.460   .     S
C911   C917    1.403   .     A
C912   H964    1.084   .     S
C912   C913    1.385   .     A
C914   O975    1.313   .     A
C914   O977    1.308   .     A
C915   H966    1.078   .     S
C915   C1651   1.403   .     S
C915   C1654   1.395   .     S
C916   H967    1.079   .     S
C916   C917    1.392   .     A
C917   H968    1.082   .     S
C918   C923    1.393   .     A
C918   C919    1.403   .     A
C919   H944    1.082   .     S
C919   C920    1.392   .     A
C920   H945    1.080   .     S
C920   C1659   1.395   .     S
C921   H946    1.078   .     S
C922   C923    1.385   .     A
C922   C1659   1.403   .     S
C922   H1685   1.073   .     S
C923   H948    1.084   .     S
C924   C930    1.398   .     A
C924   C926    1.399   .     A
C925   O978    1.298   .     A
C925   O980    1.299   .     A
C925   C938    1.414   .     S
C926   H951    1.078   .     S
C926   C763    1.402   1_655 S
C927   H952    1.077   .     S
C927   C928    1.395   .     A
C928   H953    1.083   .     S
C929   H955    1.083   .     S
C929   C930    1.397   .     A
C929   C764    1.393   1_655 S
C930   H956    1.064   .     S
C931   C932    1.399   .     A
C931   C937    1.399   .     A
C932   C933    1.397   .     A
C932   H957    1.065   .     S
C933   H958    1.083   .     S
C934   H959    1.083   .     S
C934   C935    1.394   .     A
C934   C769    1.393   1_655 S
C935   H960    1.077   .     S
C935   C773    1.402   1_655 S
C936   C939    1.414   .     S
C936   O979    1.299   .     A
C936   O981    1.299   .     A
C937   H961    1.077   .     S
C939   C774    1.333   1_655 S
C939   O808    1.387   1_655 S
C940   H943    1.074   .     S
C940   C1434   1.377   1_545 S
C941   H954    1.073   .     S
C941   C1150   1.377   .     S
C942   C1186   1.377   .     S
H949   O973    0.985   .     S
H950   O974    0.988   .     S
H963   O808    0.990   1_655 S
H965   C1651   1.073   .     S
N969   Zn983   2.061   .     S
N970   Zn984   2.061   .     S
O971   Zn983   2.043   .     S
O975   Zn984   2.043   .     S
O976   Zn984   2.009   .     S
O977   Zn983   2.009   .     S
O978   Zn983   2.010   .     S
O979   Zn984   2.010   .     S
O980   Zn984   1.984   .     S
O981   Zn983   1.984   .     S
O982   C774    1.387   1_655 S
O982   H798    0.990   1_655 S
C985   O1053   1.313   .     A
C985   O1058   1.308   .     A
C985   C988    1.450   .     S
C986   C1000   1.460   .     S
C986   C988    1.399   .     A
C987   C996    1.450   .     S
C987   C1023   1.393   .     A
C987   C1024   1.400   .     A
C988   C1022   1.393   .     A
C989   N1052   1.381   .     A
C989   O1055   1.375   .     S
C990   O1056   1.381   .     S
C990   N1051   1.371   .     A
C990   C1730   1.458   .     S
C991   C1006   1.485   .     S
C991   N1051   1.377   .     A
C991   C1727   1.436   .     S
C992   C1013   1.486   .     S
C992   N1052   1.385   .     A
C993   C994    1.393   .     A
C993   C1024   1.460   .     S
C993   C999    1.403   .     A
C994   H1046   1.084   .     S
C994   C995    1.385   .     A
C996   O1057   1.313   .     A
C996   O1059   1.308   .     A
C997   H1048   1.078   .     S
C997   C1733   1.403   .     S
C997   C1736   1.395   .     S
C998   H1049   1.079   .     S
C998   C999    1.392   .     A
C999   H1050   1.082   .     S
C1000  C1005   1.393   .     A
C1000  C1001   1.403   .     A
C1001  H1026   1.082   .     S
C1001  C1002   1.392   .     A
C1002  H1027   1.080   .     S
C1002  C1741   1.395   .     S
C1003  H1028   1.078   .     S
C1004  C1005   1.385   .     A
C1004  C1741   1.403   .     S
C1004  H1767   1.073   .     S
C1005  H1030   1.084   .     S
C1006  C1012   1.398   .     A
C1006  C1008   1.399   .     A
C1007  O1060   1.298   .     A
C1007  O1062   1.299   .     A
C1007  C1020   1.414   .     S
C1008  H1033   1.078   .     S
C1008  C1091   1.402   .     S
C1009  H1034   1.077   .     S
C1009  C1010   1.395   .     A
C1009  C1172   1.402   1_455 S
C1010  H1035   1.083   .     S
C1010  C1175   1.393   1_455 S
C1011  H1037   1.083   .     S
C1011  C1012   1.397   .     A
C1011  C1092   1.393   .     S
C1012  H1038   1.064   .     S
C1013  C1014   1.399   .     A
C1013  C1019   1.399   .     A
C1014  C1015   1.397   .     A
C1014  H1039   1.065   .     S
C1015  H1040   1.083   .     S
C1015  C1180   1.393   1_455 S
C1016  H1041   1.083   .     S
C1016  C1017   1.394   .     A
C1016  C1097   1.393   .     S
C1017  H1042   1.077   .     S
C1017  C1101   1.402   .     S
C1018  C1021   1.414   .     S
C1018  O1061   1.299   .     A
C1018  O1063   1.299   .     A
C1019  H1043   1.077   .     S
C1019  C1181   1.402   1_455 S
C1020  C1185   1.333   1_455 S
C1020  O1228   1.387   1_455 S
C1021  C1102   1.333   .     S
C1021  O1136   1.387   .     S
C1022  H1025   1.074   .     S
C1023  H1036   1.073   .     S
C1023  C1232   1.377   .     S
C1024  C1268   1.377   .     S
H1031  O1055   0.985   .     S
H1032  O1056   0.988   .     S
H1044  O1228   0.990   1_455 S
H1045  O1136   0.990   .     S
H1047  C1733   1.073   .     S
N1051  Zn1065  2.061   .     S
N1052  Zn1066  2.061   .     S
O1053  Zn1065  2.043   .     S
O1054  C1185   1.387   1_455 S
O1054  H1209   0.990   1_455 S
O1057  Zn1066  2.043   .     S
O1058  Zn1066  2.009   .     S
O1059  Zn1065  2.009   .     S
O1060  Zn1065  2.010   .     S
O1061  Zn1066  2.010   .     S
O1062  Zn1066  1.984   .     S
O1063  Zn1065  1.984   .     S
O1064  C1102   1.387   .     S
O1064  H1126   0.990   .     S
C1067  O1135   1.313   .     A
C1067  O1140   1.308   .     A
C1067  C1070   1.450   .     S
C1068  C1082   1.460   .     S
C1068  C1070   1.399   .     A
C1069  C1078   1.450   .     S
C1069  C1105   1.393   .     A
C1069  C1106   1.400   .     A
C1070  C1104   1.393   .     A
C1071  N1134   1.381   .     A
C1071  O1137   1.375   .     S
C1072  O1138   1.381   .     S
C1072  N1133   1.371   .     A
C1072  C1812   1.458   .     S
C1073  C1088   1.485   .     S
C1073  N1133   1.377   .     A
C1073  C1809   1.436   .     S
C1074  C1095   1.486   .     S
C1074  N1134   1.385   .     A
C1075  C1076   1.393   .     A
C1075  C1106   1.460   .     S
C1075  C1081   1.403   .     A
C1076  H1128   1.084   .     S
C1076  C1077   1.385   .     A
C1078  O1139   1.313   .     A
C1078  O1141   1.308   .     A
C1079  H1130   1.078   .     S
C1079  C1815   1.403   .     S
C1079  C1818   1.395   .     S
C1080  H1131   1.079   .     S
C1080  C1081   1.392   .     A
C1081  H1132   1.082   .     S
C1082  C1087   1.393   .     A
C1082  C1083   1.403   .     A
C1083  H1108   1.082   .     S
C1083  C1084   1.392   .     A
C1084  H1109   1.080   .     S
C1084  C1823   1.395   .     S
C1085  H1110   1.078   .     S
C1086  C1087   1.385   .     A
C1086  C1823   1.403   .     S
C1086  H1849   1.073   .     S
C1087  H1112   1.084   .     S
C1088  C1094   1.398   .     A
C1088  C1090   1.399   .     A
C1089  O1142   1.298   .     A
C1089  O1144   1.299   .     A
C1089  C1102   1.414   .     S
C1090  H1115   1.078   .     S
C1090  C1173   1.402   .     S
C1091  H1116   1.077   .     S
C1091  C1092   1.395   .     A
C1092  H1117   1.083   .     S
C1093  H1119   1.083   .     S
C1093  C1094   1.397   .     A
C1093  C1174   1.393   .     S
C1094  H1120   1.064   .     S
C1095  C1096   1.399   .     A
C1095  C1101   1.399   .     A
C1096  C1097   1.397   .     A
C1096  H1121   1.065   .     S
C1097  H1122   1.083   .     S
C1098  H1123   1.083   .     S
C1098  C1099   1.394   .     A
C1098  C1179   1.393   .     S
C1099  H1124   1.077   .     S
C1099  C1183   1.402   .     S
C1100  C1103   1.414   .     S
C1100  O1143   1.299   .     A
C1100  O1145   1.299   .     A
C1101  H1125   1.077   .     S
C1103  C1184   1.333   .     S
C1103  O1218   1.387   .     S
C1104  H1107   1.074   .     S
C1105  H1118   1.073   .     S
C1105  C1314   1.377   .     S
C1106  C1350   1.377   .     S
H1113  O1137   0.985   .     S
H1114  O1138   0.988   .     S
H1127  O1218   0.990   .     S
H1129  C1815   1.073   .     S
N1133  Zn1147  2.061   .     S
N1134  Zn1148  2.061   .     S
O1135  Zn1147  2.043   .     S
O1139  Zn1148  2.043   .     S
O1140  Zn1148  2.009   .     S
O1141  Zn1147  2.009   .     S
O1142  Zn1147  2.010   .     S
O1143  Zn1148  2.010   .     S
O1144  Zn1148  1.984   .     S
O1145  Zn1147  1.984   .     S
O1146  C1184   1.387   .     S
O1146  H1208   0.990   .     S
C1149  O1217   1.313   .     A
C1149  O1222   1.308   .     A
C1149  C1152   1.450   .     S
C1150  C1164   1.460   .     S
C1150  C1152   1.399   .     A
C1151  C1160   1.450   .     S
C1151  C1187   1.393   .     A
C1151  C1188   1.400   .     A
C1152  C1186   1.393   .     A
C1153  N1216   1.381   .     A
C1153  O1219   1.375   .     S
C1154  O1220   1.381   .     S
C1154  N1215   1.371   .     A
C1154  C1894   1.458   .     S
C1155  C1170   1.485   .     S
C1155  N1215   1.377   .     A
C1155  C1891   1.436   .     S
C1156  C1177   1.486   .     S
C1156  N1216   1.385   .     A
C1157  C1158   1.393   .     A
C1157  C1188   1.460   .     S
C1157  C1163   1.403   .     A
C1158  H1210   1.084   .     S
C1158  C1159   1.385   .     A
C1160  O1221   1.313   .     A
C1160  O1223   1.308   .     A
C1161  H1212   1.078   .     S
C1161  C1897   1.403   .     S
C1161  C1900   1.395   .     S
C1162  H1213   1.079   .     S
C1162  C1163   1.392   .     A
C1163  H1214   1.082   .     S
C1164  C1169   1.393   .     A
C1164  C1165   1.403   .     A
C1165  H1190   1.082   .     S
C1165  C1166   1.392   .     A
C1166  H1191   1.080   .     S
C1166  C1905   1.395   .     S
C1167  H1192   1.078   .     S
C1168  C1169   1.385   .     A
C1168  C1905   1.403   .     S
C1168  H1931   1.073   .     S
C1169  H1194   1.084   .     S
C1170  C1176   1.398   .     A
C1170  C1172   1.399   .     A
C1171  O1224   1.298   .     A
C1171  O1226   1.299   .     A
C1171  C1184   1.414   .     S
C1172  H1197   1.078   .     S
C1172  C1009   1.402   1_655 S
C1173  H1198   1.077   .     S
C1173  C1174   1.395   .     A
C1174  H1199   1.083   .     S
C1175  H1201   1.083   .     S
C1175  C1176   1.397   .     A
C1175  C1010   1.393   1_655 S
C1176  H1202   1.064   .     S
C1177  C1178   1.399   .     A
C1177  C1183   1.399   .     A
C1178  C1179   1.397   .     A
C1178  H1203   1.065   .     S
C1179  H1204   1.083   .     S
C1180  H1205   1.083   .     S
C1180  C1181   1.394   .     A
C1180  C1015   1.393   1_655 S
C1181  H1206   1.077   .     S
C1181  C1019   1.402   1_655 S
C1182  C1185   1.414   .     S
C1182  O1225   1.299   .     A
C1182  O1227   1.299   .     A
C1183  H1207   1.077   .     S
C1185  C1020   1.333   1_655 S
C1185  O1054   1.387   1_655 S
C1186  H1189   1.074   .     S
C1187  H1200   1.073   .     S
C1187  C1396   1.377   .     S
C1188  C1432   1.377   .     S
H1195  O1219   0.985   .     S
H1196  O1220   0.988   .     S
H1209  O1054   0.990   1_655 S
H1211  C1897   1.073   .     S
N1215  Zn1229  2.061   .     S
N1216  Zn1230  2.061   .     S
O1217  Zn1229  2.043   .     S
O1221  Zn1230  2.043   .     S
O1222  Zn1230  2.009   .     S
O1223  Zn1229  2.009   .     S
O1224  Zn1229  2.010   .     S
O1225  Zn1230  2.010   .     S
O1226  Zn1230  1.984   .     S
O1227  Zn1229  1.984   .     S
O1228  C1020   1.387   1_655 S
O1228  H1044   0.990   1_655 S
C1231  O1299   1.313   .     A
C1231  O1304   1.308   .     A
C1231  C1234   1.450   .     S
C1232  C1246   1.460   .     S
C1232  C1234   1.399   .     A
C1233  C1242   1.450   .     S
C1233  C1269   1.393   .     A
C1233  C1270   1.400   .     A
C1234  C1268   1.393   .     A
C1235  N1298   1.381   .     A
C1235  O1301   1.375   .     S
C1236  O1302   1.381   .     S
C1236  N1297   1.371   .     A
C1236  C1976   1.458   .     S
C1237  C1252   1.485   .     S
C1237  N1297   1.377   .     A
C1237  C1973   1.436   .     S
C1238  C1259   1.486   .     S
C1238  N1298   1.385   .     A
C1239  C1240   1.393   .     A
C1239  C1270   1.460   .     S
C1239  C1245   1.403   .     A
C1240  H1292   1.084   .     S
C1240  C1241   1.385   .     A
C1242  O1303   1.313   .     A
C1242  O1305   1.308   .     A
C1243  H1294   1.078   .     S
C1243  C1979   1.403   .     S
C1243  C1982   1.395   .     S
C1244  H1295   1.079   .     S
C1244  C1245   1.392   .     A
C1245  H1296   1.082   .     S
C1246  C1251   1.393   .     A
C1246  C1247   1.403   .     A
C1247  H1272   1.082   .     S
C1247  C1248   1.392   .     A
C1248  H1273   1.080   .     S
C1248  C1987   1.395   .     S
C1249  H1274   1.078   .     S
C1250  C1251   1.385   .     A
C1250  C1987   1.403   .     S
C1250  H2013   1.073   .     S
C1251  H1276   1.084   .     S
C1252  C1258   1.398   .     A
C1252  C1254   1.399   .     A
C1253  O1306   1.298   .     A
C1253  O1308   1.299   .     A
C1253  C1266   1.414   .     S
C1254  H1279   1.078   .     S
C1254  C1337   1.402   .     S
C1255  H1280   1.077   .     S
C1255  C1256   1.395   .     A
C1255  C1418   1.402   1_455 S
C1256  H1281   1.083   .     S
C1256  C1421   1.393   1_455 S
C1257  H1283   1.083   .     S
C1257  C1258   1.397   .     A
C1257  C1338   1.393   .     S
C1258  H1284   1.064   .     S
C1259  C1260   1.399   .     A
C1259  C1265   1.399   .     A
C1260  C1261   1.397   .     A
C1260  H1285   1.065   .     S
C1261  H1286   1.083   .     S
C1261  C1426   1.393   1_455 S
C1262  H1287   1.083   .     S
C1262  C1263   1.394   .     A
C1262  C1343   1.393   .     S
C1263  H1288   1.077   .     S
C1263  C1347   1.402   .     S
C1264  C1267   1.414   .     S
C1264  O1307   1.299   .     A
C1264  O1309   1.299   .     A
C1265  H1289   1.077   .     S
C1265  C1427   1.402   1_455 S
C1266  C1431   1.333   1_455 S
C1266  O1474   1.387   1_455 S
C1267  C1348   1.333   .     S
C1267  O1382   1.387   .     S
C1268  H1271   1.074   .     S
C1269  H1282   1.073   .     S
C1269  C740    1.377   1_565 S
C1270  C776    1.377   1_565 S
H1277  O1301   0.985   .     S
H1278  O1302   0.988   .     S
H1290  O1474   0.990   1_455 S
H1291  O1382   0.990   .     S
H1293  C1979   1.073   .     S
N1297  Zn1311  2.061   .     S
N1298  Zn1312  2.061   .     S
O1299  Zn1311  2.043   .     S
O1300  C1431   1.387   1_455 S
O1300  H1455   0.990   1_455 S
O1303  Zn1312  2.043   .     S
O1304  Zn1312  2.009   .     S
O1305  Zn1311  2.009   .     S
O1306  Zn1311  2.010   .     S
O1307  Zn1312  2.010   .     S
O1308  Zn1312  1.984   .     S
O1309  Zn1311  1.984   .     S
O1310  C1348   1.387   .     S
O1310  H1372   0.990   .     S
C1313  O1381   1.313   .     A
C1313  O1386   1.308   .     A
C1313  C1316   1.450   .     S
C1314  C1328   1.460   .     S
C1314  C1316   1.399   .     A
C1315  C1324   1.450   .     S
C1315  C1351   1.393   .     A
C1315  C1352   1.400   .     A
C1316  C1350   1.393   .     A
C1317  N1380   1.381   .     A
C1317  O1383   1.375   .     S
C1318  O1384   1.381   .     S
C1318  N1379   1.371   .     A
C1318  C2058   1.458   .     S
C1319  C1334   1.485   .     S
C1319  N1379   1.377   .     A
C1319  C2055   1.436   .     S
C1320  C1341   1.486   .     S
C1320  N1380   1.385   .     A
C1321  C1322   1.393   .     A
C1321  C1352   1.460   .     S
C1321  C1327   1.403   .     A
C1322  H1374   1.084   .     S
C1322  C1323   1.385   .     A
C1324  O1385   1.313   .     A
C1324  O1387   1.308   .     A
C1325  H1376   1.078   .     S
C1325  C2061   1.403   .     S
C1325  C2064   1.395   .     S
C1326  H1377   1.079   .     S
C1326  C1327   1.392   .     A
C1327  H1378   1.082   .     S
C1328  C1333   1.393   .     A
C1328  C1329   1.403   .     A
C1329  H1354   1.082   .     S
C1329  C1330   1.392   .     A
C1330  H1355   1.080   .     S
C1330  C2069   1.395   .     S
C1331  H1356   1.078   .     S
C1332  C1333   1.385   .     A
C1332  C2069   1.403   .     S
C1332  H2095   1.073   .     S
C1333  H1358   1.084   .     S
C1334  C1340   1.398   .     A
C1334  C1336   1.399   .     A
C1335  O1388   1.298   .     A
C1335  O1390   1.299   .     A
C1335  C1348   1.414   .     S
C1336  H1361   1.078   .     S
C1336  C1419   1.402   .     S
C1337  H1362   1.077   .     S
C1337  C1338   1.395   .     A
C1338  H1363   1.083   .     S
C1339  H1365   1.083   .     S
C1339  C1340   1.397   .     A
C1339  C1420   1.393   .     S
C1340  H1366   1.064   .     S
C1341  C1342   1.399   .     A
C1341  C1347   1.399   .     A
C1342  C1343   1.397   .     A
C1342  H1367   1.065   .     S
C1343  H1368   1.083   .     S
C1344  H1369   1.083   .     S
C1344  C1345   1.394   .     A
C1344  C1425   1.393   .     S
C1345  H1370   1.077   .     S
C1345  C1429   1.402   .     S
C1346  C1349   1.414   .     S
C1346  O1389   1.299   .     A
C1346  O1391   1.299   .     A
C1347  H1371   1.077   .     S
C1349  C1430   1.333   .     S
C1349  O1464   1.387   .     S
C1350  H1353   1.074   .     S
C1351  H1364   1.073   .     S
C1351  C822    1.377   1_565 S
C1352  C858    1.377   1_565 S
H1359  O1383   0.985   .     S
H1360  O1384   0.988   .     S
H1373  O1464   0.990   .     S
H1375  C2061   1.073   .     S
N1379  Zn1393  2.061   .     S
N1380  Zn1394  2.061   .     S
O1381  Zn1393  2.043   .     S
O1385  Zn1394  2.043   .     S
O1386  Zn1394  2.009   .     S
O1387  Zn1393  2.009   .     S
O1388  Zn1393  2.010   .     S
O1389  Zn1394  2.010   .     S
O1390  Zn1394  1.984   .     S
O1391  Zn1393  1.984   .     S
O1392  C1430   1.387   .     S
O1392  H1454   0.990   .     S
C1395  O1463   1.313   .     A
C1395  O1468   1.308   .     A
C1395  C1398   1.450   .     S
C1396  C1410   1.460   .     S
C1396  C1398   1.399   .     A
C1397  C1406   1.450   .     S
C1397  C1433   1.393   .     A
C1397  C1434   1.400   .     A
C1398  C1432   1.393   .     A
C1399  N1462   1.381   .     A
C1399  O1465   1.375   .     S
C1400  O1466   1.381   .     S
C1400  N1461   1.371   .     A
C1400  C2140   1.458   .     S
C1401  C1416   1.485   .     S
C1401  N1461   1.377   .     A
C1401  C2137   1.436   .     S
C1402  C1423   1.486   .     S
C1402  N1462   1.385   .     A
C1403  C1404   1.393   .     A
C1403  C1434   1.460   .     S
C1403  C1409   1.403   .     A
C1404  H1456   1.084   .     S
C1404  C1405   1.385   .     A
C1406  O1467   1.313   .     A
C1406  O1469   1.308   .     A
C1407  H1458   1.078   .     S
C1407  C2143   1.403   .     S
C1407  C2146   1.395   .     S
C1408  H1459   1.079   .     S
C1408  C1409   1.392   .     A
C1409  H1460   1.082   .     S
C1410  C1415   1.393   .     A
C1410  C1411   1.403   .     A
C1411  H1436   1.082   .     S
C1411  C1412   1.392   .     A
C1412  H1437   1.080   .     S
C1412  C2151   1.395   .     S
C1413  H1438   1.078   .     S
C1414  C1415   1.385   .     A
C1414  C2151   1.403   .     S
C1414  H2177   1.073   .     S
C1415  H1440   1.084   .     S
C1416  C1422   1.398   .     A
C1416  C1418   1.399   .     A
C1417  O1470   1.298   .     A
C1417  O1472   1.299   .     A
C1417  C1430   1.414   .     S
C1418  H1443   1.078   .     S
C1418  C1255   1.402   1_655 S
C1419  H1444   1.077   .     S
C1419  C1420   1.395   .     A
C1420  H1445   1.083   .     S
C1421  H1447   1.083   .     S
C1421  C1422   1.397   .     A
C1421  C1256   1.393   1_655 S
C1422  H1448   1.064   .     S
C1423  C1424   1.399   .     A
C1423  C1429   1.399   .     A
C1424  C1425   1.397   .     A
C1424  H1449   1.065   .     S
C1425  H1450   1.083   .     S
C1426  H1451   1.083   .     S
C1426  C1427   1.394   .     A
C1426  C1261   1.393   1_655 S
C1427  H1452   1.077   .     S
C1427  C1265   1.402   1_655 S
C1428  C1431   1.414   .     S
C1428  O1471   1.299   .     A
C1428  O1473   1.299   .     A
C1429  H1453   1.077   .     S
C1431  C1266   1.333   1_655 S
C1431  O1300   1.387   1_655 S
C1432  H1435   1.074   .     S
C1433  H1446   1.073   .     S
C1433  C904    1.377   1_565 S
C1434  C940    1.377   1_565 S
H1441  O1465   0.985   .     S
H1442  O1466   0.988   .     S
H1455  O1300   0.990   1_655 S
H1457  C2143   1.073   .     S
N1461  Zn1475  2.061   .     S
N1462  Zn1476  2.061   .     S
O1463  Zn1475  2.043   .     S
O1467  Zn1476  2.043   .     S
O1468  Zn1476  2.009   .     S
O1469  Zn1475  2.009   .     S
O1470  Zn1475  2.010   .     S
O1471  Zn1476  2.010   .     S
O1472  Zn1476  1.984   .     S
O1473  Zn1475  1.984   .     S
O1474  C1266   1.387   1_655 S
O1474  H1290   0.990   1_655 S
C1477  O1545   1.313   .     A
C1477  O1550   1.308   .     A
C1477  C1480   1.450   .     S
C1478  C1492   1.460   .     S
C1478  C1480   1.399   .     A
C1478  C2007   1.377   1_545 S
C1479  C1488   1.450   .     S
C1479  C1515   1.393   .     A
C1479  C1516   1.400   .     A
C1480  C1514   1.393   .     A
C1481  N1544   1.381   .     A
C1481  O1547   1.375   .     S
C1482  O1548   1.381   .     S
C1482  N1543   1.371   .     A
C1482  C8      1.458   1_556 S
C1483  C1498   1.485   .     S
C1483  N1543   1.377   .     A
C1483  C5      1.436   1_556 S
C1484  C1505   1.486   .     S
C1484  N1544   1.385   .     A
C1485  C1486   1.393   .     A
C1485  C1516   1.460   .     S
C1485  C1491   1.403   .     A
C1486  H1538   1.084   .     S
C1486  C1487   1.385   .     A
C1488  O1549   1.313   .     A
C1488  O1551   1.308   .     A
C1489  H1540   1.078   .     S
C1489  C11     1.403   1_556 S
C1489  C14     1.395   1_556 S
C1490  H1541   1.079   .     S
C1490  C1491   1.392   .     A
C1491  H1542   1.082   .     S
C1492  C1497   1.393   .     A
C1492  C1493   1.403   .     A
C1493  H1518   1.082   .     S
C1493  C1494   1.392   .     A
C1494  H1519   1.080   .     S
C1494  C19     1.395   1_556 S
C1495  H1520   1.078   .     S
C1496  C1497   1.385   .     A
C1496  C19     1.403   1_556 S
C1496  H45     1.073   1_556 S
C1497  H1522   1.084   .     S
C1498  C1504   1.398   .     A
C1498  C1500   1.399   .     A
C1499  O1552   1.298   .     A
C1499  O1554   1.299   .     A
C1499  C1512   1.414   .     S
C1500  H1525   1.078   .     S
C1500  C1583   1.402   .     S
C1501  H1526   1.077   .     S
C1501  C1502   1.395   .     A
C1501  C1664   1.402   1_455 S
C1502  H1527   1.083   .     S
C1502  C1667   1.393   1_455 S
C1503  H1529   1.083   .     S
C1503  C1504   1.397   .     A
C1503  C1584   1.393   .     S
C1504  H1530   1.064   .     S
C1505  C1506   1.399   .     A
C1505  C1511   1.399   .     A
C1506  C1507   1.397   .     A
C1506  H1531   1.065   .     S
C1507  H1532   1.083   .     S
C1507  C1672   1.393   1_455 S
C1508  H1533   1.083   .     S
C1508  C1509   1.394   .     A
C1508  C1589   1.393   .     S
C1509  H1534   1.077   .     S
C1509  C1593   1.402   .     S
C1510  C1513   1.414   .     S
C1510  O1553   1.299   .     A
C1510  O1555   1.299   .     A
C1511  H1535   1.077   .     S
C1511  C1673   1.402   1_455 S
C1512  C1677   1.333   1_455 S
C1512  O1720   1.387   1_455 S
C1513  C1594   1.333   .     S
C1513  O1628   1.387   .     S
C1514  H1517   1.074   .     S
C1514  C2008   1.377   1_545 S
C1515  H1528   1.073   .     S
C1515  C1724   1.377   .     S
C1516  C1760   1.377   .     S
H1523  O1547   0.985   .     S
H1524  O1548   0.988   .     S
H1536  O1720   0.990   1_455 S
H1537  O1628   0.990   .     S
H1539  C11     1.073   1_556 S
N1543  Zn1557  2.061   .     S
N1544  Zn1558  2.061   .     S
O1545  Zn1557  2.043   .     S
O1546  C1677   1.387   1_455 S
O1546  H1701   0.990   1_455 S
O1549  Zn1558  2.043   .     S
O1550  Zn1558  2.009   .     S
O1551  Zn1557  2.009   .     S
O1552  Zn1557  2.010   .     S
O1553  Zn1558  2.010   .     S
O1554  Zn1558  1.984   .     S
O1555  Zn1557  1.984   .     S
O1556  C1594   1.387   .     S
O1556  H1618   0.990   .     S
C1559  O1627   1.313   .     A
C1559  O1632   1.308   .     A
C1559  C1562   1.450   .     S
C1560  C1574   1.460   .     S
C1560  C1562   1.399   .     A
C1560  C2089   1.377   1_545 S
C1561  C1570   1.450   .     S
C1561  C1597   1.393   .     A
C1561  C1598   1.400   .     A
C1562  C1596   1.393   .     A
C1563  N1626   1.381   .     A
C1563  O1629   1.375   .     S
C1564  O1630   1.381   .     S
C1564  N1625   1.371   .     A
C1564  C90     1.458   1_556 S
C1565  C1580   1.485   .     S
C1565  N1625   1.377   .     A
C1565  C87     1.436   1_556 S
C1566  C1587   1.486   .     S
C1566  N1626   1.385   .     A
C1567  C1568   1.393   .     A
C1567  C1598   1.460   .     S
C1567  C1573   1.403   .     A
C1568  H1620   1.084   .     S
C1568  C1569   1.385   .     A
C1570  O1631   1.313   .     A
C1570  O1633   1.308   .     A
C1571  H1622   1.078   .     S
C1571  C93     1.403   1_556 S
C1571  C96     1.395   1_556 S
C1572  H1623   1.079   .     S
C1572  C1573   1.392   .     A
C1573  H1624   1.082   .     S
C1574  C1579   1.393   .     A
C1574  C1575   1.403   .     A
C1575  H1600   1.082   .     S
C1575  C1576   1.392   .     A
C1576  H1601   1.080   .     S
C1576  C101    1.395   1_556 S
C1577  H1602   1.078   .     S
C1578  C1579   1.385   .     A
C1578  C101    1.403   1_556 S
C1578  H127    1.073   1_556 S
C1579  H1604   1.084   .     S
C1580  C1586   1.398   .     A
C1580  C1582   1.399   .     A
C1581  O1634   1.298   .     A
C1581  O1636   1.299   .     A
C1581  C1594   1.414   .     S
C1582  H1607   1.078   .     S
C1582  C1665   1.402   .     S
C1583  H1608   1.077   .     S
C1583  C1584   1.395   .     A
C1584  H1609   1.083   .     S
C1585  H1611   1.083   .     S
C1585  C1586   1.397   .     A
C1585  C1666   1.393   .     S
C1586  H1612   1.064   .     S
C1587  C1588   1.399   .     A
C1587  C1593   1.399   .     A
C1588  C1589   1.397   .     A
C1588  H1613   1.065   .     S
C1589  H1614   1.083   .     S
C1590  H1615   1.083   .     S
C1590  C1591   1.394   .     A
C1590  C1671   1.393   .     S
C1591  H1616   1.077   .     S
C1591  C1675   1.402   .     S
C1592  C1595   1.414   .     S
C1592  O1635   1.299   .     A
C1592  O1637   1.299   .     A
C1593  H1617   1.077   .     S
C1595  C1676   1.333   .     S
C1595  O1710   1.387   .     S
C1596  H1599   1.074   .     S
C1596  C2090   1.377   1_545 S
C1597  H1610   1.073   .     S
C1597  C1806   1.377   .     S
C1598  C1842   1.377   .     S
H1605  O1629   0.985   .     S
H1606  O1630   0.988   .     S
H1619  O1710   0.990   .     S
H1621  C93     1.073   1_556 S
N1625  Zn1639  2.061   .     S
N1626  Zn1640  2.061   .     S
O1627  Zn1639  2.043   .     S
O1631  Zn1640  2.043   .     S
O1632  Zn1640  2.009   .     S
O1633  Zn1639  2.009   .     S
O1634  Zn1639  2.010   .     S
O1635  Zn1640  2.010   .     S
O1636  Zn1640  1.984   .     S
O1637  Zn1639  1.984   .     S
O1638  C1676   1.387   .     S
O1638  H1700   0.990   .     S
C1641  O1709   1.313   .     A
C1641  O1714   1.308   .     A
C1641  C1644   1.450   .     S
C1642  C1656   1.460   .     S
C1642  C1644   1.399   .     A
C1642  C2171   1.377   1_545 S
C1643  C1652   1.450   .     S
C1643  C1679   1.393   .     A
C1643  C1680   1.400   .     A
C1644  C1678   1.393   .     A
C1645  N1708   1.381   .     A
C1645  O1711   1.375   .     S
C1646  O1712   1.381   .     S
C1646  N1707   1.371   .     A
C1646  C172    1.458   1_556 S
C1647  C1662   1.485   .     S
C1647  N1707   1.377   .     A
C1647  C169    1.436   1_556 S
C1648  C1669   1.486   .     S
C1648  N1708   1.385   .     A
C1649  C1650   1.393   .     A
C1649  C1680   1.460   .     S
C1649  C1655   1.403   .     A
C1650  H1702   1.084   .     S
C1650  C1651   1.385   .     A
C1652  O1713   1.313   .     A
C1652  O1715   1.308   .     A
C1653  H1704   1.078   .     S
C1653  C175    1.403   1_556 S
C1653  C178    1.395   1_556 S
C1654  H1705   1.079   .     S
C1654  C1655   1.392   .     A
C1655  H1706   1.082   .     S
C1656  C1661   1.393   .     A
C1656  C1657   1.403   .     A
C1657  H1682   1.082   .     S
C1657  C1658   1.392   .     A
C1658  H1683   1.080   .     S
C1658  C183    1.395   1_556 S
C1659  H1684   1.078   .     S
C1660  C1661   1.385   .     A
C1660  C183    1.403   1_556 S
C1660  H209    1.073   1_556 S
C1661  H1686   1.084   .     S
C1662  C1668   1.398   .     A
C1662  C1664   1.399   .     A
C1663  O1716   1.298   .     A
C1663  O1718   1.299   .     A
C1663  C1676   1.414   .     S
C1664  H1689   1.078   .     S
C1664  C1501   1.402   1_655 S
C1665  H1690   1.077   .     S
C1665  C1666   1.395   .     A
C1666  H1691   1.083   .     S
C1667  H1693   1.083   .     S
C1667  C1668   1.397   .     A
C1667  C1502   1.393   1_655 S
C1668  H1694   1.064   .     S
C1669  C1670   1.399   .     A
C1669  C1675   1.399   .     A
C1670  C1671   1.397   .     A
C1670  H1695   1.065   .     S
C1671  H1696   1.083   .     S
C1672  H1697   1.083   .     S
C1672  C1673   1.394   .     A
C1672  C1507   1.393   1_655 S
C1673  H1698   1.077   .     S
C1673  C1511   1.402   1_655 S
C1674  C1677   1.414   .     S
C1674  O1717   1.299   .     A
C1674  O1719   1.299   .     A
C1675  H1699   1.077   .     S
C1677  C1512   1.333   1_655 S
C1677  O1546   1.387   1_655 S
C1678  H1681   1.074   .     S
C1678  C2172   1.377   1_545 S
C1679  H1692   1.073   .     S
C1679  C1888   1.377   .     S
C1680  C1924   1.377   .     S
H1687  O1711   0.985   .     S
H1688  O1712   0.988   .     S
H1701  O1546   0.990   1_655 S
H1703  C175    1.073   1_556 S
N1707  Zn1721  2.061   .     S
N1708  Zn1722  2.061   .     S
O1709  Zn1721  2.043   .     S
O1713  Zn1722  2.043   .     S
O1714  Zn1722  2.009   .     S
O1715  Zn1721  2.009   .     S
O1716  Zn1721  2.010   .     S
O1717  Zn1722  2.010   .     S
O1718  Zn1722  1.984   .     S
O1719  Zn1721  1.984   .     S
O1720  C1512   1.387   1_655 S
O1720  H1536   0.990   1_655 S
C1723  O1791   1.313   .     A
C1723  O1796   1.308   .     A
C1723  C1726   1.450   .     S
C1724  C1738   1.460   .     S
C1724  C1726   1.399   .     A
C1725  C1734   1.450   .     S
C1725  C1761   1.393   .     A
C1725  C1762   1.400   .     A
C1726  C1760   1.393   .     A
C1727  N1790   1.381   .     A
C1727  O1793   1.375   .     S
C1728  O1794   1.381   .     S
C1728  N1789   1.371   .     A
C1728  C254    1.458   1_556 S
C1729  C1744   1.485   .     S
C1729  N1789   1.377   .     A
C1729  C251    1.436   1_556 S
C1730  C1751   1.486   .     S
C1730  N1790   1.385   .     A
C1731  C1732   1.393   .     A
C1731  C1762   1.460   .     S
C1731  C1737   1.403   .     A
C1732  H1784   1.084   .     S
C1732  C1733   1.385   .     A
C1734  O1795   1.313   .     A
C1734  O1797   1.308   .     A
C1735  H1786   1.078   .     S
C1735  C257    1.403   1_556 S
C1735  C260    1.395   1_556 S
C1736  H1787   1.079   .     S
C1736  C1737   1.392   .     A
C1737  H1788   1.082   .     S
C1738  C1743   1.393   .     A
C1738  C1739   1.403   .     A
C1739  H1764   1.082   .     S
C1739  C1740   1.392   .     A
C1740  H1765   1.080   .     S
C1740  C265    1.395   1_556 S
C1741  H1766   1.078   .     S
C1742  C1743   1.385   .     A
C1742  C265    1.403   1_556 S
C1742  H291    1.073   1_556 S
C1743  H1768   1.084   .     S
C1744  C1750   1.398   .     A
C1744  C1746   1.399   .     A
C1745  O1798   1.298   .     A
C1745  O1800   1.299   .     A
C1745  C1758   1.414   .     S
C1746  H1771   1.078   .     S
C1746  C1829   1.402   .     S
C1747  H1772   1.077   .     S
C1747  C1748   1.395   .     A
C1747  C1910   1.402   1_455 S
C1748  H1773   1.083   .     S
C1748  C1913   1.393   1_455 S
C1749  H1775   1.083   .     S
C1749  C1750   1.397   .     A
C1749  C1830   1.393   .     S
C1750  H1776   1.064   .     S
C1751  C1752   1.399   .     A
C1751  C1757   1.399   .     A
C1752  C1753   1.397   .     A
C1752  H1777   1.065   .     S
C1753  H1778   1.083   .     S
C1753  C1918   1.393   1_455 S
C1754  H1779   1.083   .     S
C1754  C1755   1.394   .     A
C1754  C1835   1.393   .     S
C1755  H1780   1.077   .     S
C1755  C1839   1.402   .     S
C1756  C1759   1.414   .     S
C1756  O1799   1.299   .     A
C1756  O1801   1.299   .     A
C1757  H1781   1.077   .     S
C1757  C1919   1.402   1_455 S
C1758  C1923   1.333   1_455 S
C1758  O1966   1.387   1_455 S
C1759  C1840   1.333   .     S
C1759  O1874   1.387   .     S
C1760  H1763   1.074   .     S
C1761  H1774   1.073   .     S
C1761  C1970   1.377   .     S
C1762  C2006   1.377   .     S
H1769  O1793   0.985   .     S
H1770  O1794   0.988   .     S
H1782  O1966   0.990   1_455 S
H1783  O1874   0.990   .     S
H1785  C257    1.073   1_556 S
N1789  Zn1803  2.061   .     S
N1790  Zn1804  2.061   .     S
O1791  Zn1803  2.043   .     S
O1792  C1923   1.387   1_455 S
O1792  H1947   0.990   1_455 S
O1795  Zn1804  2.043   .     S
O1796  Zn1804  2.009   .     S
O1797  Zn1803  2.009   .     S
O1798  Zn1803  2.010   .     S
O1799  Zn1804  2.010   .     S
O1800  Zn1804  1.984   .     S
O1801  Zn1803  1.984   .     S
O1802  C1840   1.387   .     S
O1802  H1864   0.990   .     S
C1805  O1873   1.313   .     A
C1805  O1878   1.308   .     A
C1805  C1808   1.450   .     S
C1806  C1820   1.460   .     S
C1806  C1808   1.399   .     A
C1807  C1816   1.450   .     S
C1807  C1843   1.393   .     A
C1807  C1844   1.400   .     A
C1808  C1842   1.393   .     A
C1809  N1872   1.381   .     A
C1809  O1875   1.375   .     S
C1810  O1876   1.381   .     S
C1810  N1871   1.371   .     A
C1810  C336    1.458   1_556 S
C1811  C1826   1.485   .     S
C1811  N1871   1.377   .     A
C1811  C333    1.436   1_556 S
C1812  C1833   1.486   .     S
C1812  N1872   1.385   .     A
C1813  C1814   1.393   .     A
C1813  C1844   1.460   .     S
C1813  C1819   1.403   .     A
C1814  H1866   1.084   .     S
C1814  C1815   1.385   .     A
C1816  O1877   1.313   .     A
C1816  O1879   1.308   .     A
C1817  H1868   1.078   .     S
C1817  C339    1.403   1_556 S
C1817  C342    1.395   1_556 S
C1818  H1869   1.079   .     S
C1818  C1819   1.392   .     A
C1819  H1870   1.082   .     S
C1820  C1825   1.393   .     A
C1820  C1821   1.403   .     A
C1821  H1846   1.082   .     S
C1821  C1822   1.392   .     A
C1822  H1847   1.080   .     S
C1822  C347    1.395   1_556 S
C1823  H1848   1.078   .     S
C1824  C1825   1.385   .     A
C1824  C347    1.403   1_556 S
C1824  H373    1.073   1_556 S
C1825  H1850   1.084   .     S
C1826  C1832   1.398   .     A
C1826  C1828   1.399   .     A
C1827  O1880   1.298   .     A
C1827  O1882   1.299   .     A
C1827  C1840   1.414   .     S
C1828  H1853   1.078   .     S
C1828  C1911   1.402   .     S
C1829  H1854   1.077   .     S
C1829  C1830   1.395   .     A
C1830  H1855   1.083   .     S
C1831  H1857   1.083   .     S
C1831  C1832   1.397   .     A
C1831  C1912   1.393   .     S
C1832  H1858   1.064   .     S
C1833  C1834   1.399   .     A
C1833  C1839   1.399   .     A
C1834  C1835   1.397   .     A
C1834  H1859   1.065   .     S
C1835  H1860   1.083   .     S
C1836  H1861   1.083   .     S
C1836  C1837   1.394   .     A
C1836  C1917   1.393   .     S
C1837  H1862   1.077   .     S
C1837  C1921   1.402   .     S
C1838  C1841   1.414   .     S
C1838  O1881   1.299   .     A
C1838  O1883   1.299   .     A
C1839  H1863   1.077   .     S
C1841  C1922   1.333   .     S
C1841  O1956   1.387   .     S
C1842  H1845   1.074   .     S
C1843  H1856   1.073   .     S
C1843  C2052   1.377   .     S
C1844  C2088   1.377   .     S
H1851  O1875   0.985   .     S
H1852  O1876   0.988   .     S
H1865  O1956   0.990   .     S
H1867  C339    1.073   1_556 S
N1871  Zn1885  2.061   .     S
N1872  Zn1886  2.061   .     S
O1873  Zn1885  2.043   .     S
O1877  Zn1886  2.043   .     S
O1878  Zn1886  2.009   .     S
O1879  Zn1885  2.009   .     S
O1880  Zn1885  2.010   .     S
O1881  Zn1886  2.010   .     S
O1882  Zn1886  1.984   .     S
O1883  Zn1885  1.984   .     S
O1884  C1922   1.387   .     S
O1884  H1946   0.990   .     S
C1887  O1955   1.313   .     A
C1887  O1960   1.308   .     A
C1887  C1890   1.450   .     S
C1888  C1902   1.460   .     S
C1888  C1890   1.399   .     A
C1889  C1898   1.450   .     S
C1889  C1925   1.393   .     A
C1889  C1926   1.400   .     A
C1890  C1924   1.393   .     A
C1891  N1954   1.381   .     A
C1891  O1957   1.375   .     S
C1892  O1958   1.381   .     S
C1892  N1953   1.371   .     A
C1892  C418    1.458   1_556 S
C1893  C1908   1.485   .     S
C1893  N1953   1.377   .     A
C1893  C415    1.436   1_556 S
C1894  C1915   1.486   .     S
C1894  N1954   1.385   .     A
C1895  C1896   1.393   .     A
C1895  C1926   1.460   .     S
C1895  C1901   1.403   .     A
C1896  H1948   1.084   .     S
C1896  C1897   1.385   .     A
C1898  O1959   1.313   .     A
C1898  O1961   1.308   .     A
C1899  H1950   1.078   .     S
C1899  C421    1.403   1_556 S
C1899  C424    1.395   1_556 S
C1900  H1951   1.079   .     S
C1900  C1901   1.392   .     A
C1901  H1952   1.082   .     S
C1902  C1907   1.393   .     A
C1902  C1903   1.403   .     A
C1903  H1928   1.082   .     S
C1903  C1904   1.392   .     A
C1904  H1929   1.080   .     S
C1904  C429    1.395   1_556 S
C1905  H1930   1.078   .     S
C1906  C1907   1.385   .     A
C1906  C429    1.403   1_556 S
C1906  H455    1.073   1_556 S
C1907  H1932   1.084   .     S
C1908  C1914   1.398   .     A
C1908  C1910   1.399   .     A
C1909  O1962   1.298   .     A
C1909  O1964   1.299   .     A
C1909  C1922   1.414   .     S
C1910  H1935   1.078   .     S
C1910  C1747   1.402   1_655 S
C1911  H1936   1.077   .     S
C1911  C1912   1.395   .     A
C1912  H1937   1.083   .     S
C1913  H1939   1.083   .     S
C1913  C1914   1.397   .     A
C1913  C1748   1.393   1_655 S
C1914  H1940   1.064   .     S
C1915  C1916   1.399   .     A
C1915  C1921   1.399   .     A
C1916  C1917   1.397   .     A
C1916  H1941   1.065   .     S
C1917  H1942   1.083   .     S
C1918  H1943   1.083   .     S
C1918  C1919   1.394   .     A
C1918  C1753   1.393   1_655 S
C1919  H1944   1.077   .     S
C1919  C1757   1.402   1_655 S
C1920  C1923   1.414   .     S
C1920  O1963   1.299   .     A
C1920  O1965   1.299   .     A
C1921  H1945   1.077   .     S
C1923  C1758   1.333   1_655 S
C1923  O1792   1.387   1_655 S
C1924  H1927   1.074   .     S
C1925  H1938   1.073   .     S
C1925  C2134   1.377   .     S
C1926  C2170   1.377   .     S
H1933  O1957   0.985   .     S
H1934  O1958   0.988   .     S
H1947  O1792   0.990   1_655 S
H1949  C421    1.073   1_556 S
N1953  Zn1967  2.061   .     S
N1954  Zn1968  2.061   .     S
O1955  Zn1967  2.043   .     S
O1959  Zn1968  2.043   .     S
O1960  Zn1968  2.009   .     S
O1961  Zn1967  2.009   .     S
O1962  Zn1967  2.010   .     S
O1963  Zn1968  2.010   .     S
O1964  Zn1968  1.984   .     S
O1965  Zn1967  1.984   .     S
O1966  C1758   1.387   1_655 S
O1966  H1782   0.990   1_655 S
C1969  O2037   1.313   .     A
C1969  O2042   1.308   .     A
C1969  C1972   1.450   .     S
C1970  C1984   1.460   .     S
C1970  C1972   1.399   .     A
C1971  C1980   1.450   .     S
C1971  C2007   1.393   .     A
C1971  C2008   1.400   .     A
C1972  C2006   1.393   .     A
C1973  N2036   1.381   .     A
C1973  O2039   1.375   .     S
C1974  O2040   1.381   .     S
C1974  N2035   1.371   .     A
C1974  C500    1.458   1_556 S
C1975  C1990   1.485   .     S
C1975  N2035   1.377   .     A
C1975  C497    1.436   1_556 S
C1976  C1997   1.486   .     S
C1976  N2036   1.385   .     A
C1977  C1978   1.393   .     A
C1977  C2008   1.460   .     S
C1977  C1983   1.403   .     A
C1978  H2030   1.084   .     S
C1978  C1979   1.385   .     A
C1980  O2041   1.313   .     A
C1980  O2043   1.308   .     A
C1981  H2032   1.078   .     S
C1981  C503    1.403   1_556 S
C1981  C506    1.395   1_556 S
C1982  H2033   1.079   .     S
C1982  C1983   1.392   .     A
C1983  H2034   1.082   .     S
C1984  C1989   1.393   .     A
C1984  C1985   1.403   .     A
C1985  H2010   1.082   .     S
C1985  C1986   1.392   .     A
C1986  H2011   1.080   .     S
C1986  C511    1.395   1_556 S
C1987  H2012   1.078   .     S
C1988  C1989   1.385   .     A
C1988  C511    1.403   1_556 S
C1988  H537    1.073   1_556 S
C1989  H2014   1.084   .     S
C1990  C1996   1.398   .     A
C1990  C1992   1.399   .     A
C1991  O2044   1.298   .     A
C1991  O2046   1.299   .     A
C1991  C2004   1.414   .     S
C1992  H2017   1.078   .     S
C1992  C2075   1.402   .     S
C1993  H2018   1.077   .     S
C1993  C1994   1.395   .     A
C1993  C2156   1.402   1_455 S
C1994  H2019   1.083   .     S
C1994  C2159   1.393   1_455 S
C1995  H2021   1.083   .     S
C1995  C1996   1.397   .     A
C1995  C2076   1.393   .     S
C1996  H2022   1.064   .     S
C1997  C1998   1.399   .     A
C1997  C2003   1.399   .     A
C1998  C1999   1.397   .     A
C1998  H2023   1.065   .     S
C1999  H2024   1.083   .     S
C1999  C2164   1.393   1_455 S
C2000  H2025   1.083   .     S
C2000  C2001   1.394   .     A
C2000  C2081   1.393   .     S
C2001  H2026   1.077   .     S
C2001  C2085   1.402   .     S
C2002  C2005   1.414   .     S
C2002  O2045   1.299   .     A
C2002  O2047   1.299   .     A
C2003  H2027   1.077   .     S
C2003  C2165   1.402   1_455 S
C2004  C2169   1.333   1_455 S
C2004  O2212   1.387   1_455 S
C2005  C2086   1.333   .     S
C2005  O2120   1.387   .     S
C2006  H2009   1.074   .     S
C2007  H2020   1.073   .     S
C2007  C1478   1.377   1_565 S
C2008  C1514   1.377   1_565 S
H2015  O2039   0.985   .     S
H2016  O2040   0.988   .     S
H2028  O2212   0.990   1_455 S
H2029  O2120   0.990   .     S
H2031  C503    1.073   1_556 S
N2035  Zn2049  2.061   .     S
N2036  Zn2050  2.061   .     S
O2037  Zn2049  2.043   .     S
O2038  C2169   1.387   1_455 S
O2038  H2193   0.990   1_455 S
O2041  Zn2050  2.043   .     S
O2042  Zn2050  2.009   .     S
O2043  Zn2049  2.009   .     S
O2044  Zn2049  2.010   .     S
O2045  Zn2050  2.010   .     S
O2046  Zn2050  1.984   .     S
O2047  Zn2049  1.984   .     S
O2048  C2086   1.387   .     S
O2048  H2110   0.990   .     S
C2051  O2119   1.313   .     A
C2051  O2124   1.308   .     A
C2051  C2054   1.450   .     S
C2052  C2066   1.460   .     S
C2052  C2054   1.399   .     A
C2053  C2062   1.450   .     S
C2053  C2089   1.393   .     A
C2053  C2090   1.400   .     A
C2054  C2088   1.393   .     A
C2055  N2118   1.381   .     A
C2055  O2121   1.375   .     S
C2056  O2122   1.381   .     S
C2056  N2117   1.371   .     A
C2056  C582    1.458   1_556 S
C2057  C2072   1.485   .     S
C2057  N2117   1.377   .     A
C2057  C579    1.436   1_556 S
C2058  C2079   1.486   .     S
C2058  N2118   1.385   .     A
C2059  C2060   1.393   .     A
C2059  C2090   1.460   .     S
C2059  C2065   1.403   .     A
C2060  H2112   1.084   .     S
C2060  C2061   1.385   .     A
C2062  O2123   1.313   .     A
C2062  O2125   1.308   .     A
C2063  H2114   1.078   .     S
C2063  C585    1.403   1_556 S
C2063  C588    1.395   1_556 S
C2064  H2115   1.079   .     S
C2064  C2065   1.392   .     A
C2065  H2116   1.082   .     S
C2066  C2071   1.393   .     A
C2066  C2067   1.403   .     A
C2067  H2092   1.082   .     S
C2067  C2068   1.392   .     A
C2068  H2093   1.080   .     S
C2068  C593    1.395   1_556 S
C2069  H2094   1.078   .     S
C2070  C2071   1.385   .     A
C2070  C593    1.403   1_556 S
C2070  H619    1.073   1_556 S
C2071  H2096   1.084   .     S
C2072  C2078   1.398   .     A
C2072  C2074   1.399   .     A
C2073  O2126   1.298   .     A
C2073  O2128   1.299   .     A
C2073  C2086   1.414   .     S
C2074  H2099   1.078   .     S
C2074  C2157   1.402   .     S
C2075  H2100   1.077   .     S
C2075  C2076   1.395   .     A
C2076  H2101   1.083   .     S
C2077  H2103   1.083   .     S
C2077  C2078   1.397   .     A
C2077  C2158   1.393   .     S
C2078  H2104   1.064   .     S
C2079  C2080   1.399   .     A
C2079  C2085   1.399   .     A
C2080  C2081   1.397   .     A
C2080  H2105   1.065   .     S
C2081  H2106   1.083   .     S
C2082  H2107   1.083   .     S
C2082  C2083   1.394   .     A
C2082  C2163   1.393   .     S
C2083  H2108   1.077   .     S
C2083  C2167   1.402   .     S
C2084  C2087   1.414   .     S
C2084  O2127   1.299   .     A
C2084  O2129   1.299   .     A
C2085  H2109   1.077   .     S
C2087  C2168   1.333   .     S
C2087  O2202   1.387   .     S
C2088  H2091   1.074   .     S
C2089  H2102   1.073   .     S
C2089  C1560   1.377   1_565 S
C2090  C1596   1.377   1_565 S
H2097  O2121   0.985   .     S
H2098  O2122   0.988   .     S
H2111  O2202   0.990   .     S
H2113  C585    1.073   1_556 S
N2117  Zn2131  2.061   .     S
N2118  Zn2132  2.061   .     S
O2119  Zn2131  2.043   .     S
O2123  Zn2132  2.043   .     S
O2124  Zn2132  2.009   .     S
O2125  Zn2131  2.009   .     S
O2126  Zn2131  2.010   .     S
O2127  Zn2132  2.010   .     S
O2128  Zn2132  1.984   .     S
O2129  Zn2131  1.984   .     S
O2130  C2168   1.387   .     S
O2130  H2192   0.990   .     S
C2133  O2201   1.313   .     A
C2133  O2206   1.308   .     A
C2133  C2136   1.450   .     S
C2134  C2148   1.460   .     S
C2134  C2136   1.399   .     A
C2135  C2144   1.450   .     S
C2135  C2171   1.393   .     A
C2135  C2172   1.400   .     A
C2136  C2170   1.393   .     A
C2137  N2200   1.381   .     A
C2137  O2203   1.375   .     S
C2138  O2204   1.381   .     S
C2138  N2199   1.371   .     A
C2138  C664    1.458   1_556 S
C2139  C2154   1.485   .     S
C2139  N2199   1.377   .     A
C2139  C661    1.436   1_556 S
C2140  C2161   1.486   .     S
C2140  N2200   1.385   .     A
C2141  C2142   1.393   .     A
C2141  C2172   1.460   .     S
C2141  C2147   1.403   .     A
C2142  H2194   1.084   .     S
C2142  C2143   1.385   .     A
C2144  O2205   1.313   .     A
C2144  O2207   1.308   .     A
C2145  H2196   1.078   .     S
C2145  C667    1.403   1_556 S
C2145  C670    1.395   1_556 S
C2146  H2197   1.079   .     S
C2146  C2147   1.392   .     A
C2147  H2198   1.082   .     S
C2148  C2153   1.393   .     A
C2148  C2149   1.403   .     A
C2149  H2174   1.082   .     S
C2149  C2150   1.392   .     A
C2150  H2175   1.080   .     S
C2150  C675    1.395   1_556 S
C2151  H2176   1.078   .     S
C2152  C2153   1.385   .     A
C2152  C675    1.403   1_556 S
C2152  H701    1.073   1_556 S
C2153  H2178   1.084   .     S
C2154  C2160   1.398   .     A
C2154  C2156   1.399   .     A
C2155  O2208   1.298   .     A
C2155  O2210   1.299   .     A
C2155  C2168   1.414   .     S
C2156  H2181   1.078   .     S
C2156  C1993   1.402   1_655 S
C2157  H2182   1.077   .     S
C2157  C2158   1.395   .     A
C2158  H2183   1.083   .     S
C2159  H2185   1.083   .     S
C2159  C2160   1.397   .     A
C2159  C1994   1.393   1_655 S
C2160  H2186   1.064   .     S
C2161  C2162   1.399   .     A
C2161  C2167   1.399   .     A
C2162  C2163   1.397   .     A
C2162  H2187   1.065   .     S
C2163  H2188   1.083   .     S
C2164  H2189   1.083   .     S
C2164  C2165   1.394   .     A
C2164  C1999   1.393   1_655 S
C2165  H2190   1.077   .     S
C2165  C2003   1.402   1_655 S
C2166  C2169   1.414   .     S
C2166  O2209   1.299   .     A
C2166  O2211   1.299   .     A
C2167  H2191   1.077   .     S
C2169  C2004   1.333   1_655 S
C2169  O2038   1.387   1_655 S
C2170  H2173   1.074   .     S
C2171  H2184   1.073   .     S
C2171  C1642   1.377   1_565 S
C2172  C1678   1.377   1_565 S
H2179  O2203   0.985   .     S
H2180  O2204   0.988   .     S
H2193  O2038   0.990   1_655 S
H2195  C667    1.073   1_556 S
N2199  Zn2213  2.061   .     S
N2200  Zn2214  2.061   .     S
O2201  Zn2213  2.043   .     S
O2205  Zn2214  2.043   .     S
O2206  Zn2214  2.009   .     S
O2207  Zn2213  2.009   .     S
O2208  Zn2213  2.010   .     S
O2209  Zn2214  2.010   .     S
O2210  Zn2214  1.984   .     S
O2211  Zn2213  1.984   .     S
O2212  C2004   1.387   1_655 S
O2212  H2028   0.990   1_655 S
