data_str_m3_o1_o16_pcu_sym.48
_audit_creation_date              2020-01-03
_audit_creation_method            'Materials Studio'
_symmetry_space_group_name_H-M    'P1'
_symmetry_Int_Tables_number       1
_symmetry_cell_setting            triclinic
loop_
_symmetry_equiv_pos_as_xyz
  x,y,z
_cell_length_a                    29.6515
_cell_length_b                    31.9768
_cell_length_c                    26.2347
_cell_angle_alpha                 90.1307
_cell_angle_beta                  69.9911
_cell_angle_gamma                 90.1498
loop_
_atom_site_label
_atom_site_type_symbol
_atom_site_fract_x
_atom_site_fract_y
_atom_site_fract_z
_atom_site_U_iso_or_equiv
_atom_site_adp_type
_atom_site_occupancy
O1     O     0.12846   0.22775   0.25000   0.00000  Uiso   1.00
O2     O     0.20490   0.22774   0.25000   0.00000  Uiso   1.00
C3     C     0.16668   0.24658   0.25013   0.00000  Uiso   1.00
O4     O     0.10947   0.16666   0.32681   0.00000  Uiso   1.00
O5     O     0.18591   0.16665   0.32681   0.00000  Uiso   1.00
C6     C     0.13994   0.16479   0.35209   0.00000  Uiso   1.00
Zn7    Zn    0.11562   0.16667   0.25000   0.00000  Uiso   1.00
Zn8    Zn    0.21771   0.16666   0.25000   0.00000  Uiso   1.00
O9     O     0.12843   0.10559   0.24999   0.00000  Uiso   1.00
O10    O     0.20488   0.10558   0.25000   0.00000  Uiso   1.00
O11    O     0.14742   0.16668   0.17319   0.00000  Uiso   1.00
O12    O     0.22387   0.16667   0.17319   0.00000  Uiso   1.00
C13    C     0.16724   0.08673   0.24791   0.00000  Uiso   1.00
C14    C     0.19338   0.16693   0.14787   0.00000  Uiso   1.00
C15    C     0.25816   0.12550   0.00915   0.00000  Uiso   1.00
H16    H     0.27667   0.13105   0.08107   0.00000  Uiso   1.00
H17    H     0.25580   0.09174   0.41831   0.00000  Uiso   1.00
H18    H     0.28971   0.10702   0.48827   0.00000  Uiso   1.00
C19    C     0.20991   0.16242   0.08936   0.00000  Uiso   1.00
C20    C     0.07830   0.18097   0.44009   0.00000  Uiso   1.00
C21    C     0.06632   0.18859   0.49517   0.00000  Uiso   1.00
C22    C     0.09948   0.18034   0.02062   0.00000  Uiso   1.00
C23    C     0.14425   0.16135   0.49179   0.00000  Uiso   1.00
C24    C     0.15206   0.14649   0.43878   0.00000  Uiso   1.00
C25    C     0.18114   0.15609   0.01398   0.00000  Uiso   1.00
C26    C     0.22247   0.13214   0.48603   0.00000  Uiso   1.00
C27    C     0.22613   0.11275   0.43730   0.00000  Uiso   1.00
C28    C     0.19020   0.11786   0.41468   0.00000  Uiso   1.00
C29    C     0.17789   0.17373   0.06368   0.00000  Uiso   1.00
C30    C     0.25135   0.13981   0.06144   0.00000  Uiso   1.00
C31    C     0.12212   0.16185   0.41116   0.00000  Uiso   1.00
H32    H     0.14890   0.19435   0.08524   0.00000  Uiso   1.00
H33    H     0.05427   0.19168   0.41970   0.00000  Uiso   1.00
H34    H     0.08856   0.18834   0.06303   0.00000  Uiso   1.00
H35    H     0.03233   0.20312   0.01758   0.00000  Uiso   1.00
C36    C     0.20870   0.31118   0.21758   0.00000  Uiso   1.00
H37    H     0.24032   0.29382   0.19389   0.00000  Uiso   1.00
C38    C     0.20908   0.02078   0.21529   0.00000  Uiso   1.00
C39    C     0.16757   0.04250   0.24622   0.00000  Uiso   1.00
C40    C     0.12569   0.02162   0.27696   0.00000  Uiso   1.00
H41    H     0.09369   0.03847   0.30073   0.00000  Uiso   1.00
C42    C     0.12533   0.31211   0.27817   0.00000  Uiso   1.00
H43    H     0.09306   0.29577   0.30241   0.00000  Uiso   1.00
C44    C     0.16702   0.29064   0.24903   0.00000  Uiso   1.00
C45    C     0.31901   0.14013   0.21721   0.00000  Uiso   1.00
H46    H     0.30866   0.11906   0.19088   0.00000  Uiso   1.00
C47    C     0.03345   0.13976   0.21735   0.00000  Uiso   1.00
N48    N     0.04760   0.16668   0.25001   0.00000  Uiso   1.00
C49    C     0.01441   0.19333   0.28266   0.00000  Uiso   1.00
H50    H     0.02493   0.21461   0.30873   0.00000  Uiso   1.00
C51    C     0.29993   0.19338   0.28286   0.00000  Uiso   1.00
N52    N     0.28573   0.16665   0.25001   0.00000  Uiso   1.00
Cl53   Cl    0.26081   0.04552   0.17091   0.00000  Uiso   1.00
N54    N     0.06651   0.11046   0.18349   0.00000  Uiso   1.00
O55    O     0.08516   0.11793   0.13179   0.00000  Uiso   1.00
O56    O     0.06631   0.07228   0.20051   0.00000  Uiso   1.00
Cl57   Cl    0.25957   0.22876   0.32625   0.00000  Uiso   1.00
N58    N     0.18946   0.08990   0.37194   0.00000  Uiso   1.00
O59    O     0.22927   0.07395   0.33930   0.00000  Uiso   1.00
O60    O     0.14882   0.07434   0.37204   0.00000  Uiso   1.00
O61    O     0.46179   0.22775   0.25000   0.00000  Uiso   1.00
O62    O     0.53823   0.22774   0.25000   0.00000  Uiso   1.00
C63    C     0.50001   0.24658   0.25013   0.00000  Uiso   1.00
O64    O     0.44280   0.16666   0.32681   0.00000  Uiso   1.00
O65    O     0.51924   0.16665   0.32681   0.00000  Uiso   1.00
C66    C     0.47327   0.16479   0.35209   0.00000  Uiso   1.00
Zn67   Zn    0.44896   0.16667   0.25000   0.00000  Uiso   1.00
Zn68   Zn    0.55104   0.16666   0.25000   0.00000  Uiso   1.00
O69    O     0.46177   0.10559   0.24999   0.00000  Uiso   1.00
O70    O     0.53821   0.10558   0.25000   0.00000  Uiso   1.00
O71    O     0.48076   0.16668   0.17319   0.00000  Uiso   1.00
O72    O     0.55720   0.16667   0.17319   0.00000  Uiso   1.00
C73    C     0.50058   0.08673   0.24791   0.00000  Uiso   1.00
C74    C     0.52672   0.16693   0.14787   0.00000  Uiso   1.00
C75    C     0.59150   0.12550   0.00915   0.00000  Uiso   1.00
H76    H     0.61000   0.13105   0.08107   0.00000  Uiso   1.00
H77    H     0.58914   0.09174   0.41831   0.00000  Uiso   1.00
H78    H     0.62304   0.10702   0.48827   0.00000  Uiso   1.00
C79    C     0.54324   0.16242   0.08936   0.00000  Uiso   1.00
C80    C     0.41163   0.18097   0.44009   0.00000  Uiso   1.00
C81    C     0.39965   0.18859   0.49517   0.00000  Uiso   1.00
C82    C     0.43282   0.18034   0.02062   0.00000  Uiso   1.00
C83    C     0.47758   0.16135   0.49179   0.00000  Uiso   1.00
C84    C     0.48540   0.14649   0.43878   0.00000  Uiso   1.00
C85    C     0.51447   0.15609   0.01398   0.00000  Uiso   1.00
C86    C     0.55580   0.13214   0.48603   0.00000  Uiso   1.00
C87    C     0.55946   0.11275   0.43730   0.00000  Uiso   1.00
C88    C     0.52353   0.11786   0.41468   0.00000  Uiso   1.00
C89    C     0.51123   0.17373   0.06368   0.00000  Uiso   1.00
C90    C     0.58469   0.13981   0.06144   0.00000  Uiso   1.00
C91    C     0.45545   0.16185   0.41116   0.00000  Uiso   1.00
H92    H     0.48223   0.19435   0.08524   0.00000  Uiso   1.00
H93    H     0.38761   0.19168   0.41970   0.00000  Uiso   1.00
H94    H     0.42189   0.18834   0.06303   0.00000  Uiso   1.00
H95    H     0.36567   0.20312   0.01758   0.00000  Uiso   1.00
C96    C     0.54203   0.31118   0.21758   0.00000  Uiso   1.00
H97    H     0.57366   0.29382   0.19389   0.00000  Uiso   1.00
C98    C     0.54242   0.02078   0.21529   0.00000  Uiso   1.00
C99    C     0.50091   0.04250   0.24622   0.00000  Uiso   1.00
C100   C     0.45902   0.02162   0.27696   0.00000  Uiso   1.00
H101   H     0.42702   0.03847   0.30073   0.00000  Uiso   1.00
C102   C     0.45867   0.31211   0.27817   0.00000  Uiso   1.00
H103   H     0.42640   0.29577   0.30241   0.00000  Uiso   1.00
C104   C     0.50035   0.29064   0.24903   0.00000  Uiso   1.00
C105   C     0.65234   0.14013   0.21721   0.00000  Uiso   1.00
H106   H     0.64199   0.11906   0.19088   0.00000  Uiso   1.00
C107   C     0.36679   0.13976   0.21735   0.00000  Uiso   1.00
N108   N     0.38093   0.16668   0.25001   0.00000  Uiso   1.00
C109   C     0.34774   0.19333   0.28266   0.00000  Uiso   1.00
H110   H     0.35826   0.21461   0.30873   0.00000  Uiso   1.00
C111   C     0.63326   0.19338   0.28286   0.00000  Uiso   1.00
N112   N     0.61906   0.16665   0.25001   0.00000  Uiso   1.00
Cl113  Cl    0.59414   0.04552   0.17091   0.00000  Uiso   1.00
N114   N     0.39985   0.11046   0.18349   0.00000  Uiso   1.00
O115   O     0.41849   0.11793   0.13179   0.00000  Uiso   1.00
O116   O     0.39964   0.07228   0.20051   0.00000  Uiso   1.00
Cl117  Cl    0.59290   0.22876   0.32625   0.00000  Uiso   1.00
N118   N     0.52280   0.08990   0.37194   0.00000  Uiso   1.00
O119   O     0.56260   0.07395   0.33930   0.00000  Uiso   1.00
O120   O     0.48216   0.07434   0.37204   0.00000  Uiso   1.00
O121   O     0.79512   0.22775   0.25000   0.00000  Uiso   1.00
O122   O     0.87157   0.22774   0.25000   0.00000  Uiso   1.00
C123   C     0.83334   0.24658   0.25013   0.00000  Uiso   1.00
O124   O     0.77613   0.16666   0.32681   0.00000  Uiso   1.00
O125   O     0.85258   0.16665   0.32681   0.00000  Uiso   1.00
C126   C     0.80661   0.16479   0.35209   0.00000  Uiso   1.00
Zn127  Zn    0.78229   0.16667   0.25000   0.00000  Uiso   1.00
Zn128  Zn    0.88438   0.16666   0.25000   0.00000  Uiso   1.00
O129   O     0.79510   0.10559   0.24999   0.00000  Uiso   1.00
O130   O     0.87154   0.10558   0.25000   0.00000  Uiso   1.00
O131   O     0.81409   0.16668   0.17319   0.00000  Uiso   1.00
O132   O     0.89053   0.16667   0.17319   0.00000  Uiso   1.00
C133   C     0.83391   0.08673   0.24791   0.00000  Uiso   1.00
C134   C     0.86005   0.16693   0.14787   0.00000  Uiso   1.00
C135   C     0.92483   0.12550   0.00915   0.00000  Uiso   1.00
H136   H     0.94334   0.13105   0.08107   0.00000  Uiso   1.00
H137   H     0.92247   0.09174   0.41831   0.00000  Uiso   1.00
H138   H     0.95637   0.10702   0.48827   0.00000  Uiso   1.00
C139   C     0.87657   0.16242   0.08936   0.00000  Uiso   1.00
C140   C     0.74497   0.18097   0.44009   0.00000  Uiso   1.00
C141   C     0.73298   0.18859   0.49517   0.00000  Uiso   1.00
C142   C     0.76615   0.18034   0.02062   0.00000  Uiso   1.00
C143   C     0.81092   0.16135   0.49179   0.00000  Uiso   1.00
C144   C     0.81873   0.14649   0.43878   0.00000  Uiso   1.00
C145   C     0.84781   0.15609   0.01398   0.00000  Uiso   1.00
C146   C     0.88913   0.13214   0.48603   0.00000  Uiso   1.00
C147   C     0.89279   0.11275   0.43730   0.00000  Uiso   1.00
C148   C     0.85687   0.11786   0.41468   0.00000  Uiso   1.00
C149   C     0.84456   0.17373   0.06368   0.00000  Uiso   1.00
C150   C     0.91802   0.13981   0.06144   0.00000  Uiso   1.00
C151   C     0.78879   0.16185   0.41116   0.00000  Uiso   1.00
H152   H     0.81557   0.19435   0.08524   0.00000  Uiso   1.00
H153   H     0.72094   0.19168   0.41970   0.00000  Uiso   1.00
H154   H     0.75522   0.18834   0.06303   0.00000  Uiso   1.00
H155   H     0.69900   0.20312   0.01758   0.00000  Uiso   1.00
C156   C     0.87537   0.31118   0.21758   0.00000  Uiso   1.00
H157   H     0.90699   0.29382   0.19389   0.00000  Uiso   1.00
C158   C     0.87575   0.02078   0.21529   0.00000  Uiso   1.00
C159   C     0.83424   0.04250   0.24622   0.00000  Uiso   1.00
C160   C     0.79236   0.02162   0.27696   0.00000  Uiso   1.00
H161   H     0.76036   0.03847   0.30073   0.00000  Uiso   1.00
C162   C     0.79200   0.31211   0.27817   0.00000  Uiso   1.00
H163   H     0.75973   0.29577   0.30241   0.00000  Uiso   1.00
C164   C     0.83368   0.29064   0.24903   0.00000  Uiso   1.00
C165   C     0.98567   0.14013   0.21721   0.00000  Uiso   1.00
H166   H     0.97533   0.11906   0.19088   0.00000  Uiso   1.00
C167   C     0.70012   0.13976   0.21735   0.00000  Uiso   1.00
N168   N     0.71426   0.16668   0.25001   0.00000  Uiso   1.00
C169   C     0.68108   0.19333   0.28266   0.00000  Uiso   1.00
H170   H     0.69160   0.21461   0.30873   0.00000  Uiso   1.00
C171   C     0.96659   0.19338   0.28286   0.00000  Uiso   1.00
N172   N     0.95239   0.16665   0.25001   0.00000  Uiso   1.00
Cl173  Cl    0.92748   0.04552   0.17091   0.00000  Uiso   1.00
N174   N     0.73318   0.11046   0.18349   0.00000  Uiso   1.00
O175   O     0.75183   0.11793   0.13179   0.00000  Uiso   1.00
O176   O     0.73298   0.07228   0.20051   0.00000  Uiso   1.00
Cl177  Cl    0.92624   0.22876   0.32625   0.00000  Uiso   1.00
N178   N     0.85613   0.08990   0.37194   0.00000  Uiso   1.00
O179   O     0.89593   0.07395   0.33930   0.00000  Uiso   1.00
O180   O     0.81549   0.07434   0.37204   0.00000  Uiso   1.00
O181   O     0.12846   0.56108   0.25000   0.00000  Uiso   1.00
O182   O     0.20490   0.56107   0.25000   0.00000  Uiso   1.00
C183   C     0.16668   0.57992   0.25013   0.00000  Uiso   1.00
O184   O     0.10947   0.50000   0.32681   0.00000  Uiso   1.00
O185   O     0.18591   0.49999   0.32681   0.00000  Uiso   1.00
C186   C     0.13994   0.49812   0.35209   0.00000  Uiso   1.00
Zn187  Zn    0.11562   0.50001   0.25000   0.00000  Uiso   1.00
Zn188  Zn    0.21771   0.49999   0.25000   0.00000  Uiso   1.00
O189   O     0.12843   0.43893   0.24999   0.00000  Uiso   1.00
O190   O     0.20488   0.43892   0.25000   0.00000  Uiso   1.00
O191   O     0.14742   0.50001   0.17319   0.00000  Uiso   1.00
O192   O     0.22387   0.50000   0.17319   0.00000  Uiso   1.00
C193   C     0.16724   0.42006   0.24791   0.00000  Uiso   1.00
C194   C     0.19338   0.50026   0.14787   0.00000  Uiso   1.00
C195   C     0.25816   0.45884   0.00915   0.00000  Uiso   1.00
H196   H     0.27667   0.46439   0.08107   0.00000  Uiso   1.00
H197   H     0.25580   0.42507   0.41831   0.00000  Uiso   1.00
H198   H     0.28971   0.44035   0.48827   0.00000  Uiso   1.00
C199   C     0.20991   0.49575   0.08936   0.00000  Uiso   1.00
C200   C     0.07830   0.51430   0.44009   0.00000  Uiso   1.00
C201   C     0.06632   0.52192   0.49517   0.00000  Uiso   1.00
C202   C     0.09948   0.51367   0.02062   0.00000  Uiso   1.00
C203   C     0.14425   0.49468   0.49179   0.00000  Uiso   1.00
C204   C     0.15206   0.47982   0.43878   0.00000  Uiso   1.00
C205   C     0.18114   0.48943   0.01398   0.00000  Uiso   1.00
C206   C     0.22247   0.46548   0.48603   0.00000  Uiso   1.00
C207   C     0.22613   0.44608   0.43730   0.00000  Uiso   1.00
C208   C     0.19020   0.45119   0.41468   0.00000  Uiso   1.00
C209   C     0.17789   0.50706   0.06368   0.00000  Uiso   1.00
C210   C     0.25135   0.47315   0.06144   0.00000  Uiso   1.00
C211   C     0.12212   0.49518   0.41116   0.00000  Uiso   1.00
H212   H     0.14890   0.52768   0.08524   0.00000  Uiso   1.00
H213   H     0.05427   0.52501   0.41970   0.00000  Uiso   1.00
H214   H     0.08856   0.52168   0.06303   0.00000  Uiso   1.00
H215   H     0.03233   0.53645   0.01758   0.00000  Uiso   1.00
C216   C     0.20870   0.64452   0.21758   0.00000  Uiso   1.00
H217   H     0.24032   0.62715   0.19389   0.00000  Uiso   1.00
C218   C     0.20908   0.35411   0.21529   0.00000  Uiso   1.00
C219   C     0.16757   0.37583   0.24622   0.00000  Uiso   1.00
C220   C     0.12569   0.35495   0.27696   0.00000  Uiso   1.00
H221   H     0.09369   0.37180   0.30073   0.00000  Uiso   1.00
C222   C     0.12533   0.64544   0.27817   0.00000  Uiso   1.00
H223   H     0.09306   0.62910   0.30241   0.00000  Uiso   1.00
C224   C     0.16702   0.62398   0.24903   0.00000  Uiso   1.00
C225   C     0.31901   0.47346   0.21721   0.00000  Uiso   1.00
H226   H     0.30866   0.45240   0.19088   0.00000  Uiso   1.00
C227   C     0.03345   0.47309   0.21735   0.00000  Uiso   1.00
N228   N     0.04760   0.50001   0.25001   0.00000  Uiso   1.00
C229   C     0.01441   0.52667   0.28266   0.00000  Uiso   1.00
H230   H     0.02493   0.54795   0.30873   0.00000  Uiso   1.00
C231   C     0.29993   0.52671   0.28286   0.00000  Uiso   1.00
N232   N     0.28573   0.49998   0.25001   0.00000  Uiso   1.00
Cl233  Cl    0.26081   0.37886   0.17091   0.00000  Uiso   1.00
N234   N     0.06651   0.44379   0.18349   0.00000  Uiso   1.00
O235   O     0.08516   0.45126   0.13179   0.00000  Uiso   1.00
O236   O     0.06631   0.40561   0.20051   0.00000  Uiso   1.00
Cl237  Cl    0.25957   0.56210   0.32625   0.00000  Uiso   1.00
N238   N     0.18946   0.42323   0.37194   0.00000  Uiso   1.00
O239   O     0.22927   0.40728   0.33930   0.00000  Uiso   1.00
O240   O     0.14882   0.40767   0.37204   0.00000  Uiso   1.00
O241   O     0.46179   0.56108   0.25000   0.00000  Uiso   1.00
O242   O     0.53823   0.56107   0.25000   0.00000  Uiso   1.00
C243   C     0.50001   0.57992   0.25013   0.00000  Uiso   1.00
O244   O     0.44280   0.50000   0.32681   0.00000  Uiso   1.00
O245   O     0.51924   0.49999   0.32681   0.00000  Uiso   1.00
C246   C     0.47327   0.49812   0.35209   0.00000  Uiso   1.00
Zn247  Zn    0.44896   0.50001   0.25000   0.00000  Uiso   1.00
Zn248  Zn    0.55104   0.49999   0.25000   0.00000  Uiso   1.00
O249   O     0.46177   0.43893   0.24999   0.00000  Uiso   1.00
O250   O     0.53821   0.43892   0.25000   0.00000  Uiso   1.00
O251   O     0.48076   0.50001   0.17319   0.00000  Uiso   1.00
O252   O     0.55720   0.50000   0.17319   0.00000  Uiso   1.00
C253   C     0.50058   0.42006   0.24791   0.00000  Uiso   1.00
C254   C     0.52672   0.50026   0.14787   0.00000  Uiso   1.00
C255   C     0.59150   0.45884   0.00915   0.00000  Uiso   1.00
H256   H     0.61000   0.46439   0.08107   0.00000  Uiso   1.00
H257   H     0.58914   0.42507   0.41831   0.00000  Uiso   1.00
H258   H     0.62304   0.44035   0.48827   0.00000  Uiso   1.00
C259   C     0.54324   0.49575   0.08936   0.00000  Uiso   1.00
C260   C     0.41163   0.51430   0.44009   0.00000  Uiso   1.00
C261   C     0.39965   0.52192   0.49517   0.00000  Uiso   1.00
C262   C     0.43282   0.51367   0.02062   0.00000  Uiso   1.00
C263   C     0.47758   0.49468   0.49179   0.00000  Uiso   1.00
C264   C     0.48540   0.47982   0.43878   0.00000  Uiso   1.00
C265   C     0.51447   0.48943   0.01398   0.00000  Uiso   1.00
C266   C     0.55580   0.46548   0.48603   0.00000  Uiso   1.00
C267   C     0.55946   0.44608   0.43730   0.00000  Uiso   1.00
C268   C     0.52353   0.45119   0.41468   0.00000  Uiso   1.00
C269   C     0.51123   0.50706   0.06368   0.00000  Uiso   1.00
C270   C     0.58469   0.47315   0.06144   0.00000  Uiso   1.00
C271   C     0.45545   0.49518   0.41116   0.00000  Uiso   1.00
H272   H     0.48223   0.52768   0.08524   0.00000  Uiso   1.00
H273   H     0.38761   0.52501   0.41970   0.00000  Uiso   1.00
H274   H     0.42189   0.52168   0.06303   0.00000  Uiso   1.00
H275   H     0.36567   0.53645   0.01758   0.00000  Uiso   1.00
C276   C     0.54203   0.64452   0.21758   0.00000  Uiso   1.00
H277   H     0.57366   0.62715   0.19389   0.00000  Uiso   1.00
C278   C     0.54242   0.35411   0.21529   0.00000  Uiso   1.00
C279   C     0.50091   0.37583   0.24622   0.00000  Uiso   1.00
C280   C     0.45902   0.35495   0.27696   0.00000  Uiso   1.00
H281   H     0.42702   0.37180   0.30073   0.00000  Uiso   1.00
C282   C     0.45867   0.64544   0.27817   0.00000  Uiso   1.00
H283   H     0.42640   0.62910   0.30241   0.00000  Uiso   1.00
C284   C     0.50035   0.62398   0.24903   0.00000  Uiso   1.00
C285   C     0.65234   0.47346   0.21721   0.00000  Uiso   1.00
H286   H     0.64199   0.45240   0.19088   0.00000  Uiso   1.00
C287   C     0.36679   0.47309   0.21735   0.00000  Uiso   1.00
N288   N     0.38093   0.50001   0.25001   0.00000  Uiso   1.00
C289   C     0.34774   0.52667   0.28266   0.00000  Uiso   1.00
H290   H     0.35826   0.54795   0.30873   0.00000  Uiso   1.00
C291   C     0.63326   0.52671   0.28286   0.00000  Uiso   1.00
N292   N     0.61906   0.49998   0.25001   0.00000  Uiso   1.00
Cl293  Cl    0.59414   0.37886   0.17091   0.00000  Uiso   1.00
N294   N     0.39985   0.44379   0.18349   0.00000  Uiso   1.00
O295   O     0.41849   0.45126   0.13179   0.00000  Uiso   1.00
O296   O     0.39964   0.40561   0.20051   0.00000  Uiso   1.00
Cl297  Cl    0.59290   0.56210   0.32625   0.00000  Uiso   1.00
N298   N     0.52280   0.42323   0.37194   0.00000  Uiso   1.00
O299   O     0.56260   0.40728   0.33930   0.00000  Uiso   1.00
O300   O     0.48216   0.40767   0.37204   0.00000  Uiso   1.00
O301   O     0.79512   0.56108   0.25000   0.00000  Uiso   1.00
O302   O     0.87157   0.56107   0.25000   0.00000  Uiso   1.00
C303   C     0.83334   0.57992   0.25013   0.00000  Uiso   1.00
O304   O     0.77613   0.50000   0.32681   0.00000  Uiso   1.00
O305   O     0.85258   0.49999   0.32681   0.00000  Uiso   1.00
C306   C     0.80661   0.49812   0.35209   0.00000  Uiso   1.00
Zn307  Zn    0.78229   0.50001   0.25000   0.00000  Uiso   1.00
Zn308  Zn    0.88438   0.49999   0.25000   0.00000  Uiso   1.00
O309   O     0.79510   0.43893   0.24999   0.00000  Uiso   1.00
O310   O     0.87154   0.43892   0.25000   0.00000  Uiso   1.00
O311   O     0.81409   0.50001   0.17319   0.00000  Uiso   1.00
O312   O     0.89053   0.50000   0.17319   0.00000  Uiso   1.00
C313   C     0.83391   0.42006   0.24791   0.00000  Uiso   1.00
C314   C     0.86005   0.50026   0.14787   0.00000  Uiso   1.00
C315   C     0.92483   0.45884   0.00915   0.00000  Uiso   1.00
H316   H     0.94334   0.46439   0.08107   0.00000  Uiso   1.00
H317   H     0.92247   0.42507   0.41831   0.00000  Uiso   1.00
H318   H     0.95637   0.44035   0.48827   0.00000  Uiso   1.00
C319   C     0.87657   0.49575   0.08936   0.00000  Uiso   1.00
C320   C     0.74497   0.51430   0.44009   0.00000  Uiso   1.00
C321   C     0.73298   0.52192   0.49517   0.00000  Uiso   1.00
C322   C     0.76615   0.51367   0.02062   0.00000  Uiso   1.00
C323   C     0.81092   0.49468   0.49179   0.00000  Uiso   1.00
C324   C     0.81873   0.47982   0.43878   0.00000  Uiso   1.00
C325   C     0.84781   0.48943   0.01398   0.00000  Uiso   1.00
C326   C     0.88913   0.46548   0.48603   0.00000  Uiso   1.00
C327   C     0.89279   0.44608   0.43730   0.00000  Uiso   1.00
C328   C     0.85687   0.45119   0.41468   0.00000  Uiso   1.00
C329   C     0.84456   0.50706   0.06368   0.00000  Uiso   1.00
C330   C     0.91802   0.47315   0.06144   0.00000  Uiso   1.00
C331   C     0.78879   0.49518   0.41116   0.00000  Uiso   1.00
H332   H     0.81557   0.52768   0.08524   0.00000  Uiso   1.00
H333   H     0.72094   0.52501   0.41970   0.00000  Uiso   1.00
H334   H     0.75522   0.52168   0.06303   0.00000  Uiso   1.00
H335   H     0.69900   0.53645   0.01758   0.00000  Uiso   1.00
C336   C     0.87537   0.64452   0.21758   0.00000  Uiso   1.00
H337   H     0.90699   0.62715   0.19389   0.00000  Uiso   1.00
C338   C     0.87575   0.35411   0.21529   0.00000  Uiso   1.00
C339   C     0.83424   0.37583   0.24622   0.00000  Uiso   1.00
C340   C     0.79236   0.35495   0.27696   0.00000  Uiso   1.00
H341   H     0.76036   0.37180   0.30073   0.00000  Uiso   1.00
C342   C     0.79200   0.64544   0.27817   0.00000  Uiso   1.00
H343   H     0.75973   0.62910   0.30241   0.00000  Uiso   1.00
C344   C     0.83368   0.62398   0.24903   0.00000  Uiso   1.00
C345   C     0.98567   0.47346   0.21721   0.00000  Uiso   1.00
H346   H     0.97533   0.45240   0.19088   0.00000  Uiso   1.00
C347   C     0.70012   0.47309   0.21735   0.00000  Uiso   1.00
N348   N     0.71426   0.50001   0.25001   0.00000  Uiso   1.00
C349   C     0.68108   0.52667   0.28266   0.00000  Uiso   1.00
H350   H     0.69160   0.54795   0.30873   0.00000  Uiso   1.00
C351   C     0.96659   0.52671   0.28286   0.00000  Uiso   1.00
N352   N     0.95239   0.49998   0.25001   0.00000  Uiso   1.00
Cl353  Cl    0.92748   0.37886   0.17091   0.00000  Uiso   1.00
N354   N     0.73318   0.44379   0.18349   0.00000  Uiso   1.00
O355   O     0.75183   0.45126   0.13179   0.00000  Uiso   1.00
O356   O     0.73298   0.40561   0.20051   0.00000  Uiso   1.00
Cl357  Cl    0.92624   0.56210   0.32625   0.00000  Uiso   1.00
N358   N     0.85613   0.42323   0.37194   0.00000  Uiso   1.00
O359   O     0.89593   0.40728   0.33930   0.00000  Uiso   1.00
O360   O     0.81549   0.40767   0.37204   0.00000  Uiso   1.00
O361   O     0.12846   0.89442   0.25000   0.00000  Uiso   1.00
O362   O     0.20490   0.89441   0.25000   0.00000  Uiso   1.00
C363   C     0.16668   0.91325   0.25013   0.00000  Uiso   1.00
O364   O     0.10947   0.83333   0.32681   0.00000  Uiso   1.00
O365   O     0.18591   0.83332   0.32681   0.00000  Uiso   1.00
C366   C     0.13994   0.83145   0.35209   0.00000  Uiso   1.00
Zn367  Zn    0.11562   0.83334   0.25000   0.00000  Uiso   1.00
Zn368  Zn    0.21771   0.83333   0.25000   0.00000  Uiso   1.00
O369   O     0.12843   0.77226   0.24999   0.00000  Uiso   1.00
O370   O     0.20488   0.77225   0.25000   0.00000  Uiso   1.00
O371   O     0.14742   0.83335   0.17319   0.00000  Uiso   1.00
O372   O     0.22387   0.83334   0.17319   0.00000  Uiso   1.00
C373   C     0.16724   0.75340   0.24791   0.00000  Uiso   1.00
C374   C     0.19338   0.83360   0.14787   0.00000  Uiso   1.00
C375   C     0.25816   0.79217   0.00915   0.00000  Uiso   1.00
H376   H     0.27667   0.79772   0.08107   0.00000  Uiso   1.00
H377   H     0.25580   0.75840   0.41831   0.00000  Uiso   1.00
H378   H     0.28971   0.77369   0.48827   0.00000  Uiso   1.00
C379   C     0.20991   0.82909   0.08936   0.00000  Uiso   1.00
C380   C     0.07830   0.84764   0.44009   0.00000  Uiso   1.00
C381   C     0.06632   0.85525   0.49517   0.00000  Uiso   1.00
C382   C     0.09948   0.84700   0.02062   0.00000  Uiso   1.00
C383   C     0.14425   0.82802   0.49179   0.00000  Uiso   1.00
C384   C     0.15206   0.81315   0.43878   0.00000  Uiso   1.00
C385   C     0.18114   0.82276   0.01398   0.00000  Uiso   1.00
C386   C     0.22247   0.79881   0.48603   0.00000  Uiso   1.00
C387   C     0.22613   0.77941   0.43730   0.00000  Uiso   1.00
C388   C     0.19020   0.78452   0.41468   0.00000  Uiso   1.00
C389   C     0.17789   0.84039   0.06368   0.00000  Uiso   1.00
C390   C     0.25135   0.80648   0.06144   0.00000  Uiso   1.00
C391   C     0.12212   0.82851   0.41116   0.00000  Uiso   1.00
H392   H     0.14890   0.86102   0.08524   0.00000  Uiso   1.00
H393   H     0.05427   0.85835   0.41970   0.00000  Uiso   1.00
H394   H     0.08856   0.85501   0.06303   0.00000  Uiso   1.00
H395   H     0.03233   0.86978   0.01758   0.00000  Uiso   1.00
C396   C     0.20870   0.97785   0.21758   0.00000  Uiso   1.00
H397   H     0.24032   0.96048   0.19389   0.00000  Uiso   1.00
C398   C     0.20908   0.68745   0.21529   0.00000  Uiso   1.00
C399   C     0.16757   0.70916   0.24622   0.00000  Uiso   1.00
C400   C     0.12569   0.68829   0.27696   0.00000  Uiso   1.00
H401   H     0.09369   0.70513   0.30073   0.00000  Uiso   1.00
C402   C     0.12533   0.97877   0.27817   0.00000  Uiso   1.00
H403   H     0.09306   0.96243   0.30241   0.00000  Uiso   1.00
C404   C     0.16702   0.95731   0.24903   0.00000  Uiso   1.00
C405   C     0.31901   0.80679   0.21721   0.00000  Uiso   1.00
H406   H     0.30866   0.78573   0.19088   0.00000  Uiso   1.00
C407   C     0.03345   0.80643   0.21735   0.00000  Uiso   1.00
N408   N     0.04760   0.83334   0.25001   0.00000  Uiso   1.00
C409   C     0.01441   0.86000   0.28266   0.00000  Uiso   1.00
H410   H     0.02493   0.88128   0.30873   0.00000  Uiso   1.00
C411   C     0.29993   0.86004   0.28286   0.00000  Uiso   1.00
N412   N     0.28573   0.83331   0.25001   0.00000  Uiso   1.00
Cl413  Cl    0.26081   0.71219   0.17091   0.00000  Uiso   1.00
N414   N     0.06651   0.77713   0.18349   0.00000  Uiso   1.00
O415   O     0.08516   0.78460   0.13179   0.00000  Uiso   1.00
O416   O     0.06631   0.73894   0.20051   0.00000  Uiso   1.00
Cl417  Cl    0.25957   0.89543   0.32625   0.00000  Uiso   1.00
N418   N     0.18946   0.75657   0.37194   0.00000  Uiso   1.00
O419   O     0.22927   0.74061   0.33930   0.00000  Uiso   1.00
O420   O     0.14882   0.74101   0.37204   0.00000  Uiso   1.00
O421   O     0.46179   0.89442   0.25000   0.00000  Uiso   1.00
O422   O     0.53823   0.89441   0.25000   0.00000  Uiso   1.00
C423   C     0.50001   0.91325   0.25013   0.00000  Uiso   1.00
O424   O     0.44280   0.83333   0.32681   0.00000  Uiso   1.00
O425   O     0.51924   0.83332   0.32681   0.00000  Uiso   1.00
C426   C     0.47327   0.83145   0.35209   0.00000  Uiso   1.00
Zn427  Zn    0.44896   0.83334   0.25000   0.00000  Uiso   1.00
Zn428  Zn    0.55104   0.83333   0.25000   0.00000  Uiso   1.00
O429   O     0.46177   0.77226   0.24999   0.00000  Uiso   1.00
O430   O     0.53821   0.77225   0.25000   0.00000  Uiso   1.00
O431   O     0.48076   0.83335   0.17319   0.00000  Uiso   1.00
O432   O     0.55720   0.83334   0.17319   0.00000  Uiso   1.00
C433   C     0.50058   0.75340   0.24791   0.00000  Uiso   1.00
C434   C     0.52672   0.83360   0.14787   0.00000  Uiso   1.00
C435   C     0.59150   0.79217   0.00915   0.00000  Uiso   1.00
H436   H     0.61000   0.79772   0.08107   0.00000  Uiso   1.00
H437   H     0.58914   0.75840   0.41831   0.00000  Uiso   1.00
H438   H     0.62304   0.77369   0.48827   0.00000  Uiso   1.00
C439   C     0.54324   0.82909   0.08936   0.00000  Uiso   1.00
C440   C     0.41163   0.84764   0.44009   0.00000  Uiso   1.00
C441   C     0.39965   0.85525   0.49517   0.00000  Uiso   1.00
C442   C     0.43282   0.84700   0.02062   0.00000  Uiso   1.00
C443   C     0.47758   0.82802   0.49179   0.00000  Uiso   1.00
C444   C     0.48540   0.81315   0.43878   0.00000  Uiso   1.00
C445   C     0.51447   0.82276   0.01398   0.00000  Uiso   1.00
C446   C     0.55580   0.79881   0.48603   0.00000  Uiso   1.00
C447   C     0.55946   0.77941   0.43730   0.00000  Uiso   1.00
C448   C     0.52353   0.78452   0.41468   0.00000  Uiso   1.00
C449   C     0.51123   0.84039   0.06368   0.00000  Uiso   1.00
C450   C     0.58469   0.80648   0.06144   0.00000  Uiso   1.00
C451   C     0.45545   0.82851   0.41116   0.00000  Uiso   1.00
H452   H     0.48223   0.86102   0.08524   0.00000  Uiso   1.00
H453   H     0.38761   0.85835   0.41970   0.00000  Uiso   1.00
H454   H     0.42189   0.85501   0.06303   0.00000  Uiso   1.00
H455   H     0.36567   0.86978   0.01758   0.00000  Uiso   1.00
C456   C     0.54203   0.97785   0.21758   0.00000  Uiso   1.00
H457   H     0.57366   0.96048   0.19389   0.00000  Uiso   1.00
C458   C     0.54242   0.68745   0.21529   0.00000  Uiso   1.00
C459   C     0.50091   0.70916   0.24622   0.00000  Uiso   1.00
C460   C     0.45902   0.68829   0.27696   0.00000  Uiso   1.00
H461   H     0.42702   0.70513   0.30073   0.00000  Uiso   1.00
C462   C     0.45867   0.97877   0.27817   0.00000  Uiso   1.00
H463   H     0.42640   0.96243   0.30241   0.00000  Uiso   1.00
C464   C     0.50035   0.95731   0.24903   0.00000  Uiso   1.00
C465   C     0.65234   0.80679   0.21721   0.00000  Uiso   1.00
H466   H     0.64199   0.78573   0.19088   0.00000  Uiso   1.00
C467   C     0.36679   0.80643   0.21735   0.00000  Uiso   1.00
N468   N     0.38093   0.83334   0.25001   0.00000  Uiso   1.00
C469   C     0.34774   0.86000   0.28266   0.00000  Uiso   1.00
H470   H     0.35826   0.88128   0.30873   0.00000  Uiso   1.00
C471   C     0.63326   0.86004   0.28286   0.00000  Uiso   1.00
N472   N     0.61906   0.83331   0.25001   0.00000  Uiso   1.00
Cl473  Cl    0.59414   0.71219   0.17091   0.00000  Uiso   1.00
N474   N     0.39985   0.77713   0.18349   0.00000  Uiso   1.00
O475   O     0.41849   0.78460   0.13179   0.00000  Uiso   1.00
O476   O     0.39964   0.73894   0.20051   0.00000  Uiso   1.00
Cl477  Cl    0.59290   0.89543   0.32625   0.00000  Uiso   1.00
N478   N     0.52280   0.75657   0.37194   0.00000  Uiso   1.00
O479   O     0.56260   0.74061   0.33930   0.00000  Uiso   1.00
O480   O     0.48216   0.74101   0.37204   0.00000  Uiso   1.00
O481   O     0.79512   0.89442   0.25000   0.00000  Uiso   1.00
O482   O     0.87157   0.89441   0.25000   0.00000  Uiso   1.00
C483   C     0.83334   0.91325   0.25013   0.00000  Uiso   1.00
O484   O     0.77613   0.83333   0.32681   0.00000  Uiso   1.00
O485   O     0.85258   0.83332   0.32681   0.00000  Uiso   1.00
C486   C     0.80661   0.83145   0.35209   0.00000  Uiso   1.00
Zn487  Zn    0.78229   0.83334   0.25000   0.00000  Uiso   1.00
Zn488  Zn    0.88438   0.83333   0.25000   0.00000  Uiso   1.00
O489   O     0.79510   0.77226   0.24999   0.00000  Uiso   1.00
O490   O     0.87154   0.77225   0.25000   0.00000  Uiso   1.00
O491   O     0.81409   0.83335   0.17319   0.00000  Uiso   1.00
O492   O     0.89053   0.83334   0.17319   0.00000  Uiso   1.00
C493   C     0.83391   0.75340   0.24791   0.00000  Uiso   1.00
C494   C     0.86005   0.83360   0.14787   0.00000  Uiso   1.00
C495   C     0.92483   0.79217   0.00915   0.00000  Uiso   1.00
H496   H     0.94334   0.79772   0.08107   0.00000  Uiso   1.00
H497   H     0.92247   0.75840   0.41831   0.00000  Uiso   1.00
H498   H     0.95637   0.77369   0.48827   0.00000  Uiso   1.00
C499   C     0.87657   0.82909   0.08936   0.00000  Uiso   1.00
C500   C     0.74497   0.84764   0.44009   0.00000  Uiso   1.00
C501   C     0.73298   0.85525   0.49517   0.00000  Uiso   1.00
C502   C     0.76615   0.84700   0.02062   0.00000  Uiso   1.00
C503   C     0.81092   0.82802   0.49179   0.00000  Uiso   1.00
C504   C     0.81873   0.81315   0.43878   0.00000  Uiso   1.00
C505   C     0.84781   0.82276   0.01398   0.00000  Uiso   1.00
C506   C     0.88913   0.79881   0.48603   0.00000  Uiso   1.00
C507   C     0.89279   0.77941   0.43730   0.00000  Uiso   1.00
C508   C     0.85687   0.78452   0.41468   0.00000  Uiso   1.00
C509   C     0.84456   0.84039   0.06368   0.00000  Uiso   1.00
C510   C     0.91802   0.80648   0.06144   0.00000  Uiso   1.00
C511   C     0.78879   0.82851   0.41116   0.00000  Uiso   1.00
H512   H     0.81557   0.86102   0.08524   0.00000  Uiso   1.00
H513   H     0.72094   0.85835   0.41970   0.00000  Uiso   1.00
H514   H     0.75522   0.85501   0.06303   0.00000  Uiso   1.00
H515   H     0.69900   0.86978   0.01758   0.00000  Uiso   1.00
C516   C     0.87537   0.97785   0.21758   0.00000  Uiso   1.00
H517   H     0.90699   0.96048   0.19389   0.00000  Uiso   1.00
C518   C     0.87575   0.68745   0.21529   0.00000  Uiso   1.00
C519   C     0.83424   0.70916   0.24622   0.00000  Uiso   1.00
C520   C     0.79236   0.68829   0.27696   0.00000  Uiso   1.00
H521   H     0.76036   0.70513   0.30073   0.00000  Uiso   1.00
C522   C     0.79200   0.97877   0.27817   0.00000  Uiso   1.00
H523   H     0.75973   0.96243   0.30241   0.00000  Uiso   1.00
C524   C     0.83368   0.95731   0.24903   0.00000  Uiso   1.00
C525   C     0.98567   0.80679   0.21721   0.00000  Uiso   1.00
H526   H     0.97533   0.78573   0.19088   0.00000  Uiso   1.00
C527   C     0.70012   0.80643   0.21735   0.00000  Uiso   1.00
N528   N     0.71426   0.83334   0.25001   0.00000  Uiso   1.00
C529   C     0.68108   0.86000   0.28266   0.00000  Uiso   1.00
H530   H     0.69160   0.88128   0.30873   0.00000  Uiso   1.00
C531   C     0.96659   0.86004   0.28286   0.00000  Uiso   1.00
N532   N     0.95239   0.83331   0.25001   0.00000  Uiso   1.00
Cl533  Cl    0.92748   0.71219   0.17091   0.00000  Uiso   1.00
N534   N     0.73318   0.77713   0.18349   0.00000  Uiso   1.00
O535   O     0.75183   0.78460   0.13179   0.00000  Uiso   1.00
O536   O     0.73298   0.73894   0.20051   0.00000  Uiso   1.00
Cl537  Cl    0.92624   0.89543   0.32625   0.00000  Uiso   1.00
N538   N     0.85613   0.75657   0.37194   0.00000  Uiso   1.00
O539   O     0.89593   0.74061   0.33930   0.00000  Uiso   1.00
O540   O     0.81549   0.74101   0.37204   0.00000  Uiso   1.00
O541   O     0.12846   0.22775   0.75000   0.00000  Uiso   1.00
O542   O     0.20490   0.22774   0.75000   0.00000  Uiso   1.00
C543   C     0.16668   0.24658   0.75013   0.00000  Uiso   1.00
O544   O     0.10947   0.16666   0.82681   0.00000  Uiso   1.00
O545   O     0.18591   0.16665   0.82681   0.00000  Uiso   1.00
C546   C     0.13994   0.16479   0.85209   0.00000  Uiso   1.00
Zn547  Zn    0.11562   0.16667   0.75000   0.00000  Uiso   1.00
Zn548  Zn    0.21771   0.16666   0.75000   0.00000  Uiso   1.00
O549   O     0.12843   0.10559   0.74999   0.00000  Uiso   1.00
O550   O     0.20488   0.10558   0.75000   0.00000  Uiso   1.00
O551   O     0.14742   0.16668   0.67319   0.00000  Uiso   1.00
O552   O     0.22387   0.16667   0.67319   0.00000  Uiso   1.00
C553   C     0.16724   0.08673   0.74791   0.00000  Uiso   1.00
C554   C     0.19338   0.16693   0.64787   0.00000  Uiso   1.00
C555   C     0.25816   0.12550   0.50915   0.00000  Uiso   1.00
H556   H     0.27667   0.13105   0.58107   0.00000  Uiso   1.00
H557   H     0.25580   0.09174   0.91831   0.00000  Uiso   1.00
H558   H     0.28971   0.10702   0.98827   0.00000  Uiso   1.00
C559   C     0.20991   0.16242   0.58936   0.00000  Uiso   1.00
C560   C     0.07830   0.18097   0.94009   0.00000  Uiso   1.00
C561   C     0.06632   0.18859   0.99517   0.00000  Uiso   1.00
C562   C     0.09948   0.18034   0.52062   0.00000  Uiso   1.00
C563   C     0.14425   0.16135   0.99179   0.00000  Uiso   1.00
C564   C     0.15206   0.14649   0.93878   0.00000  Uiso   1.00
C565   C     0.18114   0.15609   0.51398   0.00000  Uiso   1.00
C566   C     0.22247   0.13214   0.98603   0.00000  Uiso   1.00
C567   C     0.22613   0.11275   0.93730   0.00000  Uiso   1.00
C568   C     0.19020   0.11786   0.91468   0.00000  Uiso   1.00
C569   C     0.17789   0.17373   0.56368   0.00000  Uiso   1.00
C570   C     0.25135   0.13981   0.56144   0.00000  Uiso   1.00
C571   C     0.12212   0.16185   0.91116   0.00000  Uiso   1.00
H572   H     0.14890   0.19435   0.58524   0.00000  Uiso   1.00
H573   H     0.05427   0.19168   0.91970   0.00000  Uiso   1.00
H574   H     0.08856   0.18834   0.56303   0.00000  Uiso   1.00
H575   H     0.03233   0.20312   0.51758   0.00000  Uiso   1.00
C576   C     0.20870   0.31118   0.71758   0.00000  Uiso   1.00
H577   H     0.24032   0.29382   0.69389   0.00000  Uiso   1.00
C578   C     0.20908   0.02078   0.71529   0.00000  Uiso   1.00
C579   C     0.16757   0.04250   0.74622   0.00000  Uiso   1.00
C580   C     0.12569   0.02162   0.77696   0.00000  Uiso   1.00
H581   H     0.09369   0.03847   0.80073   0.00000  Uiso   1.00
C582   C     0.12533   0.31211   0.77817   0.00000  Uiso   1.00
H583   H     0.09306   0.29577   0.80241   0.00000  Uiso   1.00
C584   C     0.16702   0.29064   0.74903   0.00000  Uiso   1.00
C585   C     0.31901   0.14013   0.71721   0.00000  Uiso   1.00
H586   H     0.30866   0.11906   0.69088   0.00000  Uiso   1.00
C587   C     0.03345   0.13976   0.71735   0.00000  Uiso   1.00
N588   N     0.04760   0.16668   0.75001   0.00000  Uiso   1.00
C589   C     0.01441   0.19333   0.78266   0.00000  Uiso   1.00
H590   H     0.02493   0.21461   0.80873   0.00000  Uiso   1.00
C591   C     0.29993   0.19338   0.78286   0.00000  Uiso   1.00
N592   N     0.28573   0.16665   0.75001   0.00000  Uiso   1.00
Cl593  Cl    0.26081   0.04552   0.67091   0.00000  Uiso   1.00
N594   N     0.06651   0.11046   0.68349   0.00000  Uiso   1.00
O595   O     0.08516   0.11793   0.63179   0.00000  Uiso   1.00
O596   O     0.06631   0.07228   0.70051   0.00000  Uiso   1.00
Cl597  Cl    0.25957   0.22876   0.82625   0.00000  Uiso   1.00
N598   N     0.18946   0.08990   0.87194   0.00000  Uiso   1.00
O599   O     0.22927   0.07395   0.83930   0.00000  Uiso   1.00
O600   O     0.14882   0.07434   0.87204   0.00000  Uiso   1.00
O601   O     0.46179   0.22775   0.75000   0.00000  Uiso   1.00
O602   O     0.53823   0.22774   0.75000   0.00000  Uiso   1.00
C603   C     0.50001   0.24658   0.75013   0.00000  Uiso   1.00
O604   O     0.44280   0.16666   0.82681   0.00000  Uiso   1.00
O605   O     0.51924   0.16665   0.82681   0.00000  Uiso   1.00
C606   C     0.47327   0.16479   0.85209   0.00000  Uiso   1.00
Zn607  Zn    0.44896   0.16667   0.75000   0.00000  Uiso   1.00
Zn608  Zn    0.55104   0.16666   0.75000   0.00000  Uiso   1.00
O609   O     0.46177   0.10559   0.74999   0.00000  Uiso   1.00
O610   O     0.53821   0.10558   0.75000   0.00000  Uiso   1.00
O611   O     0.48076   0.16668   0.67319   0.00000  Uiso   1.00
O612   O     0.55720   0.16667   0.67319   0.00000  Uiso   1.00
C613   C     0.50058   0.08673   0.74791   0.00000  Uiso   1.00
C614   C     0.52672   0.16693   0.64787   0.00000  Uiso   1.00
C615   C     0.59150   0.12550   0.50915   0.00000  Uiso   1.00
H616   H     0.61000   0.13105   0.58107   0.00000  Uiso   1.00
H617   H     0.58914   0.09174   0.91831   0.00000  Uiso   1.00
H618   H     0.62304   0.10702   0.98827   0.00000  Uiso   1.00
C619   C     0.54324   0.16242   0.58936   0.00000  Uiso   1.00
C620   C     0.41163   0.18097   0.94009   0.00000  Uiso   1.00
C621   C     0.39965   0.18859   0.99517   0.00000  Uiso   1.00
C622   C     0.43282   0.18034   0.52062   0.00000  Uiso   1.00
C623   C     0.47758   0.16135   0.99179   0.00000  Uiso   1.00
C624   C     0.48540   0.14649   0.93878   0.00000  Uiso   1.00
C625   C     0.51447   0.15609   0.51398   0.00000  Uiso   1.00
C626   C     0.55580   0.13214   0.98603   0.00000  Uiso   1.00
C627   C     0.55946   0.11275   0.93730   0.00000  Uiso   1.00
C628   C     0.52353   0.11786   0.91468   0.00000  Uiso   1.00
C629   C     0.51123   0.17373   0.56368   0.00000  Uiso   1.00
C630   C     0.58469   0.13981   0.56144   0.00000  Uiso   1.00
C631   C     0.45545   0.16185   0.91116   0.00000  Uiso   1.00
H632   H     0.48223   0.19435   0.58524   0.00000  Uiso   1.00
H633   H     0.38761   0.19168   0.91970   0.00000  Uiso   1.00
H634   H     0.42189   0.18834   0.56303   0.00000  Uiso   1.00
H635   H     0.36567   0.20312   0.51758   0.00000  Uiso   1.00
C636   C     0.54203   0.31118   0.71758   0.00000  Uiso   1.00
H637   H     0.57366   0.29382   0.69389   0.00000  Uiso   1.00
C638   C     0.54242   0.02078   0.71529   0.00000  Uiso   1.00
C639   C     0.50091   0.04250   0.74622   0.00000  Uiso   1.00
C640   C     0.45902   0.02162   0.77696   0.00000  Uiso   1.00
H641   H     0.42702   0.03847   0.80073   0.00000  Uiso   1.00
C642   C     0.45867   0.31211   0.77817   0.00000  Uiso   1.00
H643   H     0.42640   0.29577   0.80241   0.00000  Uiso   1.00
C644   C     0.50035   0.29064   0.74903   0.00000  Uiso   1.00
C645   C     0.65234   0.14013   0.71721   0.00000  Uiso   1.00
H646   H     0.64199   0.11906   0.69088   0.00000  Uiso   1.00
C647   C     0.36679   0.13976   0.71735   0.00000  Uiso   1.00
N648   N     0.38093   0.16668   0.75001   0.00000  Uiso   1.00
C649   C     0.34774   0.19333   0.78266   0.00000  Uiso   1.00
H650   H     0.35826   0.21461   0.80873   0.00000  Uiso   1.00
C651   C     0.63326   0.19338   0.78286   0.00000  Uiso   1.00
N652   N     0.61906   0.16665   0.75001   0.00000  Uiso   1.00
Cl653  Cl    0.59414   0.04552   0.67091   0.00000  Uiso   1.00
N654   N     0.39985   0.11046   0.68349   0.00000  Uiso   1.00
O655   O     0.41849   0.11793   0.63179   0.00000  Uiso   1.00
O656   O     0.39964   0.07228   0.70051   0.00000  Uiso   1.00
Cl657  Cl    0.59290   0.22876   0.82625   0.00000  Uiso   1.00
N658   N     0.52280   0.08990   0.87194   0.00000  Uiso   1.00
O659   O     0.56260   0.07395   0.83930   0.00000  Uiso   1.00
O660   O     0.48216   0.07434   0.87204   0.00000  Uiso   1.00
O661   O     0.79512   0.22775   0.75000   0.00000  Uiso   1.00
O662   O     0.87157   0.22774   0.75000   0.00000  Uiso   1.00
C663   C     0.83334   0.24658   0.75013   0.00000  Uiso   1.00
O664   O     0.77613   0.16666   0.82681   0.00000  Uiso   1.00
O665   O     0.85258   0.16665   0.82681   0.00000  Uiso   1.00
C666   C     0.80661   0.16479   0.85209   0.00000  Uiso   1.00
Zn667  Zn    0.78229   0.16667   0.75000   0.00000  Uiso   1.00
Zn668  Zn    0.88438   0.16666   0.75000   0.00000  Uiso   1.00
O669   O     0.79510   0.10559   0.74999   0.00000  Uiso   1.00
O670   O     0.87154   0.10558   0.75000   0.00000  Uiso   1.00
O671   O     0.81409   0.16668   0.67319   0.00000  Uiso   1.00
O672   O     0.89053   0.16667   0.67319   0.00000  Uiso   1.00
C673   C     0.83391   0.08673   0.74791   0.00000  Uiso   1.00
C674   C     0.86005   0.16693   0.64787   0.00000  Uiso   1.00
C675   C     0.92483   0.12550   0.50915   0.00000  Uiso   1.00
H676   H     0.94334   0.13105   0.58107   0.00000  Uiso   1.00
H677   H     0.92247   0.09174   0.91831   0.00000  Uiso   1.00
H678   H     0.95637   0.10702   0.98827   0.00000  Uiso   1.00
C679   C     0.87657   0.16242   0.58936   0.00000  Uiso   1.00
C680   C     0.74497   0.18097   0.94009   0.00000  Uiso   1.00
C681   C     0.73298   0.18859   0.99517   0.00000  Uiso   1.00
C682   C     0.76615   0.18034   0.52062   0.00000  Uiso   1.00
C683   C     0.81092   0.16135   0.99179   0.00000  Uiso   1.00
C684   C     0.81873   0.14649   0.93878   0.00000  Uiso   1.00
C685   C     0.84781   0.15609   0.51398   0.00000  Uiso   1.00
C686   C     0.88913   0.13214   0.98603   0.00000  Uiso   1.00
C687   C     0.89279   0.11275   0.93730   0.00000  Uiso   1.00
C688   C     0.85687   0.11786   0.91468   0.00000  Uiso   1.00
C689   C     0.84456   0.17373   0.56368   0.00000  Uiso   1.00
C690   C     0.91802   0.13981   0.56144   0.00000  Uiso   1.00
C691   C     0.78879   0.16185   0.91116   0.00000  Uiso   1.00
H692   H     0.81557   0.19435   0.58524   0.00000  Uiso   1.00
H693   H     0.72094   0.19168   0.91970   0.00000  Uiso   1.00
H694   H     0.75522   0.18834   0.56303   0.00000  Uiso   1.00
H695   H     0.69900   0.20312   0.51758   0.00000  Uiso   1.00
C696   C     0.87537   0.31118   0.71758   0.00000  Uiso   1.00
H697   H     0.90699   0.29382   0.69389   0.00000  Uiso   1.00
C698   C     0.87575   0.02078   0.71529   0.00000  Uiso   1.00
C699   C     0.83424   0.04250   0.74622   0.00000  Uiso   1.00
C700   C     0.79236   0.02162   0.77696   0.00000  Uiso   1.00
H701   H     0.76036   0.03847   0.80073   0.00000  Uiso   1.00
C702   C     0.79200   0.31211   0.77817   0.00000  Uiso   1.00
H703   H     0.75973   0.29577   0.80241   0.00000  Uiso   1.00
C704   C     0.83368   0.29064   0.74903   0.00000  Uiso   1.00
C705   C     0.98567   0.14013   0.71721   0.00000  Uiso   1.00
H706   H     0.97533   0.11906   0.69088   0.00000  Uiso   1.00
C707   C     0.70012   0.13976   0.71735   0.00000  Uiso   1.00
N708   N     0.71426   0.16668   0.75001   0.00000  Uiso   1.00
C709   C     0.68108   0.19333   0.78266   0.00000  Uiso   1.00
H710   H     0.69160   0.21461   0.80873   0.00000  Uiso   1.00
C711   C     0.96659   0.19338   0.78286   0.00000  Uiso   1.00
N712   N     0.95239   0.16665   0.75001   0.00000  Uiso   1.00
Cl713  Cl    0.92748   0.04552   0.67091   0.00000  Uiso   1.00
N714   N     0.73318   0.11046   0.68349   0.00000  Uiso   1.00
O715   O     0.75183   0.11793   0.63179   0.00000  Uiso   1.00
O716   O     0.73298   0.07228   0.70051   0.00000  Uiso   1.00
Cl717  Cl    0.92624   0.22876   0.82625   0.00000  Uiso   1.00
N718   N     0.85613   0.08990   0.87194   0.00000  Uiso   1.00
O719   O     0.89593   0.07395   0.83930   0.00000  Uiso   1.00
O720   O     0.81549   0.07434   0.87204   0.00000  Uiso   1.00
O721   O     0.12846   0.56108   0.75000   0.00000  Uiso   1.00
O722   O     0.20490   0.56107   0.75000   0.00000  Uiso   1.00
C723   C     0.16668   0.57992   0.75013   0.00000  Uiso   1.00
O724   O     0.10947   0.50000   0.82681   0.00000  Uiso   1.00
O725   O     0.18591   0.49999   0.82681   0.00000  Uiso   1.00
C726   C     0.13994   0.49812   0.85209   0.00000  Uiso   1.00
Zn727  Zn    0.11562   0.50001   0.75000   0.00000  Uiso   1.00
Zn728  Zn    0.21771   0.49999   0.75000   0.00000  Uiso   1.00
O729   O     0.12843   0.43893   0.74999   0.00000  Uiso   1.00
O730   O     0.20488   0.43892   0.75000   0.00000  Uiso   1.00
O731   O     0.14742   0.50001   0.67319   0.00000  Uiso   1.00
O732   O     0.22387   0.50000   0.67319   0.00000  Uiso   1.00
C733   C     0.16724   0.42006   0.74791   0.00000  Uiso   1.00
C734   C     0.19338   0.50026   0.64787   0.00000  Uiso   1.00
C735   C     0.25816   0.45884   0.50915   0.00000  Uiso   1.00
H736   H     0.27667   0.46439   0.58107   0.00000  Uiso   1.00
H737   H     0.25580   0.42507   0.91831   0.00000  Uiso   1.00
H738   H     0.28971   0.44035   0.98827   0.00000  Uiso   1.00
C739   C     0.20991   0.49575   0.58936   0.00000  Uiso   1.00
C740   C     0.07830   0.51430   0.94009   0.00000  Uiso   1.00
C741   C     0.06632   0.52192   0.99517   0.00000  Uiso   1.00
C742   C     0.09948   0.51367   0.52062   0.00000  Uiso   1.00
C743   C     0.14425   0.49468   0.99179   0.00000  Uiso   1.00
C744   C     0.15206   0.47982   0.93878   0.00000  Uiso   1.00
C745   C     0.18114   0.48943   0.51398   0.00000  Uiso   1.00
C746   C     0.22247   0.46548   0.98603   0.00000  Uiso   1.00
C747   C     0.22613   0.44608   0.93730   0.00000  Uiso   1.00
C748   C     0.19020   0.45119   0.91468   0.00000  Uiso   1.00
C749   C     0.17789   0.50706   0.56368   0.00000  Uiso   1.00
C750   C     0.25135   0.47315   0.56144   0.00000  Uiso   1.00
C751   C     0.12212   0.49518   0.91116   0.00000  Uiso   1.00
H752   H     0.14890   0.52768   0.58524   0.00000  Uiso   1.00
H753   H     0.05427   0.52501   0.91970   0.00000  Uiso   1.00
H754   H     0.08856   0.52168   0.56303   0.00000  Uiso   1.00
H755   H     0.03233   0.53645   0.51758   0.00000  Uiso   1.00
C756   C     0.20870   0.64452   0.71758   0.00000  Uiso   1.00
H757   H     0.24032   0.62715   0.69389   0.00000  Uiso   1.00
C758   C     0.20908   0.35411   0.71529   0.00000  Uiso   1.00
C759   C     0.16757   0.37583   0.74622   0.00000  Uiso   1.00
C760   C     0.12569   0.35495   0.77696   0.00000  Uiso   1.00
H761   H     0.09369   0.37180   0.80073   0.00000  Uiso   1.00
C762   C     0.12533   0.64544   0.77817   0.00000  Uiso   1.00
H763   H     0.09306   0.62910   0.80241   0.00000  Uiso   1.00
C764   C     0.16702   0.62398   0.74903   0.00000  Uiso   1.00
C765   C     0.31901   0.47346   0.71721   0.00000  Uiso   1.00
H766   H     0.30866   0.45240   0.69088   0.00000  Uiso   1.00
C767   C     0.03345   0.47309   0.71735   0.00000  Uiso   1.00
N768   N     0.04760   0.50001   0.75001   0.00000  Uiso   1.00
C769   C     0.01441   0.52667   0.78266   0.00000  Uiso   1.00
H770   H     0.02493   0.54795   0.80873   0.00000  Uiso   1.00
C771   C     0.29993   0.52671   0.78286   0.00000  Uiso   1.00
N772   N     0.28573   0.49998   0.75001   0.00000  Uiso   1.00
Cl773  Cl    0.26081   0.37886   0.67091   0.00000  Uiso   1.00
N774   N     0.06651   0.44379   0.68349   0.00000  Uiso   1.00
O775   O     0.08516   0.45126   0.63179   0.00000  Uiso   1.00
O776   O     0.06631   0.40561   0.70051   0.00000  Uiso   1.00
Cl777  Cl    0.25957   0.56210   0.82625   0.00000  Uiso   1.00
N778   N     0.18946   0.42323   0.87194   0.00000  Uiso   1.00
O779   O     0.22927   0.40728   0.83930   0.00000  Uiso   1.00
O780   O     0.14882   0.40767   0.87204   0.00000  Uiso   1.00
O781   O     0.46179   0.56108   0.75000   0.00000  Uiso   1.00
O782   O     0.53823   0.56107   0.75000   0.00000  Uiso   1.00
C783   C     0.50001   0.57992   0.75013   0.00000  Uiso   1.00
O784   O     0.44280   0.50000   0.82681   0.00000  Uiso   1.00
O785   O     0.51924   0.49999   0.82681   0.00000  Uiso   1.00
C786   C     0.47327   0.49812   0.85209   0.00000  Uiso   1.00
Zn787  Zn    0.44896   0.50001   0.75000   0.00000  Uiso   1.00
Zn788  Zn    0.55104   0.49999   0.75000   0.00000  Uiso   1.00
O789   O     0.46177   0.43893   0.74999   0.00000  Uiso   1.00
O790   O     0.53821   0.43892   0.75000   0.00000  Uiso   1.00
O791   O     0.48076   0.50001   0.67319   0.00000  Uiso   1.00
O792   O     0.55720   0.50000   0.67319   0.00000  Uiso   1.00
C793   C     0.50058   0.42006   0.74791   0.00000  Uiso   1.00
C794   C     0.52672   0.50026   0.64787   0.00000  Uiso   1.00
C795   C     0.59150   0.45884   0.50915   0.00000  Uiso   1.00
H796   H     0.61000   0.46439   0.58107   0.00000  Uiso   1.00
H797   H     0.58914   0.42507   0.91831   0.00000  Uiso   1.00
H798   H     0.62304   0.44035   0.98827   0.00000  Uiso   1.00
C799   C     0.54324   0.49575   0.58936   0.00000  Uiso   1.00
C800   C     0.41163   0.51430   0.94009   0.00000  Uiso   1.00
C801   C     0.39965   0.52192   0.99517   0.00000  Uiso   1.00
C802   C     0.43282   0.51367   0.52062   0.00000  Uiso   1.00
C803   C     0.47758   0.49468   0.99179   0.00000  Uiso   1.00
C804   C     0.48540   0.47982   0.93878   0.00000  Uiso   1.00
C805   C     0.51447   0.48943   0.51398   0.00000  Uiso   1.00
C806   C     0.55580   0.46548   0.98603   0.00000  Uiso   1.00
C807   C     0.55946   0.44608   0.93730   0.00000  Uiso   1.00
C808   C     0.52353   0.45119   0.91468   0.00000  Uiso   1.00
C809   C     0.51123   0.50706   0.56368   0.00000  Uiso   1.00
C810   C     0.58469   0.47315   0.56144   0.00000  Uiso   1.00
C811   C     0.45545   0.49518   0.91116   0.00000  Uiso   1.00
H812   H     0.48223   0.52768   0.58524   0.00000  Uiso   1.00
H813   H     0.38761   0.52501   0.91970   0.00000  Uiso   1.00
H814   H     0.42189   0.52168   0.56303   0.00000  Uiso   1.00
H815   H     0.36567   0.53645   0.51758   0.00000  Uiso   1.00
C816   C     0.54203   0.64452   0.71758   0.00000  Uiso   1.00
H817   H     0.57366   0.62715   0.69389   0.00000  Uiso   1.00
C818   C     0.54242   0.35411   0.71529   0.00000  Uiso   1.00
C819   C     0.50091   0.37583   0.74622   0.00000  Uiso   1.00
C820   C     0.45902   0.35495   0.77696   0.00000  Uiso   1.00
H821   H     0.42702   0.37180   0.80073   0.00000  Uiso   1.00
C822   C     0.45867   0.64544   0.77817   0.00000  Uiso   1.00
H823   H     0.42640   0.62910   0.80241   0.00000  Uiso   1.00
C824   C     0.50035   0.62398   0.74903   0.00000  Uiso   1.00
C825   C     0.65234   0.47346   0.71721   0.00000  Uiso   1.00
H826   H     0.64199   0.45240   0.69088   0.00000  Uiso   1.00
C827   C     0.36679   0.47309   0.71735   0.00000  Uiso   1.00
N828   N     0.38093   0.50001   0.75001   0.00000  Uiso   1.00
C829   C     0.34774   0.52667   0.78266   0.00000  Uiso   1.00
H830   H     0.35826   0.54795   0.80873   0.00000  Uiso   1.00
C831   C     0.63326   0.52671   0.78286   0.00000  Uiso   1.00
N832   N     0.61906   0.49998   0.75001   0.00000  Uiso   1.00
Cl833  Cl    0.59414   0.37886   0.67091   0.00000  Uiso   1.00
N834   N     0.39985   0.44379   0.68349   0.00000  Uiso   1.00
O835   O     0.41849   0.45126   0.63179   0.00000  Uiso   1.00
O836   O     0.39964   0.40561   0.70051   0.00000  Uiso   1.00
Cl837  Cl    0.59290   0.56210   0.82625   0.00000  Uiso   1.00
N838   N     0.52280   0.42323   0.87194   0.00000  Uiso   1.00
O839   O     0.56260   0.40728   0.83930   0.00000  Uiso   1.00
O840   O     0.48216   0.40767   0.87204   0.00000  Uiso   1.00
O841   O     0.79512   0.56108   0.75000   0.00000  Uiso   1.00
O842   O     0.87157   0.56107   0.75000   0.00000  Uiso   1.00
C843   C     0.83334   0.57992   0.75013   0.00000  Uiso   1.00
O844   O     0.77613   0.50000   0.82681   0.00000  Uiso   1.00
O845   O     0.85258   0.49999   0.82681   0.00000  Uiso   1.00
C846   C     0.80661   0.49812   0.85209   0.00000  Uiso   1.00
Zn847  Zn    0.78229   0.50001   0.75000   0.00000  Uiso   1.00
Zn848  Zn    0.88438   0.49999   0.75000   0.00000  Uiso   1.00
O849   O     0.79510   0.43893   0.74999   0.00000  Uiso   1.00
O850   O     0.87154   0.43892   0.75000   0.00000  Uiso   1.00
O851   O     0.81409   0.50001   0.67319   0.00000  Uiso   1.00
O852   O     0.89053   0.50000   0.67319   0.00000  Uiso   1.00
C853   C     0.83391   0.42006   0.74791   0.00000  Uiso   1.00
C854   C     0.86005   0.50026   0.64787   0.00000  Uiso   1.00
C855   C     0.92483   0.45884   0.50915   0.00000  Uiso   1.00
H856   H     0.94334   0.46439   0.58107   0.00000  Uiso   1.00
H857   H     0.92247   0.42507   0.91831   0.00000  Uiso   1.00
H858   H     0.95637   0.44035   0.98827   0.00000  Uiso   1.00
C859   C     0.87657   0.49575   0.58936   0.00000  Uiso   1.00
C860   C     0.74497   0.51430   0.94009   0.00000  Uiso   1.00
C861   C     0.73298   0.52192   0.99517   0.00000  Uiso   1.00
C862   C     0.76615   0.51367   0.52062   0.00000  Uiso   1.00
C863   C     0.81092   0.49468   0.99179   0.00000  Uiso   1.00
C864   C     0.81873   0.47982   0.93878   0.00000  Uiso   1.00
C865   C     0.84781   0.48943   0.51398   0.00000  Uiso   1.00
C866   C     0.88913   0.46548   0.98603   0.00000  Uiso   1.00
C867   C     0.89279   0.44608   0.93730   0.00000  Uiso   1.00
C868   C     0.85687   0.45119   0.91468   0.00000  Uiso   1.00
C869   C     0.84456   0.50706   0.56368   0.00000  Uiso   1.00
C870   C     0.91802   0.47315   0.56144   0.00000  Uiso   1.00
C871   C     0.78879   0.49518   0.91116   0.00000  Uiso   1.00
H872   H     0.81557   0.52768   0.58524   0.00000  Uiso   1.00
H873   H     0.72094   0.52501   0.91970   0.00000  Uiso   1.00
H874   H     0.75522   0.52168   0.56303   0.00000  Uiso   1.00
H875   H     0.69900   0.53645   0.51758   0.00000  Uiso   1.00
C876   C     0.87537   0.64452   0.71758   0.00000  Uiso   1.00
H877   H     0.90699   0.62715   0.69389   0.00000  Uiso   1.00
C878   C     0.87575   0.35411   0.71529   0.00000  Uiso   1.00
C879   C     0.83424   0.37583   0.74622   0.00000  Uiso   1.00
C880   C     0.79236   0.35495   0.77696   0.00000  Uiso   1.00
H881   H     0.76036   0.37180   0.80073   0.00000  Uiso   1.00
C882   C     0.79200   0.64544   0.77817   0.00000  Uiso   1.00
H883   H     0.75973   0.62910   0.80241   0.00000  Uiso   1.00
C884   C     0.83368   0.62398   0.74903   0.00000  Uiso   1.00
C885   C     0.98567   0.47346   0.71721   0.00000  Uiso   1.00
H886   H     0.97533   0.45240   0.69088   0.00000  Uiso   1.00
C887   C     0.70012   0.47309   0.71735   0.00000  Uiso   1.00
N888   N     0.71426   0.50001   0.75001   0.00000  Uiso   1.00
C889   C     0.68108   0.52667   0.78266   0.00000  Uiso   1.00
H890   H     0.69160   0.54795   0.80873   0.00000  Uiso   1.00
C891   C     0.96659   0.52671   0.78286   0.00000  Uiso   1.00
N892   N     0.95239   0.49998   0.75001   0.00000  Uiso   1.00
Cl893  Cl    0.92748   0.37886   0.67091   0.00000  Uiso   1.00
N894   N     0.73318   0.44379   0.68349   0.00000  Uiso   1.00
O895   O     0.75183   0.45126   0.63179   0.00000  Uiso   1.00
O896   O     0.73298   0.40561   0.70051   0.00000  Uiso   1.00
Cl897  Cl    0.92624   0.56210   0.82625   0.00000  Uiso   1.00
N898   N     0.85613   0.42323   0.87194   0.00000  Uiso   1.00
O899   O     0.89593   0.40728   0.83930   0.00000  Uiso   1.00
O900   O     0.81549   0.40767   0.87204   0.00000  Uiso   1.00
O901   O     0.12846   0.89442   0.75000   0.00000  Uiso   1.00
O902   O     0.20490   0.89441   0.75000   0.00000  Uiso   1.00
C903   C     0.16668   0.91325   0.75013   0.00000  Uiso   1.00
O904   O     0.10947   0.83333   0.82681   0.00000  Uiso   1.00
O905   O     0.18591   0.83332   0.82681   0.00000  Uiso   1.00
C906   C     0.13994   0.83145   0.85209   0.00000  Uiso   1.00
Zn907  Zn    0.11562   0.83334   0.75000   0.00000  Uiso   1.00
Zn908  Zn    0.21771   0.83333   0.75000   0.00000  Uiso   1.00
O909   O     0.12843   0.77226   0.74999   0.00000  Uiso   1.00
O910   O     0.20488   0.77225   0.75000   0.00000  Uiso   1.00
O911   O     0.14742   0.83335   0.67319   0.00000  Uiso   1.00
O912   O     0.22387   0.83334   0.67319   0.00000  Uiso   1.00
C913   C     0.16724   0.75340   0.74791   0.00000  Uiso   1.00
C914   C     0.19338   0.83360   0.64787   0.00000  Uiso   1.00
C915   C     0.25816   0.79217   0.50915   0.00000  Uiso   1.00
H916   H     0.27667   0.79772   0.58107   0.00000  Uiso   1.00
H917   H     0.25580   0.75840   0.91831   0.00000  Uiso   1.00
H918   H     0.28971   0.77369   0.98827   0.00000  Uiso   1.00
C919   C     0.20991   0.82909   0.58936   0.00000  Uiso   1.00
C920   C     0.07830   0.84764   0.94009   0.00000  Uiso   1.00
C921   C     0.06632   0.85525   0.99517   0.00000  Uiso   1.00
C922   C     0.09948   0.84700   0.52062   0.00000  Uiso   1.00
C923   C     0.14425   0.82802   0.99179   0.00000  Uiso   1.00
C924   C     0.15206   0.81315   0.93878   0.00000  Uiso   1.00
C925   C     0.18114   0.82276   0.51398   0.00000  Uiso   1.00
C926   C     0.22247   0.79881   0.98603   0.00000  Uiso   1.00
C927   C     0.22613   0.77941   0.93730   0.00000  Uiso   1.00
C928   C     0.19020   0.78452   0.91468   0.00000  Uiso   1.00
C929   C     0.17789   0.84039   0.56368   0.00000  Uiso   1.00
C930   C     0.25135   0.80648   0.56144   0.00000  Uiso   1.00
C931   C     0.12212   0.82851   0.91116   0.00000  Uiso   1.00
H932   H     0.14890   0.86102   0.58524   0.00000  Uiso   1.00
H933   H     0.05427   0.85835   0.91970   0.00000  Uiso   1.00
H934   H     0.08856   0.85501   0.56303   0.00000  Uiso   1.00
H935   H     0.03233   0.86978   0.51758   0.00000  Uiso   1.00
C936   C     0.20870   0.97785   0.71758   0.00000  Uiso   1.00
H937   H     0.24032   0.96048   0.69389   0.00000  Uiso   1.00
C938   C     0.20908   0.68745   0.71529   0.00000  Uiso   1.00
C939   C     0.16757   0.70916   0.74622   0.00000  Uiso   1.00
C940   C     0.12569   0.68829   0.77696   0.00000  Uiso   1.00
H941   H     0.09369   0.70513   0.80073   0.00000  Uiso   1.00
C942   C     0.12533   0.97877   0.77817   0.00000  Uiso   1.00
H943   H     0.09306   0.96243   0.80241   0.00000  Uiso   1.00
C944   C     0.16702   0.95731   0.74903   0.00000  Uiso   1.00
C945   C     0.31901   0.80679   0.71721   0.00000  Uiso   1.00
H946   H     0.30866   0.78573   0.69088   0.00000  Uiso   1.00
C947   C     0.03345   0.80643   0.71735   0.00000  Uiso   1.00
N948   N     0.04760   0.83334   0.75001   0.00000  Uiso   1.00
C949   C     0.01441   0.86000   0.78266   0.00000  Uiso   1.00
H950   H     0.02493   0.88128   0.80873   0.00000  Uiso   1.00
C951   C     0.29993   0.86004   0.78286   0.00000  Uiso   1.00
N952   N     0.28573   0.83331   0.75001   0.00000  Uiso   1.00
Cl953  Cl    0.26081   0.71219   0.67091   0.00000  Uiso   1.00
N954   N     0.06651   0.77713   0.68349   0.00000  Uiso   1.00
O955   O     0.08516   0.78460   0.63179   0.00000  Uiso   1.00
O956   O     0.06631   0.73894   0.70051   0.00000  Uiso   1.00
Cl957  Cl    0.25957   0.89543   0.82625   0.00000  Uiso   1.00
N958   N     0.18946   0.75657   0.87194   0.00000  Uiso   1.00
O959   O     0.22927   0.74061   0.83930   0.00000  Uiso   1.00
O960   O     0.14882   0.74101   0.87204   0.00000  Uiso   1.00
O961   O     0.46179   0.89442   0.75000   0.00000  Uiso   1.00
O962   O     0.53823   0.89441   0.75000   0.00000  Uiso   1.00
C963   C     0.50001   0.91325   0.75013   0.00000  Uiso   1.00
O964   O     0.44280   0.83333   0.82681   0.00000  Uiso   1.00
O965   O     0.51924   0.83332   0.82681   0.00000  Uiso   1.00
C966   C     0.47327   0.83145   0.85209   0.00000  Uiso   1.00
Zn967  Zn    0.44896   0.83334   0.75000   0.00000  Uiso   1.00
Zn968  Zn    0.55104   0.83333   0.75000   0.00000  Uiso   1.00
O969   O     0.46177   0.77226   0.74999   0.00000  Uiso   1.00
O970   O     0.53821   0.77225   0.75000   0.00000  Uiso   1.00
O971   O     0.48076   0.83335   0.67319   0.00000  Uiso   1.00
O972   O     0.55720   0.83334   0.67319   0.00000  Uiso   1.00
C973   C     0.50058   0.75340   0.74791   0.00000  Uiso   1.00
C974   C     0.52672   0.83360   0.64787   0.00000  Uiso   1.00
C975   C     0.59150   0.79217   0.50915   0.00000  Uiso   1.00
H976   H     0.61000   0.79772   0.58107   0.00000  Uiso   1.00
H977   H     0.58914   0.75840   0.91831   0.00000  Uiso   1.00
H978   H     0.62304   0.77369   0.98827   0.00000  Uiso   1.00
C979   C     0.54324   0.82909   0.58936   0.00000  Uiso   1.00
C980   C     0.41163   0.84764   0.94009   0.00000  Uiso   1.00
C981   C     0.39965   0.85525   0.99517   0.00000  Uiso   1.00
C982   C     0.43282   0.84700   0.52062   0.00000  Uiso   1.00
C983   C     0.47758   0.82802   0.99179   0.00000  Uiso   1.00
C984   C     0.48540   0.81315   0.93878   0.00000  Uiso   1.00
C985   C     0.51447   0.82276   0.51398   0.00000  Uiso   1.00
C986   C     0.55580   0.79881   0.98603   0.00000  Uiso   1.00
C987   C     0.55946   0.77941   0.93730   0.00000  Uiso   1.00
C988   C     0.52353   0.78452   0.91468   0.00000  Uiso   1.00
C989   C     0.51123   0.84039   0.56368   0.00000  Uiso   1.00
C990   C     0.58469   0.80648   0.56144   0.00000  Uiso   1.00
C991   C     0.45545   0.82851   0.91116   0.00000  Uiso   1.00
H992   H     0.48223   0.86102   0.58524   0.00000  Uiso   1.00
H993   H     0.38761   0.85835   0.91970   0.00000  Uiso   1.00
H994   H     0.42189   0.85501   0.56303   0.00000  Uiso   1.00
H995   H     0.36567   0.86978   0.51758   0.00000  Uiso   1.00
C996   C     0.54203   0.97785   0.71758   0.00000  Uiso   1.00
H997   H     0.57366   0.96048   0.69389   0.00000  Uiso   1.00
C998   C     0.54242   0.68745   0.71529   0.00000  Uiso   1.00
C999   C     0.50091   0.70916   0.74622   0.00000  Uiso   1.00
C1000  C     0.45902   0.68829   0.77696   0.00000  Uiso   1.00
H1001  H     0.42702   0.70513   0.80073   0.00000  Uiso   1.00
C1002  C     0.45867   0.97877   0.77817   0.00000  Uiso   1.00
H1003  H     0.42640   0.96243   0.80241   0.00000  Uiso   1.00
C1004  C     0.50035   0.95731   0.74903   0.00000  Uiso   1.00
C1005  C     0.65234   0.80679   0.71721   0.00000  Uiso   1.00
H1006  H     0.64199   0.78573   0.69088   0.00000  Uiso   1.00
C1007  C     0.36679   0.80643   0.71735   0.00000  Uiso   1.00
N1008  N     0.38093   0.83334   0.75001   0.00000  Uiso   1.00
C1009  C     0.34774   0.86000   0.78266   0.00000  Uiso   1.00
H1010  H     0.35826   0.88128   0.80873   0.00000  Uiso   1.00
C1011  C     0.63326   0.86004   0.78286   0.00000  Uiso   1.00
N1012  N     0.61906   0.83331   0.75001   0.00000  Uiso   1.00
Cl1013 Cl    0.59414   0.71219   0.67091   0.00000  Uiso   1.00
N1014  N     0.39985   0.77713   0.68349   0.00000  Uiso   1.00
O1015  O     0.41849   0.78460   0.63179   0.00000  Uiso   1.00
O1016  O     0.39964   0.73894   0.70051   0.00000  Uiso   1.00
Cl1017 Cl    0.59290   0.89543   0.82625   0.00000  Uiso   1.00
N1018  N     0.52280   0.75657   0.87194   0.00000  Uiso   1.00
O1019  O     0.56260   0.74061   0.83930   0.00000  Uiso   1.00
O1020  O     0.48216   0.74101   0.87204   0.00000  Uiso   1.00
O1021  O     0.79512   0.89442   0.75000   0.00000  Uiso   1.00
O1022  O     0.87157   0.89441   0.75000   0.00000  Uiso   1.00
C1023  C     0.83334   0.91325   0.75013   0.00000  Uiso   1.00
O1024  O     0.77613   0.83333   0.82681   0.00000  Uiso   1.00
O1025  O     0.85258   0.83332   0.82681   0.00000  Uiso   1.00
C1026  C     0.80661   0.83145   0.85209   0.00000  Uiso   1.00
Zn1027 Zn    0.78229   0.83334   0.75000   0.00000  Uiso   1.00
Zn1028 Zn    0.88438   0.83333   0.75000   0.00000  Uiso   1.00
O1029  O     0.79510   0.77226   0.74999   0.00000  Uiso   1.00
O1030  O     0.87154   0.77225   0.75000   0.00000  Uiso   1.00
O1031  O     0.81409   0.83335   0.67319   0.00000  Uiso   1.00
O1032  O     0.89053   0.83334   0.67319   0.00000  Uiso   1.00
C1033  C     0.83391   0.75340   0.74791   0.00000  Uiso   1.00
C1034  C     0.86005   0.83360   0.64787   0.00000  Uiso   1.00
C1035  C     0.92483   0.79217   0.50915   0.00000  Uiso   1.00
H1036  H     0.94334   0.79772   0.58107   0.00000  Uiso   1.00
H1037  H     0.92247   0.75840   0.91831   0.00000  Uiso   1.00
H1038  H     0.95637   0.77369   0.98827   0.00000  Uiso   1.00
C1039  C     0.87657   0.82909   0.58936   0.00000  Uiso   1.00
C1040  C     0.74497   0.84764   0.94009   0.00000  Uiso   1.00
C1041  C     0.73298   0.85525   0.99517   0.00000  Uiso   1.00
C1042  C     0.76615   0.84700   0.52062   0.00000  Uiso   1.00
C1043  C     0.81092   0.82802   0.99179   0.00000  Uiso   1.00
C1044  C     0.81873   0.81315   0.93878   0.00000  Uiso   1.00
C1045  C     0.84781   0.82276   0.51398   0.00000  Uiso   1.00
C1046  C     0.88913   0.79881   0.98603   0.00000  Uiso   1.00
C1047  C     0.89279   0.77941   0.93730   0.00000  Uiso   1.00
C1048  C     0.85687   0.78452   0.91468   0.00000  Uiso   1.00
C1049  C     0.84456   0.84039   0.56368   0.00000  Uiso   1.00
C1050  C     0.91802   0.80648   0.56144   0.00000  Uiso   1.00
C1051  C     0.78879   0.82851   0.91116   0.00000  Uiso   1.00
H1052  H     0.81557   0.86102   0.58524   0.00000  Uiso   1.00
H1053  H     0.72094   0.85835   0.91970   0.00000  Uiso   1.00
H1054  H     0.75522   0.85501   0.56303   0.00000  Uiso   1.00
H1055  H     0.69900   0.86978   0.51758   0.00000  Uiso   1.00
C1056  C     0.87537   0.97785   0.71758   0.00000  Uiso   1.00
H1057  H     0.90699   0.96048   0.69389   0.00000  Uiso   1.00
C1058  C     0.87575   0.68745   0.71529   0.00000  Uiso   1.00
C1059  C     0.83424   0.70916   0.74622   0.00000  Uiso   1.00
C1060  C     0.79236   0.68829   0.77696   0.00000  Uiso   1.00
H1061  H     0.76036   0.70513   0.80073   0.00000  Uiso   1.00
C1062  C     0.79200   0.97877   0.77817   0.00000  Uiso   1.00
H1063  H     0.75973   0.96243   0.80241   0.00000  Uiso   1.00
C1064  C     0.83368   0.95731   0.74903   0.00000  Uiso   1.00
C1065  C     0.98567   0.80679   0.71721   0.00000  Uiso   1.00
H1066  H     0.97533   0.78573   0.69088   0.00000  Uiso   1.00
C1067  C     0.70012   0.80643   0.71735   0.00000  Uiso   1.00
N1068  N     0.71426   0.83334   0.75001   0.00000  Uiso   1.00
C1069  C     0.68108   0.86000   0.78266   0.00000  Uiso   1.00
H1070  H     0.69160   0.88128   0.80873   0.00000  Uiso   1.00
C1071  C     0.96659   0.86004   0.78286   0.00000  Uiso   1.00
N1072  N     0.95239   0.83331   0.75001   0.00000  Uiso   1.00
Cl1073 Cl    0.92748   0.71219   0.67091   0.00000  Uiso   1.00
N1074  N     0.73318   0.77713   0.68349   0.00000  Uiso   1.00
O1075  O     0.75183   0.78460   0.63179   0.00000  Uiso   1.00
O1076  O     0.73298   0.73894   0.70051   0.00000  Uiso   1.00
Cl1077 Cl    0.92624   0.89543   0.82625   0.00000  Uiso   1.00
N1078  N     0.85613   0.75657   0.87194   0.00000  Uiso   1.00
O1079  O     0.89593   0.74061   0.83930   0.00000  Uiso   1.00
O1080  O     0.81549   0.74101   0.87204   0.00000  Uiso   1.00
loop_
_geom_bond_atom_site_label_1
_geom_bond_atom_site_label_2
_geom_bond_distance
_geom_bond_site_symmetry_2
_ccdc_geom_bond_type
O1     Zn7     1.989   .     S
O1     C3      1.283   .     A
O2     C3      1.284   .     A
O2     Zn8     1.991   .     S
C3     C44     1.409   .     S
O4     Zn7     1.960   .     S
O4     C6      1.293   .     A
O5     Zn8     1.910   .     S
O5     C6      1.297   .     A
C6     C31     1.459   .     S
Zn7    N48     2.017   .     S
Zn7    O11     1.910   .     S
Zn7    O9      1.991   .     S
Zn8    N52     2.017   .     S
Zn8    O12     1.960   .     S
Zn8    O10     1.989   .     S
O9     C13     1.285   .     A
O10    C13     1.284   .     A
O11    C14     1.296   .     A
O12    C14     1.292   .     A
C13    C39     1.415   .     S
C14    C19     1.450   .     S
C15    C30     1.393   .     A
C15    H558    1.084   1_554 S
C15    C566    1.405   1_554 S
H16    C30     1.083   .     S
H17    C27     1.084   .     S
H18    C555    1.084   .     S
C19    C30     1.398   .     A
C19    C29     1.388   .     A
C20    H33     1.083   .     S
C20    C21     1.386   .     A
C20    C31     1.402   .     A
C21    C562    1.391   .     S
C21    H575    1.083   .     S
C22    H34     1.078   .     S
C22    C561    1.391   1_554 S
C22    C563    1.421   1_554 S
C23    C24     1.411   .     A
C23    C562    1.421   .     S
C23    C565    1.415   .     S
C24    C31     1.414   .     A
C24    C28     1.425   .     A
C25    C29     1.392   .     A
C25    C563    1.415   1_554 S
C25    C566    1.419   1_554 S
C26    C27     1.390   .     A
C26    C555    1.405   .     S
C26    C565    1.419   .     S
C27    C28     1.396   .     A
C28    N58     1.438   .     S
C29    H32     1.078   .     S
H35    C561    1.083   1_554 S
C36    H37     1.084   .     S
C36    C44     1.393   .     A
C36    C218    1.374   .     S
C38    Cl53    1.763   .     S
C38    C39     1.405   .     A
C38    C396    1.374   1_545 S
C39    C40     1.397   .     A
C40    H41     1.084   .     S
C40    C402    1.371   1_545 S
C42    C44     1.392   .     A
C42    H43     1.084   .     S
C42    C220    1.371   .     S
C45    N52     1.361   .     A
C45    H46     1.080   .     S
C45    C107    1.418   .     S
C47    N48     1.375   .     A
C47    N54     1.426   .     S
C47    C165    1.418   1_455 S
N48    C49     1.361   .     A
C49    H50     1.082   .     S
C49    C171    1.416   1_455 S
C51    Cl57    1.754   .     S
C51    N52     1.376   .     A
C51    C109    1.416   .     S
N54    O56     1.300   .     A
N54    O55     1.300   .     A
N58    O59     1.302   .     A
N58    O60     1.302   .     A
O61    Zn67    1.989   .     S
O61    C63     1.283   .     A
O62    C63     1.284   .     A
O62    Zn68    1.991   .     S
C63    C104    1.409   .     S
O64    Zn67    1.960   .     S
O64    C66     1.293   .     A
O65    Zn68    1.910   .     S
O65    C66     1.297   .     A
C66    C91     1.459   .     S
Zn67   N108    2.017   .     S
Zn67   O71     1.910   .     S
Zn67   O69     1.991   .     S
Zn68   N112    2.017   .     S
Zn68   O72     1.960   .     S
Zn68   O70     1.989   .     S
O69    C73     1.285   .     A
O70    C73     1.284   .     A
O71    C74     1.296   .     A
O72    C74     1.292   .     A
C73    C99     1.415   .     S
C74    C79     1.450   .     S
C75    C90     1.393   .     A
C75    H618    1.084   1_554 S
C75    C626    1.405   1_554 S
H76    C90     1.083   .     S
H77    C87     1.084   .     S
H78    C615    1.084   .     S
C79    C90     1.398   .     A
C79    C89     1.388   .     A
C80    H93     1.083   .     S
C80    C81     1.386   .     A
C80    C91     1.402   .     A
C81    C622    1.391   .     S
C81    H635    1.083   .     S
C82    H94     1.078   .     S
C82    C621    1.391   1_554 S
C82    C623    1.421   1_554 S
C83    C84     1.411   .     A
C83    C622    1.421   .     S
C83    C625    1.415   .     S
C84    C91     1.414   .     A
C84    C88     1.425   .     A
C85    C89     1.392   .     A
C85    C623    1.415   1_554 S
C85    C626    1.419   1_554 S
C86    C87     1.390   .     A
C86    C615    1.405   .     S
C86    C625    1.419   .     S
C87    C88     1.396   .     A
C88    N118    1.438   .     S
C89    H92     1.078   .     S
H95    C621    1.083   1_554 S
C96    H97     1.084   .     S
C96    C104    1.393   .     A
C96    C278    1.374   .     S
C98    Cl113   1.763   .     S
C98    C99     1.405   .     A
C98    C456    1.374   1_545 S
C99    C100    1.397   .     A
C100   H101    1.084   .     S
C100   C462    1.371   1_545 S
C102   C104    1.392   .     A
C102   H103    1.084   .     S
C102   C280    1.371   .     S
C105   N112    1.361   .     A
C105   H106    1.080   .     S
C105   C167    1.418   .     S
C107   N108    1.375   .     A
C107   N114    1.426   .     S
N108   C109    1.361   .     A
C109   H110    1.082   .     S
C111   Cl117   1.754   .     S
C111   N112    1.376   .     A
C111   C169    1.416   .     S
N114   O116    1.300   .     A
N114   O115    1.300   .     A
N118   O119    1.302   .     A
N118   O120    1.302   .     A
O121   Zn127   1.989   .     S
O121   C123    1.283   .     A
O122   C123    1.284   .     A
O122   Zn128   1.991   .     S
C123   C164    1.409   .     S
O124   Zn127   1.960   .     S
O124   C126    1.293   .     A
O125   Zn128   1.910   .     S
O125   C126    1.297   .     A
C126   C151    1.459   .     S
Zn127  N168    2.017   .     S
Zn127  O131    1.910   .     S
Zn127  O129    1.991   .     S
Zn128  N172    2.017   .     S
Zn128  O132    1.960   .     S
Zn128  O130    1.989   .     S
O129   C133    1.285   .     A
O130   C133    1.284   .     A
O131   C134    1.296   .     A
O132   C134    1.292   .     A
C133   C159    1.415   .     S
C134   C139    1.450   .     S
C135   C150    1.393   .     A
C135   H678    1.084   1_554 S
C135   C686    1.405   1_554 S
H136   C150    1.083   .     S
H137   C147    1.084   .     S
H138   C675    1.084   .     S
C139   C150    1.398   .     A
C139   C149    1.388   .     A
C140   H153    1.083   .     S
C140   C141    1.386   .     A
C140   C151    1.402   .     A
C141   C682    1.391   .     S
C141   H695    1.083   .     S
C142   H154    1.078   .     S
C142   C681    1.391   1_554 S
C142   C683    1.421   1_554 S
C143   C144    1.411   .     A
C143   C682    1.421   .     S
C143   C685    1.415   .     S
C144   C151    1.414   .     A
C144   C148    1.425   .     A
C145   C149    1.392   .     A
C145   C683    1.415   1_554 S
C145   C686    1.419   1_554 S
C146   C147    1.390   .     A
C146   C675    1.405   .     S
C146   C685    1.419   .     S
C147   C148    1.396   .     A
C148   N178    1.438   .     S
C149   H152    1.078   .     S
H155   C681    1.083   1_554 S
C156   H157    1.084   .     S
C156   C164    1.393   .     A
C156   C338    1.374   .     S
C158   Cl173   1.763   .     S
C158   C159    1.405   .     A
C158   C516    1.374   1_545 S
C159   C160    1.397   .     A
C160   H161    1.084   .     S
C160   C522    1.371   1_545 S
C162   C164    1.392   .     A
C162   H163    1.084   .     S
C162   C340    1.371   .     S
C165   N172    1.361   .     A
C165   H166    1.080   .     S
C165   C47     1.418   1_655 S
C167   N168    1.375   .     A
C167   N174    1.426   .     S
N168   C169    1.361   .     A
C169   H170    1.082   .     S
C171   Cl177   1.754   .     S
C171   N172    1.376   .     A
C171   C49     1.416   1_655 S
N174   O176    1.300   .     A
N174   O175    1.300   .     A
N178   O179    1.302   .     A
N178   O180    1.302   .     A
O181   Zn187   1.989   .     S
O181   C183    1.283   .     A
O182   C183    1.284   .     A
O182   Zn188   1.991   .     S
C183   C224    1.409   .     S
O184   Zn187   1.960   .     S
O184   C186    1.293   .     A
O185   Zn188   1.910   .     S
O185   C186    1.297   .     A
C186   C211    1.459   .     S
Zn187  N228    2.017   .     S
Zn187  O191    1.910   .     S
Zn187  O189    1.991   .     S
Zn188  N232    2.017   .     S
Zn188  O192    1.960   .     S
Zn188  O190    1.989   .     S
O189   C193    1.285   .     A
O190   C193    1.284   .     A
O191   C194    1.296   .     A
O192   C194    1.292   .     A
C193   C219    1.415   .     S
C194   C199    1.450   .     S
C195   C210    1.393   .     A
C195   H738    1.084   1_554 S
C195   C746    1.405   1_554 S
H196   C210    1.083   .     S
H197   C207    1.084   .     S
H198   C735    1.084   .     S
C199   C210    1.398   .     A
C199   C209    1.388   .     A
C200   H213    1.083   .     S
C200   C201    1.386   .     A
C200   C211    1.402   .     A
C201   C742    1.391   .     S
C201   H755    1.083   .     S
C202   H214    1.078   .     S
C202   C741    1.391   1_554 S
C202   C743    1.421   1_554 S
C203   C204    1.411   .     A
C203   C742    1.421   .     S
C203   C745    1.415   .     S
C204   C211    1.414   .     A
C204   C208    1.425   .     A
C205   C209    1.392   .     A
C205   C743    1.415   1_554 S
C205   C746    1.419   1_554 S
C206   C207    1.390   .     A
C206   C735    1.405   .     S
C206   C745    1.419   .     S
C207   C208    1.396   .     A
C208   N238    1.438   .     S
C209   H212    1.078   .     S
H215   C741    1.083   1_554 S
C216   H217    1.084   .     S
C216   C224    1.393   .     A
C216   C398    1.374   .     S
C218   Cl233   1.763   .     S
C218   C219    1.405   .     A
C219   C220    1.397   .     A
C220   H221    1.084   .     S
C222   C224    1.392   .     A
C222   H223    1.084   .     S
C222   C400    1.371   .     S
C225   N232    1.361   .     A
C225   H226    1.080   .     S
C225   C287    1.418   .     S
C227   N228    1.375   .     A
C227   N234    1.426   .     S
C227   C345    1.418   1_455 S
N228   C229    1.361   .     A
C229   H230    1.082   .     S
C229   C351    1.416   1_455 S
C231   Cl237   1.754   .     S
C231   N232    1.376   .     A
C231   C289    1.416   .     S
N234   O236    1.300   .     A
N234   O235    1.300   .     A
N238   O239    1.302   .     A
N238   O240    1.302   .     A
O241   Zn247   1.989   .     S
O241   C243    1.283   .     A
O242   C243    1.284   .     A
O242   Zn248   1.991   .     S
C243   C284    1.409   .     S
O244   Zn247   1.960   .     S
O244   C246    1.293   .     A
O245   Zn248   1.910   .     S
O245   C246    1.297   .     A
C246   C271    1.459   .     S
Zn247  N288    2.017   .     S
Zn247  O251    1.910   .     S
Zn247  O249    1.991   .     S
Zn248  N292    2.017   .     S
Zn248  O252    1.960   .     S
Zn248  O250    1.989   .     S
O249   C253    1.285   .     A
O250   C253    1.284   .     A
O251   C254    1.296   .     A
O252   C254    1.292   .     A
C253   C279    1.415   .     S
C254   C259    1.450   .     S
C255   C270    1.393   .     A
C255   H798    1.084   1_554 S
C255   C806    1.405   1_554 S
H256   C270    1.083   .     S
H257   C267    1.084   .     S
H258   C795    1.084   .     S
C259   C270    1.398   .     A
C259   C269    1.388   .     A
C260   H273    1.083   .     S
C260   C261    1.386   .     A
C260   C271    1.402   .     A
C261   C802    1.391   .     S
C261   H815    1.083   .     S
C262   H274    1.078   .     S
C262   C801    1.391   1_554 S
C262   C803    1.421   1_554 S
C263   C264    1.411   .     A
C263   C802    1.421   .     S
C263   C805    1.415   .     S
C264   C271    1.414   .     A
C264   C268    1.425   .     A
C265   C269    1.392   .     A
C265   C803    1.415   1_554 S
C265   C806    1.419   1_554 S
C266   C267    1.390   .     A
C266   C795    1.405   .     S
C266   C805    1.419   .     S
C267   C268    1.396   .     A
C268   N298    1.438   .     S
C269   H272    1.078   .     S
H275   C801    1.083   1_554 S
C276   H277    1.084   .     S
C276   C284    1.393   .     A
C276   C458    1.374   .     S
C278   Cl293   1.763   .     S
C278   C279    1.405   .     A
C279   C280    1.397   .     A
C280   H281    1.084   .     S
C282   C284    1.392   .     A
C282   H283    1.084   .     S
C282   C460    1.371   .     S
C285   N292    1.361   .     A
C285   H286    1.080   .     S
C285   C347    1.418   .     S
C287   N288    1.375   .     A
C287   N294    1.426   .     S
N288   C289    1.361   .     A
C289   H290    1.082   .     S
C291   Cl297   1.754   .     S
C291   N292    1.376   .     A
C291   C349    1.416   .     S
N294   O296    1.300   .     A
N294   O295    1.300   .     A
N298   O299    1.302   .     A
N298   O300    1.302   .     A
O301   Zn307   1.989   .     S
O301   C303    1.283   .     A
O302   C303    1.284   .     A
O302   Zn308   1.991   .     S
C303   C344    1.409   .     S
O304   Zn307   1.960   .     S
O304   C306    1.293   .     A
O305   Zn308   1.910   .     S
O305   C306    1.297   .     A
C306   C331    1.459   .     S
Zn307  N348    2.017   .     S
Zn307  O311    1.910   .     S
Zn307  O309    1.991   .     S
Zn308  N352    2.017   .     S
Zn308  O312    1.960   .     S
Zn308  O310    1.989   .     S
O309   C313    1.285   .     A
O310   C313    1.284   .     A
O311   C314    1.296   .     A
O312   C314    1.292   .     A
C313   C339    1.415   .     S
C314   C319    1.450   .     S
C315   C330    1.393   .     A
C315   H858    1.084   1_554 S
C315   C866    1.405   1_554 S
H316   C330    1.083   .     S
H317   C327    1.084   .     S
H318   C855    1.084   .     S
C319   C330    1.398   .     A
C319   C329    1.388   .     A
C320   H333    1.083   .     S
C320   C321    1.386   .     A
C320   C331    1.402   .     A
C321   C862    1.391   .     S
C321   H875    1.083   .     S
C322   H334    1.078   .     S
C322   C861    1.391   1_554 S
C322   C863    1.421   1_554 S
C323   C324    1.411   .     A
C323   C862    1.421   .     S
C323   C865    1.415   .     S
C324   C331    1.414   .     A
C324   C328    1.425   .     A
C325   C329    1.392   .     A
C325   C863    1.415   1_554 S
C325   C866    1.419   1_554 S
C326   C327    1.390   .     A
C326   C855    1.405   .     S
C326   C865    1.419   .     S
C327   C328    1.396   .     A
C328   N358    1.438   .     S
C329   H332    1.078   .     S
H335   C861    1.083   1_554 S
C336   H337    1.084   .     S
C336   C344    1.393   .     A
C336   C518    1.374   .     S
C338   Cl353   1.763   .     S
C338   C339    1.405   .     A
C339   C340    1.397   .     A
C340   H341    1.084   .     S
C342   C344    1.392   .     A
C342   H343    1.084   .     S
C342   C520    1.371   .     S
C345   N352    1.361   .     A
C345   H346    1.080   .     S
C345   C227    1.418   1_655 S
C347   N348    1.375   .     A
C347   N354    1.426   .     S
N348   C349    1.361   .     A
C349   H350    1.082   .     S
C351   Cl357   1.754   .     S
C351   N352    1.376   .     A
C351   C229    1.416   1_655 S
N354   O356    1.300   .     A
N354   O355    1.300   .     A
N358   O359    1.302   .     A
N358   O360    1.302   .     A
O361   Zn367   1.989   .     S
O361   C363    1.283   .     A
O362   C363    1.284   .     A
O362   Zn368   1.991   .     S
C363   C404    1.409   .     S
O364   Zn367   1.960   .     S
O364   C366    1.293   .     A
O365   Zn368   1.910   .     S
O365   C366    1.297   .     A
C366   C391    1.459   .     S
Zn367  N408    2.017   .     S
Zn367  O371    1.910   .     S
Zn367  O369    1.991   .     S
Zn368  N412    2.017   .     S
Zn368  O372    1.960   .     S
Zn368  O370    1.989   .     S
O369   C373    1.285   .     A
O370   C373    1.284   .     A
O371   C374    1.296   .     A
O372   C374    1.292   .     A
C373   C399    1.415   .     S
C374   C379    1.450   .     S
C375   C390    1.393   .     A
C375   H918    1.084   1_554 S
C375   C926    1.405   1_554 S
H376   C390    1.083   .     S
H377   C387    1.084   .     S
H378   C915    1.084   .     S
C379   C390    1.398   .     A
C379   C389    1.388   .     A
C380   H393    1.083   .     S
C380   C381    1.386   .     A
C380   C391    1.402   .     A
C381   C922    1.391   .     S
C381   H935    1.083   .     S
C382   H394    1.078   .     S
C382   C921    1.391   1_554 S
C382   C923    1.421   1_554 S
C383   C384    1.411   .     A
C383   C922    1.421   .     S
C383   C925    1.415   .     S
C384   C391    1.414   .     A
C384   C388    1.425   .     A
C385   C389    1.392   .     A
C385   C923    1.415   1_554 S
C385   C926    1.419   1_554 S
C386   C387    1.390   .     A
C386   C915    1.405   .     S
C386   C925    1.419   .     S
C387   C388    1.396   .     A
C388   N418    1.438   .     S
C389   H392    1.078   .     S
H395   C921    1.083   1_554 S
C396   H397    1.084   .     S
C396   C404    1.393   .     A
C396   C38     1.374   1_565 S
C398   Cl413   1.763   .     S
C398   C399    1.405   .     A
C399   C400    1.397   .     A
C400   H401    1.084   .     S
C402   C404    1.392   .     A
C402   H403    1.084   .     S
C402   C40     1.371   1_565 S
C405   N412    1.361   .     A
C405   H406    1.080   .     S
C405   C467    1.418   .     S
C407   N408    1.375   .     A
C407   N414    1.426   .     S
C407   C525    1.418   1_455 S
N408   C409    1.361   .     A
C409   H410    1.082   .     S
C409   C531    1.416   1_455 S
C411   Cl417   1.754   .     S
C411   N412    1.376   .     A
C411   C469    1.416   .     S
N414   O416    1.300   .     A
N414   O415    1.300   .     A
N418   O419    1.302   .     A
N418   O420    1.302   .     A
O421   Zn427   1.989   .     S
O421   C423    1.283   .     A
O422   C423    1.284   .     A
O422   Zn428   1.991   .     S
C423   C464    1.409   .     S
O424   Zn427   1.960   .     S
O424   C426    1.293   .     A
O425   Zn428   1.910   .     S
O425   C426    1.297   .     A
C426   C451    1.459   .     S
Zn427  N468    2.017   .     S
Zn427  O431    1.910   .     S
Zn427  O429    1.991   .     S
Zn428  N472    2.017   .     S
Zn428  O432    1.960   .     S
Zn428  O430    1.989   .     S
O429   C433    1.285   .     A
O430   C433    1.284   .     A
O431   C434    1.296   .     A
O432   C434    1.292   .     A
C433   C459    1.415   .     S
C434   C439    1.450   .     S
C435   C450    1.393   .     A
C435   H978    1.084   1_554 S
C435   C986    1.405   1_554 S
H436   C450    1.083   .     S
H437   C447    1.084   .     S
H438   C975    1.084   .     S
C439   C450    1.398   .     A
C439   C449    1.388   .     A
C440   H453    1.083   .     S
C440   C441    1.386   .     A
C440   C451    1.402   .     A
C441   C982    1.391   .     S
C441   H995    1.083   .     S
C442   H454    1.078   .     S
C442   C981    1.391   1_554 S
C442   C983    1.421   1_554 S
C443   C444    1.411   .     A
C443   C982    1.421   .     S
C443   C985    1.415   .     S
C444   C451    1.414   .     A
C444   C448    1.425   .     A
C445   C449    1.392   .     A
C445   C983    1.415   1_554 S
C445   C986    1.419   1_554 S
C446   C447    1.390   .     A
C446   C975    1.405   .     S
C446   C985    1.419   .     S
C447   C448    1.396   .     A
C448   N478    1.438   .     S
C449   H452    1.078   .     S
H455   C981    1.083   1_554 S
C456   H457    1.084   .     S
C456   C464    1.393   .     A
C456   C98     1.374   1_565 S
C458   Cl473   1.763   .     S
C458   C459    1.405   .     A
C459   C460    1.397   .     A
C460   H461    1.084   .     S
C462   C464    1.392   .     A
C462   H463    1.084   .     S
C462   C100    1.371   1_565 S
C465   N472    1.361   .     A
C465   H466    1.080   .     S
C465   C527    1.418   .     S
C467   N468    1.375   .     A
C467   N474    1.426   .     S
N468   C469    1.361   .     A
C469   H470    1.082   .     S
C471   Cl477   1.754   .     S
C471   N472    1.376   .     A
C471   C529    1.416   .     S
N474   O476    1.300   .     A
N474   O475    1.300   .     A
N478   O479    1.302   .     A
N478   O480    1.302   .     A
O481   Zn487   1.989   .     S
O481   C483    1.283   .     A
O482   C483    1.284   .     A
O482   Zn488   1.991   .     S
C483   C524    1.409   .     S
O484   Zn487   1.960   .     S
O484   C486    1.293   .     A
O485   Zn488   1.910   .     S
O485   C486    1.297   .     A
C486   C511    1.459   .     S
Zn487  N528    2.017   .     S
Zn487  O491    1.910   .     S
Zn487  O489    1.991   .     S
Zn488  N532    2.017   .     S
Zn488  O492    1.960   .     S
Zn488  O490    1.989   .     S
O489   C493    1.285   .     A
O490   C493    1.284   .     A
O491   C494    1.296   .     A
O492   C494    1.292   .     A
C493   C519    1.415   .     S
C494   C499    1.450   .     S
C495   C510    1.393   .     A
C495   H1038   1.084   1_554 S
C495   C1046   1.405   1_554 S
H496   C510    1.083   .     S
H497   C507    1.084   .     S
H498   C1035   1.084   .     S
C499   C510    1.398   .     A
C499   C509    1.388   .     A
C500   H513    1.083   .     S
C500   C501    1.386   .     A
C500   C511    1.402   .     A
C501   C1042   1.391   .     S
C501   H1055   1.083   .     S
C502   H514    1.078   .     S
C502   C1041   1.391   1_554 S
C502   C1043   1.421   1_554 S
C503   C504    1.411   .     A
C503   C1042   1.421   .     S
C503   C1045   1.415   .     S
C504   C511    1.414   .     A
C504   C508    1.425   .     A
C505   C509    1.392   .     A
C505   C1043   1.415   1_554 S
C505   C1046   1.419   1_554 S
C506   C507    1.390   .     A
C506   C1035   1.405   .     S
C506   C1045   1.419   .     S
C507   C508    1.396   .     A
C508   N538    1.438   .     S
C509   H512    1.078   .     S
H515   C1041   1.083   1_554 S
C516   H517    1.084   .     S
C516   C524    1.393   .     A
C516   C158    1.374   1_565 S
C518   Cl533   1.763   .     S
C518   C519    1.405   .     A
C519   C520    1.397   .     A
C520   H521    1.084   .     S
C522   C524    1.392   .     A
C522   H523    1.084   .     S
C522   C160    1.371   1_565 S
C525   N532    1.361   .     A
C525   H526    1.080   .     S
C525   C407    1.418   1_655 S
C527   N528    1.375   .     A
C527   N534    1.426   .     S
N528   C529    1.361   .     A
C529   H530    1.082   .     S
C531   Cl537   1.754   .     S
C531   N532    1.376   .     A
C531   C409    1.416   1_655 S
N534   O536    1.300   .     A
N534   O535    1.300   .     A
N538   O539    1.302   .     A
N538   O540    1.302   .     A
O541   Zn547   1.989   .     S
O541   C543    1.283   .     A
O542   C543    1.284   .     A
O542   Zn548   1.991   .     S
C543   C584    1.409   .     S
O544   Zn547   1.960   .     S
O544   C546    1.293   .     A
O545   Zn548   1.910   .     S
O545   C546    1.297   .     A
C546   C571    1.459   .     S
Zn547  N588    2.017   .     S
Zn547  O551    1.910   .     S
Zn547  O549    1.991   .     S
Zn548  N592    2.017   .     S
Zn548  O552    1.960   .     S
Zn548  O550    1.989   .     S
O549   C553    1.285   .     A
O550   C553    1.284   .     A
O551   C554    1.296   .     A
O552   C554    1.292   .     A
C553   C579    1.415   .     S
C554   C559    1.450   .     S
C555   C570    1.393   .     A
H556   C570    1.083   .     S
H557   C567    1.084   .     S
H558   C15     1.084   1_556 S
C559   C570    1.398   .     A
C559   C569    1.388   .     A
C560   H573    1.083   .     S
C560   C561    1.386   .     A
C560   C571    1.402   .     A
C561   C22     1.391   1_556 S
C561   H35     1.083   1_556 S
C562   H574    1.078   .     S
C563   C564    1.411   .     A
C563   C22     1.421   1_556 S
C563   C25     1.415   1_556 S
C564   C571    1.414   .     A
C564   C568    1.425   .     A
C565   C569    1.392   .     A
C566   C567    1.390   .     A
C566   C15     1.405   1_556 S
C566   C25     1.419   1_556 S
C567   C568    1.396   .     A
C568   N598    1.438   .     S
C569   H572    1.078   .     S
C576   H577    1.084   .     S
C576   C584    1.393   .     A
C576   C758    1.374   .     S
C578   Cl593   1.763   .     S
C578   C579    1.405   .     A
C578   C936    1.374   1_545 S
C579   C580    1.397   .     A
C580   H581    1.084   .     S
C580   C942    1.371   1_545 S
C582   C584    1.392   .     A
C582   H583    1.084   .     S
C582   C760    1.371   .     S
C585   N592    1.361   .     A
C585   H586    1.080   .     S
C585   C647    1.418   .     S
C587   N588    1.375   .     A
C587   N594    1.426   .     S
C587   C705    1.418   1_455 S
N588   C589    1.361   .     A
C589   H590    1.082   .     S
C589   C711    1.416   1_455 S
C591   Cl597   1.754   .     S
C591   N592    1.376   .     A
C591   C649    1.416   .     S
N594   O596    1.300   .     A
N594   O595    1.300   .     A
N598   O599    1.302   .     A
N598   O600    1.302   .     A
O601   Zn607   1.989   .     S
O601   C603    1.283   .     A
O602   C603    1.284   .     A
O602   Zn608   1.991   .     S
C603   C644    1.409   .     S
O604   Zn607   1.960   .     S
O604   C606    1.293   .     A
O605   Zn608   1.910   .     S
O605   C606    1.297   .     A
C606   C631    1.459   .     S
Zn607  N648    2.017   .     S
Zn607  O611    1.910   .     S
Zn607  O609    1.991   .     S
Zn608  N652    2.017   .     S
Zn608  O612    1.960   .     S
Zn608  O610    1.989   .     S
O609   C613    1.285   .     A
O610   C613    1.284   .     A
O611   C614    1.296   .     A
O612   C614    1.292   .     A
C613   C639    1.415   .     S
C614   C619    1.450   .     S
C615   C630    1.393   .     A
H616   C630    1.083   .     S
H617   C627    1.084   .     S
H618   C75     1.084   1_556 S
C619   C630    1.398   .     A
C619   C629    1.388   .     A
C620   H633    1.083   .     S
C620   C621    1.386   .     A
C620   C631    1.402   .     A
C621   C82     1.391   1_556 S
C621   H95     1.083   1_556 S
C622   H634    1.078   .     S
C623   C624    1.411   .     A
C623   C82     1.421   1_556 S
C623   C85     1.415   1_556 S
C624   C631    1.414   .     A
C624   C628    1.425   .     A
C625   C629    1.392   .     A
C626   C627    1.390   .     A
C626   C75     1.405   1_556 S
C626   C85     1.419   1_556 S
C627   C628    1.396   .     A
C628   N658    1.438   .     S
C629   H632    1.078   .     S
C636   H637    1.084   .     S
C636   C644    1.393   .     A
C636   C818    1.374   .     S
C638   Cl653   1.763   .     S
C638   C639    1.405   .     A
C638   C996    1.374   1_545 S
C639   C640    1.397   .     A
C640   H641    1.084   .     S
C640   C1002   1.371   1_545 S
C642   C644    1.392   .     A
C642   H643    1.084   .     S
C642   C820    1.371   .     S
C645   N652    1.361   .     A
C645   H646    1.080   .     S
C645   C707    1.418   .     S
C647   N648    1.375   .     A
C647   N654    1.426   .     S
N648   C649    1.361   .     A
C649   H650    1.082   .     S
C651   Cl657   1.754   .     S
C651   N652    1.376   .     A
C651   C709    1.416   .     S
N654   O656    1.300   .     A
N654   O655    1.300   .     A
N658   O659    1.302   .     A
N658   O660    1.302   .     A
O661   Zn667   1.989   .     S
O661   C663    1.283   .     A
O662   C663    1.284   .     A
O662   Zn668   1.991   .     S
C663   C704    1.409   .     S
O664   Zn667   1.960   .     S
O664   C666    1.293   .     A
O665   Zn668   1.910   .     S
O665   C666    1.297   .     A
C666   C691    1.459   .     S
Zn667  N708    2.017   .     S
Zn667  O671    1.910   .     S
Zn667  O669    1.991   .     S
Zn668  N712    2.017   .     S
Zn668  O672    1.960   .     S
Zn668  O670    1.989   .     S
O669   C673    1.285   .     A
O670   C673    1.284   .     A
O671   C674    1.296   .     A
O672   C674    1.292   .     A
C673   C699    1.415   .     S
C674   C679    1.450   .     S
C675   C690    1.393   .     A
H676   C690    1.083   .     S
H677   C687    1.084   .     S
H678   C135    1.084   1_556 S
C679   C690    1.398   .     A
C679   C689    1.388   .     A
C680   H693    1.083   .     S
C680   C681    1.386   .     A
C680   C691    1.402   .     A
C681   C142    1.391   1_556 S
C681   H155    1.083   1_556 S
C682   H694    1.078   .     S
C683   C684    1.411   .     A
C683   C142    1.421   1_556 S
C683   C145    1.415   1_556 S
C684   C691    1.414   .     A
C684   C688    1.425   .     A
C685   C689    1.392   .     A
C686   C687    1.390   .     A
C686   C135    1.405   1_556 S
C686   C145    1.419   1_556 S
C687   C688    1.396   .     A
C688   N718    1.438   .     S
C689   H692    1.078   .     S
C696   H697    1.084   .     S
C696   C704    1.393   .     A
C696   C878    1.374   .     S
C698   Cl713   1.763   .     S
C698   C699    1.405   .     A
C698   C1056   1.374   1_545 S
C699   C700    1.397   .     A
C700   H701    1.084   .     S
C700   C1062   1.371   1_545 S
C702   C704    1.392   .     A
C702   H703    1.084   .     S
C702   C880    1.371   .     S
C705   N712    1.361   .     A
C705   H706    1.080   .     S
C705   C587    1.418   1_655 S
C707   N708    1.375   .     A
C707   N714    1.426   .     S
N708   C709    1.361   .     A
C709   H710    1.082   .     S
C711   Cl717   1.754   .     S
C711   N712    1.376   .     A
C711   C589    1.416   1_655 S
N714   O716    1.300   .     A
N714   O715    1.300   .     A
N718   O719    1.302   .     A
N718   O720    1.302   .     A
O721   Zn727   1.989   .     S
O721   C723    1.283   .     A
O722   C723    1.284   .     A
O722   Zn728   1.991   .     S
C723   C764    1.409   .     S
O724   Zn727   1.960   .     S
O724   C726    1.293   .     A
O725   Zn728   1.910   .     S
O725   C726    1.297   .     A
C726   C751    1.459   .     S
Zn727  N768    2.017   .     S
Zn727  O731    1.910   .     S
Zn727  O729    1.991   .     S
Zn728  N772    2.017   .     S
Zn728  O732    1.960   .     S
Zn728  O730    1.989   .     S
O729   C733    1.285   .     A
O730   C733    1.284   .     A
O731   C734    1.296   .     A
O732   C734    1.292   .     A
C733   C759    1.415   .     S
C734   C739    1.450   .     S
C735   C750    1.393   .     A
H736   C750    1.083   .     S
H737   C747    1.084   .     S
H738   C195    1.084   1_556 S
C739   C750    1.398   .     A
C739   C749    1.388   .     A
C740   H753    1.083   .     S
C740   C741    1.386   .     A
C740   C751    1.402   .     A
C741   C202    1.391   1_556 S
C741   H215    1.083   1_556 S
C742   H754    1.078   .     S
C743   C744    1.411   .     A
C743   C202    1.421   1_556 S
C743   C205    1.415   1_556 S
C744   C751    1.414   .     A
C744   C748    1.425   .     A
C745   C749    1.392   .     A
C746   C747    1.390   .     A
C746   C195    1.405   1_556 S
C746   C205    1.419   1_556 S
C747   C748    1.396   .     A
C748   N778    1.438   .     S
C749   H752    1.078   .     S
C756   H757    1.084   .     S
C756   C764    1.393   .     A
C756   C938    1.374   .     S
C758   Cl773   1.763   .     S
C758   C759    1.405   .     A
C759   C760    1.397   .     A
C760   H761    1.084   .     S
C762   C764    1.392   .     A
C762   H763    1.084   .     S
C762   C940    1.371   .     S
C765   N772    1.361   .     A
C765   H766    1.080   .     S
C765   C827    1.418   .     S
C767   N768    1.375   .     A
C767   N774    1.426   .     S
C767   C885    1.418   1_455 S
N768   C769    1.361   .     A
C769   H770    1.082   .     S
C769   C891    1.416   1_455 S
C771   Cl777   1.754   .     S
C771   N772    1.376   .     A
C771   C829    1.416   .     S
N774   O776    1.300   .     A
N774   O775    1.300   .     A
N778   O779    1.302   .     A
N778   O780    1.302   .     A
O781   Zn787   1.989   .     S
O781   C783    1.283   .     A
O782   C783    1.284   .     A
O782   Zn788   1.991   .     S
C783   C824    1.409   .     S
O784   Zn787   1.960   .     S
O784   C786    1.293   .     A
O785   Zn788   1.910   .     S
O785   C786    1.297   .     A
C786   C811    1.459   .     S
Zn787  N828    2.017   .     S
Zn787  O791    1.910   .     S
Zn787  O789    1.991   .     S
Zn788  N832    2.017   .     S
Zn788  O792    1.960   .     S
Zn788  O790    1.989   .     S
O789   C793    1.285   .     A
O790   C793    1.284   .     A
O791   C794    1.296   .     A
O792   C794    1.292   .     A
C793   C819    1.415   .     S
C794   C799    1.450   .     S
C795   C810    1.393   .     A
H796   C810    1.083   .     S
H797   C807    1.084   .     S
H798   C255    1.084   1_556 S
C799   C810    1.398   .     A
C799   C809    1.388   .     A
C800   H813    1.083   .     S
C800   C801    1.386   .     A
C800   C811    1.402   .     A
C801   C262    1.391   1_556 S
C801   H275    1.083   1_556 S
C802   H814    1.078   .     S
C803   C804    1.411   .     A
C803   C262    1.421   1_556 S
C803   C265    1.415   1_556 S
C804   C811    1.414   .     A
C804   C808    1.425   .     A
C805   C809    1.392   .     A
C806   C807    1.390   .     A
C806   C255    1.405   1_556 S
C806   C265    1.419   1_556 S
C807   C808    1.396   .     A
C808   N838    1.438   .     S
C809   H812    1.078   .     S
C816   H817    1.084   .     S
C816   C824    1.393   .     A
C816   C998    1.374   .     S
C818   Cl833   1.763   .     S
C818   C819    1.405   .     A
C819   C820    1.397   .     A
C820   H821    1.084   .     S
C822   C824    1.392   .     A
C822   H823    1.084   .     S
C822   C1000   1.371   .     S
C825   N832    1.361   .     A
C825   H826    1.080   .     S
C825   C887    1.418   .     S
C827   N828    1.375   .     A
C827   N834    1.426   .     S
N828   C829    1.361   .     A
C829   H830    1.082   .     S
C831   Cl837   1.754   .     S
C831   N832    1.376   .     A
C831   C889    1.416   .     S
N834   O836    1.300   .     A
N834   O835    1.300   .     A
N838   O839    1.302   .     A
N838   O840    1.302   .     A
O841   Zn847   1.989   .     S
O841   C843    1.283   .     A
O842   C843    1.284   .     A
O842   Zn848   1.991   .     S
C843   C884    1.409   .     S
O844   Zn847   1.960   .     S
O844   C846    1.293   .     A
O845   Zn848   1.910   .     S
O845   C846    1.297   .     A
C846   C871    1.459   .     S
Zn847  N888    2.017   .     S
Zn847  O851    1.910   .     S
Zn847  O849    1.991   .     S
Zn848  N892    2.017   .     S
Zn848  O852    1.960   .     S
Zn848  O850    1.989   .     S
O849   C853    1.285   .     A
O850   C853    1.284   .     A
O851   C854    1.296   .     A
O852   C854    1.292   .     A
C853   C879    1.415   .     S
C854   C859    1.450   .     S
C855   C870    1.393   .     A
H856   C870    1.083   .     S
H857   C867    1.084   .     S
H858   C315    1.084   1_556 S
C859   C870    1.398   .     A
C859   C869    1.388   .     A
C860   H873    1.083   .     S
C860   C861    1.386   .     A
C860   C871    1.402   .     A
C861   C322    1.391   1_556 S
C861   H335    1.083   1_556 S
C862   H874    1.078   .     S
C863   C864    1.411   .     A
C863   C322    1.421   1_556 S
C863   C325    1.415   1_556 S
C864   C871    1.414   .     A
C864   C868    1.425   .     A
C865   C869    1.392   .     A
C866   C867    1.390   .     A
C866   C315    1.405   1_556 S
C866   C325    1.419   1_556 S
C867   C868    1.396   .     A
C868   N898    1.438   .     S
C869   H872    1.078   .     S
C876   H877    1.084   .     S
C876   C884    1.393   .     A
C876   C1058   1.374   .     S
C878   Cl893   1.763   .     S
C878   C879    1.405   .     A
C879   C880    1.397   .     A
C880   H881    1.084   .     S
C882   C884    1.392   .     A
C882   H883    1.084   .     S
C882   C1060   1.371   .     S
C885   N892    1.361   .     A
C885   H886    1.080   .     S
C885   C767    1.418   1_655 S
C887   N888    1.375   .     A
C887   N894    1.426   .     S
N888   C889    1.361   .     A
C889   H890    1.082   .     S
C891   Cl897   1.754   .     S
C891   N892    1.376   .     A
C891   C769    1.416   1_655 S
N894   O896    1.300   .     A
N894   O895    1.300   .     A
N898   O899    1.302   .     A
N898   O900    1.302   .     A
O901   Zn907   1.989   .     S
O901   C903    1.283   .     A
O902   C903    1.284   .     A
O902   Zn908   1.991   .     S
C903   C944    1.409   .     S
O904   Zn907   1.960   .     S
O904   C906    1.293   .     A
O905   Zn908   1.910   .     S
O905   C906    1.297   .     A
C906   C931    1.459   .     S
Zn907  N948    2.017   .     S
Zn907  O911    1.910   .     S
Zn907  O909    1.991   .     S
Zn908  N952    2.017   .     S
Zn908  O912    1.960   .     S
Zn908  O910    1.989   .     S
O909   C913    1.285   .     A
O910   C913    1.284   .     A
O911   C914    1.296   .     A
O912   C914    1.292   .     A
C913   C939    1.415   .     S
C914   C919    1.450   .     S
C915   C930    1.393   .     A
H916   C930    1.083   .     S
H917   C927    1.084   .     S
H918   C375    1.084   1_556 S
C919   C930    1.398   .     A
C919   C929    1.388   .     A
C920   H933    1.083   .     S
C920   C921    1.386   .     A
C920   C931    1.402   .     A
C921   C382    1.391   1_556 S
C921   H395    1.083   1_556 S
C922   H934    1.078   .     S
C923   C924    1.411   .     A
C923   C382    1.421   1_556 S
C923   C385    1.415   1_556 S
C924   C931    1.414   .     A
C924   C928    1.425   .     A
C925   C929    1.392   .     A
C926   C927    1.390   .     A
C926   C375    1.405   1_556 S
C926   C385    1.419   1_556 S
C927   C928    1.396   .     A
C928   N958    1.438   .     S
C929   H932    1.078   .     S
C936   H937    1.084   .     S
C936   C944    1.393   .     A
C936   C578    1.374   1_565 S
C938   Cl953   1.763   .     S
C938   C939    1.405   .     A
C939   C940    1.397   .     A
C940   H941    1.084   .     S
C942   C944    1.392   .     A
C942   H943    1.084   .     S
C942   C580    1.371   1_565 S
C945   N952    1.361   .     A
C945   H946    1.080   .     S
C945   C1007   1.418   .     S
C947   N948    1.375   .     A
C947   N954    1.426   .     S
C947   C1065   1.418   1_455 S
N948   C949    1.361   .     A
C949   H950    1.082   .     S
C949   C1071   1.416   1_455 S
C951   Cl957   1.754   .     S
C951   N952    1.376   .     A
C951   C1009   1.416   .     S
N954   O956    1.300   .     A
N954   O955    1.300   .     A
N958   O959    1.302   .     A
N958   O960    1.302   .     A
O961   Zn967   1.989   .     S
O961   C963    1.283   .     A
O962   C963    1.284   .     A
O962   Zn968   1.991   .     S
C963   C1004   1.409   .     S
O964   Zn967   1.960   .     S
O964   C966    1.293   .     A
O965   Zn968   1.910   .     S
O965   C966    1.297   .     A
C966   C991    1.459   .     S
Zn967  N1008   2.017   .     S
Zn967  O971    1.910   .     S
Zn967  O969    1.991   .     S
Zn968  N1012   2.017   .     S
Zn968  O972    1.960   .     S
Zn968  O970    1.989   .     S
O969   C973    1.285   .     A
O970   C973    1.284   .     A
O971   C974    1.296   .     A
O972   C974    1.292   .     A
C973   C999    1.415   .     S
C974   C979    1.450   .     S
C975   C990    1.393   .     A
H976   C990    1.083   .     S
H977   C987    1.084   .     S
H978   C435    1.084   1_556 S
C979   C990    1.398   .     A
C979   C989    1.388   .     A
C980   H993    1.083   .     S
C980   C981    1.386   .     A
C980   C991    1.402   .     A
C981   C442    1.391   1_556 S
C981   H455    1.083   1_556 S
C982   H994    1.078   .     S
C983   C984    1.411   .     A
C983   C442    1.421   1_556 S
C983   C445    1.415   1_556 S
C984   C991    1.414   .     A
C984   C988    1.425   .     A
C985   C989    1.392   .     A
C986   C987    1.390   .     A
C986   C435    1.405   1_556 S
C986   C445    1.419   1_556 S
C987   C988    1.396   .     A
C988   N1018   1.438   .     S
C989   H992    1.078   .     S
C996   H997    1.084   .     S
C996   C1004   1.393   .     A
C996   C638    1.374   1_565 S
C998   Cl1013  1.763   .     S
C998   C999    1.405   .     A
C999   C1000   1.397   .     A
C1000  H1001   1.084   .     S
C1002  C1004   1.392   .     A
C1002  H1003   1.084   .     S
C1002  C640    1.371   1_565 S
C1005  N1012   1.361   .     A
C1005  H1006   1.080   .     S
C1005  C1067   1.418   .     S
C1007  N1008   1.375   .     A
C1007  N1014   1.426   .     S
N1008  C1009   1.361   .     A
C1009  H1010   1.082   .     S
C1011  Cl1017  1.754   .     S
C1011  N1012   1.376   .     A
C1011  C1069   1.416   .     S
N1014  O1016   1.300   .     A
N1014  O1015   1.300   .     A
N1018  O1019   1.302   .     A
N1018  O1020   1.302   .     A
O1021  Zn1027  1.989   .     S
O1021  C1023   1.283   .     A
O1022  C1023   1.284   .     A
O1022  Zn1028  1.991   .     S
C1023  C1064   1.409   .     S
O1024  Zn1027  1.960   .     S
O1024  C1026   1.293   .     A
O1025  Zn1028  1.910   .     S
O1025  C1026   1.297   .     A
C1026  C1051   1.459   .     S
Zn1027 N1068   2.017   .     S
Zn1027 O1031   1.910   .     S
Zn1027 O1029   1.991   .     S
Zn1028 N1072   2.017   .     S
Zn1028 O1032   1.960   .     S
Zn1028 O1030   1.989   .     S
O1029  C1033   1.285   .     A
O1030  C1033   1.284   .     A
O1031  C1034   1.296   .     A
O1032  C1034   1.292   .     A
C1033  C1059   1.415   .     S
C1034  C1039   1.450   .     S
C1035  C1050   1.393   .     A
H1036  C1050   1.083   .     S
H1037  C1047   1.084   .     S
H1038  C495    1.084   1_556 S
C1039  C1050   1.398   .     A
C1039  C1049   1.388   .     A
C1040  H1053   1.083   .     S
C1040  C1041   1.386   .     A
C1040  C1051   1.402   .     A
C1041  C502    1.391   1_556 S
C1041  H515    1.083   1_556 S
C1042  H1054   1.078   .     S
C1043  C1044   1.411   .     A
C1043  C502    1.421   1_556 S
C1043  C505    1.415   1_556 S
C1044  C1051   1.414   .     A
C1044  C1048   1.425   .     A
C1045  C1049   1.392   .     A
C1046  C1047   1.390   .     A
C1046  C495    1.405   1_556 S
C1046  C505    1.419   1_556 S
C1047  C1048   1.396   .     A
C1048  N1078   1.438   .     S
C1049  H1052   1.078   .     S
C1056  H1057   1.084   .     S
C1056  C1064   1.393   .     A
C1056  C698    1.374   1_565 S
C1058  Cl1073  1.763   .     S
C1058  C1059   1.405   .     A
C1059  C1060   1.397   .     A
C1060  H1061   1.084   .     S
C1062  C1064   1.392   .     A
C1062  H1063   1.084   .     S
C1062  C700    1.371   1_565 S
C1065  N1072   1.361   .     A
C1065  H1066   1.080   .     S
C1065  C947    1.418   1_655 S
C1067  N1068   1.375   .     A
C1067  N1074   1.426   .     S
N1068  C1069   1.361   .     A
C1069  H1070   1.082   .     S
C1071  Cl1077  1.754   .     S
C1071  N1072   1.376   .     A
C1071  C949    1.416   1_655 S
N1074  O1076   1.300   .     A
N1074  O1075   1.300   .     A
N1078  O1079   1.302   .     A
N1078  O1080   1.302   .     A
