data_str_m2_o2_o10_pcu_sym.195
_audit_creation_date              2020-01-03
_audit_creation_method            'Materials Studio'
_symmetry_space_group_name_H-M    'P1'
_symmetry_Int_Tables_number       1
_symmetry_cell_setting            triclinic
loop_
_symmetry_equiv_pos_as_xyz
  x,y,z
_cell_length_a                    26.3290
_cell_length_b                    30.2395
_cell_length_c                    27.7865
_cell_angle_alpha                 89.6481
_cell_angle_beta                  97.6263
_cell_angle_gamma                 90.4362
loop_
_atom_site_label
_atom_site_type_symbol
_atom_site_fract_x
_atom_site_fract_y
_atom_site_fract_z
_atom_site_U_iso_or_equiv
_atom_site_adp_type
_atom_site_occupancy
C1     C     0.16659   0.16496   0.25010   0.00000  Uiso   1.00
C2     C     0.16666   0.33504   0.24988   0.00000  Uiso   1.00
C3     C     0.18121   0.28708   0.05481   0.00000  Uiso   1.00
C4     C     0.12703   0.22972   0.44135   0.00000  Uiso   1.00
C5     C     0.18208   0.28657   0.10553   0.00000  Uiso   1.00
C6     C     0.12808   0.22945   0.39085   0.00000  Uiso   1.00
C7     C     0.15250   0.21270   0.10327   0.00000  Uiso   1.00
C8     C     0.20637   0.26899   0.40009   0.00000  Uiso   1.00
C9     C     0.15382   0.21104   0.05276   0.00000  Uiso   1.00
C10    C     0.20830   0.26789   0.45099   0.00000  Uiso   1.00
C11    C     0.16762   0.24886   0.02726   0.00000  Uiso   1.00
C12    C     0.16773   0.24874   0.47272   0.00000  Uiso   1.00
C13    C     0.06805   0.25005   0.23771   0.00000  Uiso   1.00
C14    C     0.26526   0.25036   0.26227   0.00000  Uiso   1.00
C15    C     0.01308   0.24929   0.23084   0.00000  Uiso   1.00
C16    C     0.32018   0.25183   0.26906   0.00000  Uiso   1.00
C17    C     0.14589   0.04736   0.28742   0.00000  Uiso   1.00
C18    C     0.14589   0.45237   0.20729   0.00000  Uiso   1.00
C19    C     0.14709   0.09336   0.28774   0.00000  Uiso   1.00
C20    C     0.14713   0.40639   0.20730   0.00000  Uiso   1.00
C21    C     0.16622   0.11671   0.25023   0.00000  Uiso   1.00
C22    C     0.16634   0.38329   0.24962   0.00000  Uiso   1.00
C23    C     0.18462   0.09368   0.21256   0.00000  Uiso   1.00
C24    C     0.18486   0.40656   0.29186   0.00000  Uiso   1.00
C25    C     0.18433   0.04773   0.21263   0.00000  Uiso   1.00
C26    C     0.18452   0.45251   0.29169   0.00000  Uiso   1.00
C27    C     0.16473   0.02425   0.24985   0.00000  Uiso   1.00
C28    C     0.16479   0.47573   0.24957   0.00000  Uiso   1.00
Cu29   Cu    0.16667   0.25000   0.29822   0.00000  Uiso   1.00
Cu30   Cu    0.16667   0.25001   0.20179   0.00000  Uiso   1.00
N31    N     0.16667   0.25001   0.12935   0.00000  Uiso   1.00
N32    N     0.16667   0.24999   0.37066   0.00000  Uiso   1.00
O33    O     0.16667   0.18573   0.29072   0.00000  Uiso   1.00
O34    O     0.16666   0.31428   0.20929   0.00000  Uiso   1.00
O35    O     0.16667   0.18573   0.20928   0.00000  Uiso   1.00
O36    O     0.16666   0.31427   0.29072   0.00000  Uiso   1.00
O37    O     0.09161   0.25000   0.28132   0.00000  Uiso   1.00
O38    O     0.24172   0.25001   0.21868   0.00000  Uiso   1.00
O39    O     0.09161   0.25000   0.19989   0.00000  Uiso   1.00
O40    O     0.24172   0.25000   0.30012   0.00000  Uiso   1.00
F41    F     0.32267   0.24521   0.18439   0.00000  Uiso   1.00
F42    F     0.01049   0.25669   0.31540   0.00000  Uiso   1.00
F43    F     0.12529   0.02552   0.32312   0.00000  Uiso   1.00
F44    F     0.12519   0.47393   0.16643   0.00000  Uiso   1.00
H45    H     0.13218   0.11071   0.31680   0.00000  Uiso   1.00
H46    H     0.13216   0.38884   0.17453   0.00000  Uiso   1.00
H47    H     0.19991   0.11119   0.18346   0.00000  Uiso   1.00
H48    H     0.20026   0.38926   0.32478   0.00000  Uiso   1.00
H49    H     0.19985   0.03049   0.18386   0.00000  Uiso   1.00
H50    H     0.20010   0.46996   0.32433   0.00000  Uiso   1.00
F51    F     0.19277   0.32542   0.03288   0.00000  Uiso   1.00
F52    F     0.08566   0.21216   0.45908   0.00000  Uiso   1.00
F53    F     0.19945   0.32318   0.13039   0.00000  Uiso   1.00
F54    F     0.09047   0.20763   0.36233   0.00000  Uiso   1.00
H55    H     0.14071   0.18345   0.12145   0.00000  Uiso   1.00
H56    H     0.23742   0.28447   0.38424   0.00000  Uiso   1.00
F57    F     0.14304   0.17210   0.02949   0.00000  Uiso   1.00
F58    F     0.25048   0.28438   0.47862   0.00000  Uiso   1.00
C59    C     0.49993   0.16496   0.25010   0.00000  Uiso   1.00
C60    C     0.50000   0.33504   0.24988   0.00000  Uiso   1.00
C61    C     0.51455   0.28708   0.05481   0.00000  Uiso   1.00
C62    C     0.46036   0.22972   0.44135   0.00000  Uiso   1.00
C63    C     0.51542   0.28657   0.10553   0.00000  Uiso   1.00
C64    C     0.46142   0.22945   0.39085   0.00000  Uiso   1.00
C65    C     0.48583   0.21270   0.10327   0.00000  Uiso   1.00
C66    C     0.53970   0.26899   0.40009   0.00000  Uiso   1.00
C67    C     0.48716   0.21104   0.05276   0.00000  Uiso   1.00
C68    C     0.54163   0.26789   0.45099   0.00000  Uiso   1.00
C69    C     0.50096   0.24886   0.02726   0.00000  Uiso   1.00
C70    C     0.50107   0.24874   0.47272   0.00000  Uiso   1.00
C71    C     0.40139   0.25005   0.23771   0.00000  Uiso   1.00
C72    C     0.59859   0.25036   0.26227   0.00000  Uiso   1.00
C73    C     0.34642   0.24929   0.23084   0.00000  Uiso   1.00
C74    C     0.65352   0.25183   0.26906   0.00000  Uiso   1.00
C75    C     0.47922   0.04736   0.28742   0.00000  Uiso   1.00
C76    C     0.47923   0.45237   0.20729   0.00000  Uiso   1.00
C77    C     0.48042   0.09336   0.28774   0.00000  Uiso   1.00
C78    C     0.48046   0.40639   0.20730   0.00000  Uiso   1.00
C79    C     0.49956   0.11671   0.25023   0.00000  Uiso   1.00
C80    C     0.49968   0.38329   0.24962   0.00000  Uiso   1.00
C81    C     0.51795   0.09368   0.21256   0.00000  Uiso   1.00
C82    C     0.51819   0.40656   0.29186   0.00000  Uiso   1.00
C83    C     0.51766   0.04773   0.21263   0.00000  Uiso   1.00
C84    C     0.51786   0.45251   0.29169   0.00000  Uiso   1.00
C85    C     0.49807   0.02425   0.24985   0.00000  Uiso   1.00
C86    C     0.49812   0.47573   0.24957   0.00000  Uiso   1.00
Cu87   Cu    0.50000   0.25000   0.29822   0.00000  Uiso   1.00
Cu88   Cu    0.50000   0.25001   0.20179   0.00000  Uiso   1.00
N89    N     0.50000   0.25001   0.12935   0.00000  Uiso   1.00
N90    N     0.50000   0.24999   0.37066   0.00000  Uiso   1.00
O91    O     0.50000   0.18573   0.29072   0.00000  Uiso   1.00
O92    O     0.50000   0.31428   0.20929   0.00000  Uiso   1.00
O93    O     0.50000   0.18573   0.20928   0.00000  Uiso   1.00
O94    O     0.50000   0.31427   0.29072   0.00000  Uiso   1.00
O95    O     0.42495   0.25000   0.28132   0.00000  Uiso   1.00
O96    O     0.57505   0.25001   0.21868   0.00000  Uiso   1.00
O97    O     0.42495   0.25000   0.19989   0.00000  Uiso   1.00
O98    O     0.57505   0.25000   0.30012   0.00000  Uiso   1.00
F99    F     0.65601   0.24521   0.18439   0.00000  Uiso   1.00
F100   F     0.34382   0.25669   0.31540   0.00000  Uiso   1.00
F101   F     0.45862   0.02552   0.32312   0.00000  Uiso   1.00
F102   F     0.45852   0.47393   0.16643   0.00000  Uiso   1.00
H103   H     0.46551   0.11071   0.31680   0.00000  Uiso   1.00
H104   H     0.46549   0.38884   0.17453   0.00000  Uiso   1.00
H105   H     0.53324   0.11119   0.18346   0.00000  Uiso   1.00
H106   H     0.53359   0.38926   0.32478   0.00000  Uiso   1.00
H107   H     0.53319   0.03049   0.18386   0.00000  Uiso   1.00
H108   H     0.53344   0.46996   0.32433   0.00000  Uiso   1.00
F109   F     0.52610   0.32542   0.03288   0.00000  Uiso   1.00
F110   F     0.41899   0.21216   0.45908   0.00000  Uiso   1.00
F111   F     0.53278   0.32318   0.13039   0.00000  Uiso   1.00
F112   F     0.42380   0.20763   0.36233   0.00000  Uiso   1.00
H113   H     0.47404   0.18345   0.12145   0.00000  Uiso   1.00
H114   H     0.57075   0.28447   0.38424   0.00000  Uiso   1.00
F115   F     0.47637   0.17210   0.02949   0.00000  Uiso   1.00
F116   F     0.58381   0.28438   0.47862   0.00000  Uiso   1.00
C117   C     0.83326   0.16496   0.25010   0.00000  Uiso   1.00
C118   C     0.83333   0.33504   0.24988   0.00000  Uiso   1.00
C119   C     0.84788   0.28708   0.05481   0.00000  Uiso   1.00
C120   C     0.79370   0.22972   0.44135   0.00000  Uiso   1.00
C121   C     0.84875   0.28657   0.10553   0.00000  Uiso   1.00
C122   C     0.79475   0.22945   0.39085   0.00000  Uiso   1.00
C123   C     0.81916   0.21270   0.10327   0.00000  Uiso   1.00
C124   C     0.87303   0.26899   0.40009   0.00000  Uiso   1.00
C125   C     0.82049   0.21104   0.05276   0.00000  Uiso   1.00
C126   C     0.87497   0.26789   0.45099   0.00000  Uiso   1.00
C127   C     0.83429   0.24886   0.02726   0.00000  Uiso   1.00
C128   C     0.83440   0.24874   0.47272   0.00000  Uiso   1.00
C129   C     0.73472   0.25005   0.23771   0.00000  Uiso   1.00
C130   C     0.93193   0.25036   0.26227   0.00000  Uiso   1.00
C131   C     0.67975   0.24929   0.23084   0.00000  Uiso   1.00
C132   C     0.98685   0.25183   0.26906   0.00000  Uiso   1.00
C133   C     0.81255   0.04736   0.28742   0.00000  Uiso   1.00
C134   C     0.81256   0.45237   0.20729   0.00000  Uiso   1.00
C135   C     0.81375   0.09336   0.28774   0.00000  Uiso   1.00
C136   C     0.81379   0.40639   0.20730   0.00000  Uiso   1.00
C137   C     0.83289   0.11671   0.25023   0.00000  Uiso   1.00
C138   C     0.83301   0.38329   0.24962   0.00000  Uiso   1.00
C139   C     0.85129   0.09368   0.21256   0.00000  Uiso   1.00
C140   C     0.85153   0.40656   0.29186   0.00000  Uiso   1.00
C141   C     0.85100   0.04773   0.21263   0.00000  Uiso   1.00
C142   C     0.85119   0.45251   0.29169   0.00000  Uiso   1.00
C143   C     0.83140   0.02425   0.24985   0.00000  Uiso   1.00
C144   C     0.83145   0.47573   0.24957   0.00000  Uiso   1.00
Cu145  Cu    0.83333   0.25000   0.29822   0.00000  Uiso   1.00
Cu146  Cu    0.83333   0.25001   0.20179   0.00000  Uiso   1.00
N147   N     0.83333   0.25001   0.12935   0.00000  Uiso   1.00
N148   N     0.83333   0.24999   0.37066   0.00000  Uiso   1.00
O149   O     0.83334   0.18573   0.29072   0.00000  Uiso   1.00
O150   O     0.83333   0.31428   0.20929   0.00000  Uiso   1.00
O151   O     0.83334   0.18573   0.20928   0.00000  Uiso   1.00
O152   O     0.83333   0.31427   0.29072   0.00000  Uiso   1.00
O153   O     0.75828   0.25000   0.28132   0.00000  Uiso   1.00
O154   O     0.90839   0.25001   0.21868   0.00000  Uiso   1.00
O155   O     0.75828   0.25000   0.19989   0.00000  Uiso   1.00
O156   O     0.90839   0.25000   0.30012   0.00000  Uiso   1.00
F157   F     0.98934   0.24521   0.18439   0.00000  Uiso   1.00
F158   F     0.67715   0.25669   0.31540   0.00000  Uiso   1.00
F159   F     0.79195   0.02552   0.32312   0.00000  Uiso   1.00
F160   F     0.79185   0.47393   0.16643   0.00000  Uiso   1.00
H161   H     0.79884   0.11071   0.31680   0.00000  Uiso   1.00
H162   H     0.79882   0.38884   0.17453   0.00000  Uiso   1.00
H163   H     0.86657   0.11119   0.18346   0.00000  Uiso   1.00
H164   H     0.86692   0.38926   0.32478   0.00000  Uiso   1.00
H165   H     0.86652   0.03049   0.18386   0.00000  Uiso   1.00
H166   H     0.86677   0.46996   0.32433   0.00000  Uiso   1.00
F167   F     0.85944   0.32542   0.03288   0.00000  Uiso   1.00
F168   F     0.75232   0.21216   0.45908   0.00000  Uiso   1.00
F169   F     0.86612   0.32318   0.13039   0.00000  Uiso   1.00
F170   F     0.75714   0.20763   0.36233   0.00000  Uiso   1.00
H171   H     0.80737   0.18345   0.12145   0.00000  Uiso   1.00
H172   H     0.90409   0.28447   0.38424   0.00000  Uiso   1.00
F173   F     0.80970   0.17210   0.02949   0.00000  Uiso   1.00
F174   F     0.91714   0.28438   0.47862   0.00000  Uiso   1.00
C175   C     0.16659   0.66496   0.25010   0.00000  Uiso   1.00
C176   C     0.16666   0.83504   0.24988   0.00000  Uiso   1.00
C177   C     0.18121   0.78708   0.05481   0.00000  Uiso   1.00
C178   C     0.12703   0.72972   0.44135   0.00000  Uiso   1.00
C179   C     0.18208   0.78657   0.10553   0.00000  Uiso   1.00
C180   C     0.12808   0.72945   0.39085   0.00000  Uiso   1.00
C181   C     0.15250   0.71270   0.10327   0.00000  Uiso   1.00
C182   C     0.20637   0.76899   0.40009   0.00000  Uiso   1.00
C183   C     0.15382   0.71104   0.05276   0.00000  Uiso   1.00
C184   C     0.20830   0.76789   0.45099   0.00000  Uiso   1.00
C185   C     0.16762   0.74886   0.02726   0.00000  Uiso   1.00
C186   C     0.16773   0.74874   0.47272   0.00000  Uiso   1.00
C187   C     0.06805   0.75005   0.23771   0.00000  Uiso   1.00
C188   C     0.26526   0.75036   0.26227   0.00000  Uiso   1.00
C189   C     0.01308   0.74929   0.23084   0.00000  Uiso   1.00
C190   C     0.32018   0.75183   0.26906   0.00000  Uiso   1.00
C191   C     0.14589   0.54736   0.28742   0.00000  Uiso   1.00
C192   C     0.14589   0.95237   0.20729   0.00000  Uiso   1.00
C193   C     0.14709   0.59336   0.28774   0.00000  Uiso   1.00
C194   C     0.14713   0.90639   0.20730   0.00000  Uiso   1.00
C195   C     0.16622   0.61671   0.25023   0.00000  Uiso   1.00
C196   C     0.16634   0.88329   0.24962   0.00000  Uiso   1.00
C197   C     0.18462   0.59368   0.21256   0.00000  Uiso   1.00
C198   C     0.18486   0.90656   0.29186   0.00000  Uiso   1.00
C199   C     0.18433   0.54773   0.21263   0.00000  Uiso   1.00
C200   C     0.18452   0.95251   0.29169   0.00000  Uiso   1.00
C201   C     0.16473   0.52425   0.24985   0.00000  Uiso   1.00
C202   C     0.16479   0.97573   0.24957   0.00000  Uiso   1.00
Cu203  Cu    0.16667   0.75000   0.29822   0.00000  Uiso   1.00
Cu204  Cu    0.16667   0.75001   0.20179   0.00000  Uiso   1.00
N205   N     0.16667   0.75001   0.12935   0.00000  Uiso   1.00
N206   N     0.16667   0.74999   0.37066   0.00000  Uiso   1.00
O207   O     0.16667   0.68573   0.29072   0.00000  Uiso   1.00
O208   O     0.16666   0.81428   0.20929   0.00000  Uiso   1.00
O209   O     0.16667   0.68573   0.20928   0.00000  Uiso   1.00
O210   O     0.16666   0.81427   0.29072   0.00000  Uiso   1.00
O211   O     0.09161   0.75000   0.28132   0.00000  Uiso   1.00
O212   O     0.24172   0.75001   0.21868   0.00000  Uiso   1.00
O213   O     0.09161   0.75000   0.19989   0.00000  Uiso   1.00
O214   O     0.24172   0.75000   0.30012   0.00000  Uiso   1.00
F215   F     0.32267   0.74521   0.18439   0.00000  Uiso   1.00
F216   F     0.01049   0.75669   0.31540   0.00000  Uiso   1.00
F217   F     0.12529   0.52552   0.32312   0.00000  Uiso   1.00
F218   F     0.12519   0.97393   0.16643   0.00000  Uiso   1.00
H219   H     0.13218   0.61071   0.31680   0.00000  Uiso   1.00
H220   H     0.13216   0.88884   0.17453   0.00000  Uiso   1.00
H221   H     0.19991   0.61119   0.18346   0.00000  Uiso   1.00
H222   H     0.20026   0.88926   0.32478   0.00000  Uiso   1.00
H223   H     0.19985   0.53049   0.18386   0.00000  Uiso   1.00
H224   H     0.20010   0.96996   0.32433   0.00000  Uiso   1.00
F225   F     0.19277   0.82542   0.03288   0.00000  Uiso   1.00
F226   F     0.08566   0.71216   0.45908   0.00000  Uiso   1.00
F227   F     0.19945   0.82318   0.13039   0.00000  Uiso   1.00
F228   F     0.09047   0.70763   0.36233   0.00000  Uiso   1.00
H229   H     0.14071   0.68345   0.12145   0.00000  Uiso   1.00
H230   H     0.23742   0.78447   0.38424   0.00000  Uiso   1.00
F231   F     0.14304   0.67210   0.02949   0.00000  Uiso   1.00
F232   F     0.25048   0.78438   0.47862   0.00000  Uiso   1.00
C233   C     0.49993   0.66496   0.25010   0.00000  Uiso   1.00
C234   C     0.50000   0.83504   0.24988   0.00000  Uiso   1.00
C235   C     0.51455   0.78708   0.05481   0.00000  Uiso   1.00
C236   C     0.46036   0.72972   0.44135   0.00000  Uiso   1.00
C237   C     0.51542   0.78657   0.10553   0.00000  Uiso   1.00
C238   C     0.46142   0.72945   0.39085   0.00000  Uiso   1.00
C239   C     0.48583   0.71270   0.10327   0.00000  Uiso   1.00
C240   C     0.53970   0.76899   0.40009   0.00000  Uiso   1.00
C241   C     0.48716   0.71104   0.05276   0.00000  Uiso   1.00
C242   C     0.54163   0.76789   0.45099   0.00000  Uiso   1.00
C243   C     0.50096   0.74886   0.02726   0.00000  Uiso   1.00
C244   C     0.50107   0.74874   0.47272   0.00000  Uiso   1.00
C245   C     0.40139   0.75005   0.23771   0.00000  Uiso   1.00
C246   C     0.59859   0.75036   0.26227   0.00000  Uiso   1.00
C247   C     0.34642   0.74929   0.23084   0.00000  Uiso   1.00
C248   C     0.65352   0.75183   0.26906   0.00000  Uiso   1.00
C249   C     0.47922   0.54736   0.28742   0.00000  Uiso   1.00
C250   C     0.47923   0.95237   0.20729   0.00000  Uiso   1.00
C251   C     0.48042   0.59336   0.28774   0.00000  Uiso   1.00
C252   C     0.48046   0.90639   0.20730   0.00000  Uiso   1.00
C253   C     0.49956   0.61671   0.25023   0.00000  Uiso   1.00
C254   C     0.49968   0.88329   0.24962   0.00000  Uiso   1.00
C255   C     0.51795   0.59368   0.21256   0.00000  Uiso   1.00
C256   C     0.51819   0.90656   0.29186   0.00000  Uiso   1.00
C257   C     0.51766   0.54773   0.21263   0.00000  Uiso   1.00
C258   C     0.51786   0.95251   0.29169   0.00000  Uiso   1.00
C259   C     0.49807   0.52425   0.24985   0.00000  Uiso   1.00
C260   C     0.49812   0.97573   0.24957   0.00000  Uiso   1.00
Cu261  Cu    0.50000   0.75000   0.29822   0.00000  Uiso   1.00
Cu262  Cu    0.50000   0.75001   0.20179   0.00000  Uiso   1.00
N263   N     0.50000   0.75001   0.12935   0.00000  Uiso   1.00
N264   N     0.50000   0.74999   0.37066   0.00000  Uiso   1.00
O265   O     0.50000   0.68573   0.29072   0.00000  Uiso   1.00
O266   O     0.50000   0.81428   0.20929   0.00000  Uiso   1.00
O267   O     0.50000   0.68573   0.20928   0.00000  Uiso   1.00
O268   O     0.50000   0.81427   0.29072   0.00000  Uiso   1.00
O269   O     0.42495   0.75000   0.28132   0.00000  Uiso   1.00
O270   O     0.57505   0.75001   0.21868   0.00000  Uiso   1.00
O271   O     0.42495   0.75000   0.19989   0.00000  Uiso   1.00
O272   O     0.57505   0.75000   0.30012   0.00000  Uiso   1.00
F273   F     0.65601   0.74521   0.18439   0.00000  Uiso   1.00
F274   F     0.34382   0.75669   0.31540   0.00000  Uiso   1.00
F275   F     0.45862   0.52552   0.32312   0.00000  Uiso   1.00
F276   F     0.45852   0.97393   0.16643   0.00000  Uiso   1.00
H277   H     0.46551   0.61071   0.31680   0.00000  Uiso   1.00
H278   H     0.46549   0.88884   0.17453   0.00000  Uiso   1.00
H279   H     0.53324   0.61119   0.18346   0.00000  Uiso   1.00
H280   H     0.53359   0.88926   0.32478   0.00000  Uiso   1.00
H281   H     0.53319   0.53049   0.18386   0.00000  Uiso   1.00
H282   H     0.53344   0.96996   0.32433   0.00000  Uiso   1.00
F283   F     0.52610   0.82542   0.03288   0.00000  Uiso   1.00
F284   F     0.41899   0.71216   0.45908   0.00000  Uiso   1.00
F285   F     0.53278   0.82318   0.13039   0.00000  Uiso   1.00
F286   F     0.42380   0.70763   0.36233   0.00000  Uiso   1.00
H287   H     0.47404   0.68345   0.12145   0.00000  Uiso   1.00
H288   H     0.57075   0.78447   0.38424   0.00000  Uiso   1.00
F289   F     0.47637   0.67210   0.02949   0.00000  Uiso   1.00
F290   F     0.58381   0.78438   0.47862   0.00000  Uiso   1.00
C291   C     0.83326   0.66496   0.25010   0.00000  Uiso   1.00
C292   C     0.83333   0.83504   0.24988   0.00000  Uiso   1.00
C293   C     0.84788   0.78708   0.05481   0.00000  Uiso   1.00
C294   C     0.79370   0.72972   0.44135   0.00000  Uiso   1.00
C295   C     0.84875   0.78657   0.10553   0.00000  Uiso   1.00
C296   C     0.79475   0.72945   0.39085   0.00000  Uiso   1.00
C297   C     0.81916   0.71270   0.10327   0.00000  Uiso   1.00
C298   C     0.87303   0.76899   0.40009   0.00000  Uiso   1.00
C299   C     0.82049   0.71104   0.05276   0.00000  Uiso   1.00
C300   C     0.87497   0.76789   0.45099   0.00000  Uiso   1.00
C301   C     0.83429   0.74886   0.02726   0.00000  Uiso   1.00
C302   C     0.83440   0.74874   0.47272   0.00000  Uiso   1.00
C303   C     0.73472   0.75005   0.23771   0.00000  Uiso   1.00
C304   C     0.93193   0.75036   0.26227   0.00000  Uiso   1.00
C305   C     0.67975   0.74929   0.23084   0.00000  Uiso   1.00
C306   C     0.98685   0.75183   0.26906   0.00000  Uiso   1.00
C307   C     0.81255   0.54736   0.28742   0.00000  Uiso   1.00
C308   C     0.81256   0.95237   0.20729   0.00000  Uiso   1.00
C309   C     0.81375   0.59336   0.28774   0.00000  Uiso   1.00
C310   C     0.81379   0.90639   0.20730   0.00000  Uiso   1.00
C311   C     0.83289   0.61671   0.25023   0.00000  Uiso   1.00
C312   C     0.83301   0.88329   0.24962   0.00000  Uiso   1.00
C313   C     0.85129   0.59368   0.21256   0.00000  Uiso   1.00
C314   C     0.85153   0.90656   0.29186   0.00000  Uiso   1.00
C315   C     0.85100   0.54773   0.21263   0.00000  Uiso   1.00
C316   C     0.85119   0.95251   0.29169   0.00000  Uiso   1.00
C317   C     0.83140   0.52425   0.24985   0.00000  Uiso   1.00
C318   C     0.83145   0.97573   0.24957   0.00000  Uiso   1.00
Cu319  Cu    0.83333   0.75000   0.29822   0.00000  Uiso   1.00
Cu320  Cu    0.83333   0.75001   0.20179   0.00000  Uiso   1.00
N321   N     0.83333   0.75001   0.12935   0.00000  Uiso   1.00
N322   N     0.83333   0.74999   0.37066   0.00000  Uiso   1.00
O323   O     0.83334   0.68573   0.29072   0.00000  Uiso   1.00
O324   O     0.83333   0.81428   0.20929   0.00000  Uiso   1.00
O325   O     0.83334   0.68573   0.20928   0.00000  Uiso   1.00
O326   O     0.83333   0.81427   0.29072   0.00000  Uiso   1.00
O327   O     0.75828   0.75000   0.28132   0.00000  Uiso   1.00
O328   O     0.90839   0.75001   0.21868   0.00000  Uiso   1.00
O329   O     0.75828   0.75000   0.19989   0.00000  Uiso   1.00
O330   O     0.90839   0.75000   0.30012   0.00000  Uiso   1.00
F331   F     0.98934   0.74521   0.18439   0.00000  Uiso   1.00
F332   F     0.67715   0.75669   0.31540   0.00000  Uiso   1.00
F333   F     0.79195   0.52552   0.32312   0.00000  Uiso   1.00
F334   F     0.79185   0.97393   0.16643   0.00000  Uiso   1.00
H335   H     0.79884   0.61071   0.31680   0.00000  Uiso   1.00
H336   H     0.79882   0.88884   0.17453   0.00000  Uiso   1.00
H337   H     0.86657   0.61119   0.18346   0.00000  Uiso   1.00
H338   H     0.86692   0.88926   0.32478   0.00000  Uiso   1.00
H339   H     0.86652   0.53049   0.18386   0.00000  Uiso   1.00
H340   H     0.86677   0.96996   0.32433   0.00000  Uiso   1.00
F341   F     0.85944   0.82542   0.03288   0.00000  Uiso   1.00
F342   F     0.75232   0.71216   0.45908   0.00000  Uiso   1.00
F343   F     0.86612   0.82318   0.13039   0.00000  Uiso   1.00
F344   F     0.75714   0.70763   0.36233   0.00000  Uiso   1.00
H345   H     0.80737   0.68345   0.12145   0.00000  Uiso   1.00
H346   H     0.90409   0.78447   0.38424   0.00000  Uiso   1.00
F347   F     0.80970   0.67210   0.02949   0.00000  Uiso   1.00
F348   F     0.91714   0.78438   0.47862   0.00000  Uiso   1.00
C349   C     0.16659   0.16496   0.75010   0.00000  Uiso   1.00
C350   C     0.16666   0.33504   0.74988   0.00000  Uiso   1.00
C351   C     0.18121   0.28708   0.55481   0.00000  Uiso   1.00
C352   C     0.12703   0.22972   0.94135   0.00000  Uiso   1.00
C353   C     0.18208   0.28657   0.60553   0.00000  Uiso   1.00
C354   C     0.12808   0.22945   0.89085   0.00000  Uiso   1.00
C355   C     0.15250   0.21270   0.60327   0.00000  Uiso   1.00
C356   C     0.20637   0.26899   0.90009   0.00000  Uiso   1.00
C357   C     0.15382   0.21104   0.55276   0.00000  Uiso   1.00
C358   C     0.20830   0.26789   0.95099   0.00000  Uiso   1.00
C359   C     0.16762   0.24886   0.52726   0.00000  Uiso   1.00
C360   C     0.16773   0.24874   0.97272   0.00000  Uiso   1.00
C361   C     0.06805   0.25005   0.73771   0.00000  Uiso   1.00
C362   C     0.26526   0.25036   0.76227   0.00000  Uiso   1.00
C363   C     0.01308   0.24929   0.73084   0.00000  Uiso   1.00
C364   C     0.32018   0.25183   0.76906   0.00000  Uiso   1.00
C365   C     0.14589   0.04736   0.78742   0.00000  Uiso   1.00
C366   C     0.14589   0.45237   0.70729   0.00000  Uiso   1.00
C367   C     0.14709   0.09336   0.78774   0.00000  Uiso   1.00
C368   C     0.14713   0.40639   0.70730   0.00000  Uiso   1.00
C369   C     0.16622   0.11671   0.75023   0.00000  Uiso   1.00
C370   C     0.16634   0.38329   0.74962   0.00000  Uiso   1.00
C371   C     0.18462   0.09368   0.71256   0.00000  Uiso   1.00
C372   C     0.18486   0.40656   0.79186   0.00000  Uiso   1.00
C373   C     0.18433   0.04773   0.71263   0.00000  Uiso   1.00
C374   C     0.18452   0.45251   0.79169   0.00000  Uiso   1.00
C375   C     0.16473   0.02425   0.74985   0.00000  Uiso   1.00
C376   C     0.16479   0.47573   0.74957   0.00000  Uiso   1.00
Cu377  Cu    0.16667   0.25000   0.79822   0.00000  Uiso   1.00
Cu378  Cu    0.16667   0.25001   0.70179   0.00000  Uiso   1.00
N379   N     0.16667   0.25001   0.62935   0.00000  Uiso   1.00
N380   N     0.16667   0.24999   0.87066   0.00000  Uiso   1.00
O381   O     0.16667   0.18573   0.79072   0.00000  Uiso   1.00
O382   O     0.16666   0.31428   0.70929   0.00000  Uiso   1.00
O383   O     0.16667   0.18573   0.70928   0.00000  Uiso   1.00
O384   O     0.16666   0.31427   0.79072   0.00000  Uiso   1.00
O385   O     0.09161   0.25000   0.78132   0.00000  Uiso   1.00
O386   O     0.24172   0.25001   0.71868   0.00000  Uiso   1.00
O387   O     0.09161   0.25000   0.69989   0.00000  Uiso   1.00
O388   O     0.24172   0.25000   0.80012   0.00000  Uiso   1.00
F389   F     0.32267   0.24521   0.68439   0.00000  Uiso   1.00
F390   F     0.01049   0.25669   0.81540   0.00000  Uiso   1.00
F391   F     0.12529   0.02552   0.82312   0.00000  Uiso   1.00
F392   F     0.12519   0.47393   0.66643   0.00000  Uiso   1.00
H393   H     0.13218   0.11071   0.81680   0.00000  Uiso   1.00
H394   H     0.13216   0.38884   0.67453   0.00000  Uiso   1.00
H395   H     0.19991   0.11119   0.68346   0.00000  Uiso   1.00
H396   H     0.20026   0.38926   0.82478   0.00000  Uiso   1.00
H397   H     0.19985   0.03049   0.68386   0.00000  Uiso   1.00
H398   H     0.20010   0.46996   0.82433   0.00000  Uiso   1.00
F399   F     0.19277   0.32542   0.53288   0.00000  Uiso   1.00
F400   F     0.08566   0.21216   0.95908   0.00000  Uiso   1.00
F401   F     0.19945   0.32318   0.63039   0.00000  Uiso   1.00
F402   F     0.09047   0.20763   0.86233   0.00000  Uiso   1.00
H403   H     0.14071   0.18345   0.62145   0.00000  Uiso   1.00
H404   H     0.23742   0.28447   0.88424   0.00000  Uiso   1.00
F405   F     0.14304   0.17210   0.52949   0.00000  Uiso   1.00
F406   F     0.25048   0.28438   0.97862   0.00000  Uiso   1.00
C407   C     0.49993   0.16496   0.75010   0.00000  Uiso   1.00
C408   C     0.50000   0.33504   0.74988   0.00000  Uiso   1.00
C409   C     0.51455   0.28708   0.55481   0.00000  Uiso   1.00
C410   C     0.46036   0.22972   0.94135   0.00000  Uiso   1.00
C411   C     0.51542   0.28657   0.60553   0.00000  Uiso   1.00
C412   C     0.46142   0.22945   0.89085   0.00000  Uiso   1.00
C413   C     0.48583   0.21270   0.60327   0.00000  Uiso   1.00
C414   C     0.53970   0.26899   0.90009   0.00000  Uiso   1.00
C415   C     0.48716   0.21104   0.55276   0.00000  Uiso   1.00
C416   C     0.54163   0.26789   0.95099   0.00000  Uiso   1.00
C417   C     0.50096   0.24886   0.52726   0.00000  Uiso   1.00
C418   C     0.50107   0.24874   0.97272   0.00000  Uiso   1.00
C419   C     0.40139   0.25005   0.73771   0.00000  Uiso   1.00
C420   C     0.59859   0.25036   0.76227   0.00000  Uiso   1.00
C421   C     0.34642   0.24929   0.73084   0.00000  Uiso   1.00
C422   C     0.65352   0.25183   0.76906   0.00000  Uiso   1.00
C423   C     0.47922   0.04736   0.78742   0.00000  Uiso   1.00
C424   C     0.47923   0.45237   0.70729   0.00000  Uiso   1.00
C425   C     0.48042   0.09336   0.78774   0.00000  Uiso   1.00
C426   C     0.48046   0.40639   0.70730   0.00000  Uiso   1.00
C427   C     0.49956   0.11671   0.75023   0.00000  Uiso   1.00
C428   C     0.49968   0.38329   0.74962   0.00000  Uiso   1.00
C429   C     0.51795   0.09368   0.71256   0.00000  Uiso   1.00
C430   C     0.51819   0.40656   0.79186   0.00000  Uiso   1.00
C431   C     0.51766   0.04773   0.71263   0.00000  Uiso   1.00
C432   C     0.51786   0.45251   0.79169   0.00000  Uiso   1.00
C433   C     0.49807   0.02425   0.74985   0.00000  Uiso   1.00
C434   C     0.49812   0.47573   0.74957   0.00000  Uiso   1.00
Cu435  Cu    0.50000   0.25000   0.79822   0.00000  Uiso   1.00
Cu436  Cu    0.50000   0.25001   0.70179   0.00000  Uiso   1.00
N437   N     0.50000   0.25001   0.62935   0.00000  Uiso   1.00
N438   N     0.50000   0.24999   0.87066   0.00000  Uiso   1.00
O439   O     0.50000   0.18573   0.79072   0.00000  Uiso   1.00
O440   O     0.50000   0.31428   0.70929   0.00000  Uiso   1.00
O441   O     0.50000   0.18573   0.70928   0.00000  Uiso   1.00
O442   O     0.50000   0.31427   0.79072   0.00000  Uiso   1.00
O443   O     0.42495   0.25000   0.78132   0.00000  Uiso   1.00
O444   O     0.57505   0.25001   0.71868   0.00000  Uiso   1.00
O445   O     0.42495   0.25000   0.69989   0.00000  Uiso   1.00
O446   O     0.57505   0.25000   0.80012   0.00000  Uiso   1.00
F447   F     0.65601   0.24521   0.68439   0.00000  Uiso   1.00
F448   F     0.34382   0.25669   0.81540   0.00000  Uiso   1.00
F449   F     0.45862   0.02552   0.82312   0.00000  Uiso   1.00
F450   F     0.45852   0.47393   0.66643   0.00000  Uiso   1.00
H451   H     0.46551   0.11071   0.81680   0.00000  Uiso   1.00
H452   H     0.46549   0.38884   0.67453   0.00000  Uiso   1.00
H453   H     0.53324   0.11119   0.68346   0.00000  Uiso   1.00
H454   H     0.53359   0.38926   0.82478   0.00000  Uiso   1.00
H455   H     0.53319   0.03049   0.68386   0.00000  Uiso   1.00
H456   H     0.53344   0.46996   0.82433   0.00000  Uiso   1.00
F457   F     0.52610   0.32542   0.53288   0.00000  Uiso   1.00
F458   F     0.41899   0.21216   0.95908   0.00000  Uiso   1.00
F459   F     0.53278   0.32318   0.63039   0.00000  Uiso   1.00
F460   F     0.42380   0.20763   0.86233   0.00000  Uiso   1.00
H461   H     0.47404   0.18345   0.62145   0.00000  Uiso   1.00
H462   H     0.57075   0.28447   0.88424   0.00000  Uiso   1.00
F463   F     0.47637   0.17210   0.52949   0.00000  Uiso   1.00
F464   F     0.58381   0.28438   0.97862   0.00000  Uiso   1.00
C465   C     0.83326   0.16496   0.75010   0.00000  Uiso   1.00
C466   C     0.83333   0.33504   0.74988   0.00000  Uiso   1.00
C467   C     0.84788   0.28708   0.55481   0.00000  Uiso   1.00
C468   C     0.79370   0.22972   0.94135   0.00000  Uiso   1.00
C469   C     0.84875   0.28657   0.60553   0.00000  Uiso   1.00
C470   C     0.79475   0.22945   0.89085   0.00000  Uiso   1.00
C471   C     0.81916   0.21270   0.60327   0.00000  Uiso   1.00
C472   C     0.87303   0.26899   0.90009   0.00000  Uiso   1.00
C473   C     0.82049   0.21104   0.55276   0.00000  Uiso   1.00
C474   C     0.87497   0.26789   0.95099   0.00000  Uiso   1.00
C475   C     0.83429   0.24886   0.52726   0.00000  Uiso   1.00
C476   C     0.83440   0.24874   0.97272   0.00000  Uiso   1.00
C477   C     0.73472   0.25005   0.73771   0.00000  Uiso   1.00
C478   C     0.93193   0.25036   0.76227   0.00000  Uiso   1.00
C479   C     0.67975   0.24929   0.73084   0.00000  Uiso   1.00
C480   C     0.98685   0.25183   0.76906   0.00000  Uiso   1.00
C481   C     0.81255   0.04736   0.78742   0.00000  Uiso   1.00
C482   C     0.81256   0.45237   0.70729   0.00000  Uiso   1.00
C483   C     0.81375   0.09336   0.78774   0.00000  Uiso   1.00
C484   C     0.81379   0.40639   0.70730   0.00000  Uiso   1.00
C485   C     0.83289   0.11671   0.75023   0.00000  Uiso   1.00
C486   C     0.83301   0.38329   0.74962   0.00000  Uiso   1.00
C487   C     0.85129   0.09368   0.71256   0.00000  Uiso   1.00
C488   C     0.85153   0.40656   0.79186   0.00000  Uiso   1.00
C489   C     0.85100   0.04773   0.71263   0.00000  Uiso   1.00
C490   C     0.85119   0.45251   0.79169   0.00000  Uiso   1.00
C491   C     0.83140   0.02425   0.74985   0.00000  Uiso   1.00
C492   C     0.83145   0.47573   0.74957   0.00000  Uiso   1.00
Cu493  Cu    0.83333   0.25000   0.79822   0.00000  Uiso   1.00
Cu494  Cu    0.83333   0.25001   0.70179   0.00000  Uiso   1.00
N495   N     0.83333   0.25001   0.62935   0.00000  Uiso   1.00
N496   N     0.83333   0.24999   0.87066   0.00000  Uiso   1.00
O497   O     0.83334   0.18573   0.79072   0.00000  Uiso   1.00
O498   O     0.83333   0.31428   0.70929   0.00000  Uiso   1.00
O499   O     0.83334   0.18573   0.70928   0.00000  Uiso   1.00
O500   O     0.83333   0.31427   0.79072   0.00000  Uiso   1.00
O501   O     0.75828   0.25000   0.78132   0.00000  Uiso   1.00
O502   O     0.90839   0.25001   0.71868   0.00000  Uiso   1.00
O503   O     0.75828   0.25000   0.69989   0.00000  Uiso   1.00
O504   O     0.90839   0.25000   0.80012   0.00000  Uiso   1.00
F505   F     0.98934   0.24521   0.68439   0.00000  Uiso   1.00
F506   F     0.67715   0.25669   0.81540   0.00000  Uiso   1.00
F507   F     0.79195   0.02552   0.82312   0.00000  Uiso   1.00
F508   F     0.79185   0.47393   0.66643   0.00000  Uiso   1.00
H509   H     0.79884   0.11071   0.81680   0.00000  Uiso   1.00
H510   H     0.79882   0.38884   0.67453   0.00000  Uiso   1.00
H511   H     0.86657   0.11119   0.68346   0.00000  Uiso   1.00
H512   H     0.86692   0.38926   0.82478   0.00000  Uiso   1.00
H513   H     0.86652   0.03049   0.68386   0.00000  Uiso   1.00
H514   H     0.86677   0.46996   0.82433   0.00000  Uiso   1.00
F515   F     0.85944   0.32542   0.53288   0.00000  Uiso   1.00
F516   F     0.75232   0.21216   0.95908   0.00000  Uiso   1.00
F517   F     0.86612   0.32318   0.63039   0.00000  Uiso   1.00
F518   F     0.75714   0.20763   0.86233   0.00000  Uiso   1.00
H519   H     0.80737   0.18345   0.62145   0.00000  Uiso   1.00
H520   H     0.90409   0.28447   0.88424   0.00000  Uiso   1.00
F521   F     0.80970   0.17210   0.52949   0.00000  Uiso   1.00
F522   F     0.91714   0.28438   0.97862   0.00000  Uiso   1.00
C523   C     0.16659   0.66496   0.75010   0.00000  Uiso   1.00
C524   C     0.16666   0.83504   0.74988   0.00000  Uiso   1.00
C525   C     0.18121   0.78708   0.55481   0.00000  Uiso   1.00
C526   C     0.12703   0.72972   0.94135   0.00000  Uiso   1.00
C527   C     0.18208   0.78657   0.60553   0.00000  Uiso   1.00
C528   C     0.12808   0.72945   0.89085   0.00000  Uiso   1.00
C529   C     0.15250   0.71270   0.60327   0.00000  Uiso   1.00
C530   C     0.20637   0.76899   0.90009   0.00000  Uiso   1.00
C531   C     0.15382   0.71104   0.55276   0.00000  Uiso   1.00
C532   C     0.20830   0.76789   0.95099   0.00000  Uiso   1.00
C533   C     0.16762   0.74886   0.52726   0.00000  Uiso   1.00
C534   C     0.16773   0.74874   0.97272   0.00000  Uiso   1.00
C535   C     0.06805   0.75005   0.73771   0.00000  Uiso   1.00
C536   C     0.26526   0.75036   0.76227   0.00000  Uiso   1.00
C537   C     0.01308   0.74929   0.73084   0.00000  Uiso   1.00
C538   C     0.32018   0.75183   0.76906   0.00000  Uiso   1.00
C539   C     0.14589   0.54736   0.78742   0.00000  Uiso   1.00
C540   C     0.14589   0.95237   0.70729   0.00000  Uiso   1.00
C541   C     0.14709   0.59336   0.78774   0.00000  Uiso   1.00
C542   C     0.14713   0.90639   0.70730   0.00000  Uiso   1.00
C543   C     0.16622   0.61671   0.75023   0.00000  Uiso   1.00
C544   C     0.16634   0.88329   0.74962   0.00000  Uiso   1.00
C545   C     0.18462   0.59368   0.71256   0.00000  Uiso   1.00
C546   C     0.18486   0.90656   0.79186   0.00000  Uiso   1.00
C547   C     0.18433   0.54773   0.71263   0.00000  Uiso   1.00
C548   C     0.18452   0.95251   0.79169   0.00000  Uiso   1.00
C549   C     0.16473   0.52425   0.74985   0.00000  Uiso   1.00
C550   C     0.16479   0.97573   0.74957   0.00000  Uiso   1.00
Cu551  Cu    0.16667   0.75000   0.79822   0.00000  Uiso   1.00
Cu552  Cu    0.16667   0.75001   0.70179   0.00000  Uiso   1.00
N553   N     0.16667   0.75001   0.62935   0.00000  Uiso   1.00
N554   N     0.16667   0.74999   0.87066   0.00000  Uiso   1.00
O555   O     0.16667   0.68573   0.79072   0.00000  Uiso   1.00
O556   O     0.16666   0.81428   0.70929   0.00000  Uiso   1.00
O557   O     0.16667   0.68573   0.70928   0.00000  Uiso   1.00
O558   O     0.16666   0.81427   0.79072   0.00000  Uiso   1.00
O559   O     0.09161   0.75000   0.78132   0.00000  Uiso   1.00
O560   O     0.24172   0.75001   0.71868   0.00000  Uiso   1.00
O561   O     0.09161   0.75000   0.69989   0.00000  Uiso   1.00
O562   O     0.24172   0.75000   0.80012   0.00000  Uiso   1.00
F563   F     0.32267   0.74521   0.68439   0.00000  Uiso   1.00
F564   F     0.01049   0.75669   0.81540   0.00000  Uiso   1.00
F565   F     0.12529   0.52552   0.82312   0.00000  Uiso   1.00
F566   F     0.12519   0.97393   0.66643   0.00000  Uiso   1.00
H567   H     0.13218   0.61071   0.81680   0.00000  Uiso   1.00
H568   H     0.13216   0.88884   0.67453   0.00000  Uiso   1.00
H569   H     0.19991   0.61119   0.68346   0.00000  Uiso   1.00
H570   H     0.20026   0.88926   0.82478   0.00000  Uiso   1.00
H571   H     0.19985   0.53049   0.68386   0.00000  Uiso   1.00
H572   H     0.20010   0.96996   0.82433   0.00000  Uiso   1.00
F573   F     0.19277   0.82542   0.53288   0.00000  Uiso   1.00
F574   F     0.08566   0.71216   0.95908   0.00000  Uiso   1.00
F575   F     0.19945   0.82318   0.63039   0.00000  Uiso   1.00
F576   F     0.09047   0.70763   0.86233   0.00000  Uiso   1.00
H577   H     0.14071   0.68345   0.62145   0.00000  Uiso   1.00
H578   H     0.23742   0.78447   0.88424   0.00000  Uiso   1.00
F579   F     0.14304   0.67210   0.52949   0.00000  Uiso   1.00
F580   F     0.25048   0.78438   0.97862   0.00000  Uiso   1.00
C581   C     0.49993   0.66496   0.75010   0.00000  Uiso   1.00
C582   C     0.50000   0.83504   0.74988   0.00000  Uiso   1.00
C583   C     0.51455   0.78708   0.55481   0.00000  Uiso   1.00
C584   C     0.46036   0.72972   0.94135   0.00000  Uiso   1.00
C585   C     0.51542   0.78657   0.60553   0.00000  Uiso   1.00
C586   C     0.46142   0.72945   0.89085   0.00000  Uiso   1.00
C587   C     0.48583   0.71270   0.60327   0.00000  Uiso   1.00
C588   C     0.53970   0.76899   0.90009   0.00000  Uiso   1.00
C589   C     0.48716   0.71104   0.55276   0.00000  Uiso   1.00
C590   C     0.54163   0.76789   0.95099   0.00000  Uiso   1.00
C591   C     0.50096   0.74886   0.52726   0.00000  Uiso   1.00
C592   C     0.50107   0.74874   0.97272   0.00000  Uiso   1.00
C593   C     0.40139   0.75005   0.73771   0.00000  Uiso   1.00
C594   C     0.59859   0.75036   0.76227   0.00000  Uiso   1.00
C595   C     0.34642   0.74929   0.73084   0.00000  Uiso   1.00
C596   C     0.65352   0.75183   0.76906   0.00000  Uiso   1.00
C597   C     0.47922   0.54736   0.78742   0.00000  Uiso   1.00
C598   C     0.47923   0.95237   0.70729   0.00000  Uiso   1.00
C599   C     0.48042   0.59336   0.78774   0.00000  Uiso   1.00
C600   C     0.48046   0.90639   0.70730   0.00000  Uiso   1.00
C601   C     0.49956   0.61671   0.75023   0.00000  Uiso   1.00
C602   C     0.49968   0.88329   0.74962   0.00000  Uiso   1.00
C603   C     0.51795   0.59368   0.71256   0.00000  Uiso   1.00
C604   C     0.51819   0.90656   0.79186   0.00000  Uiso   1.00
C605   C     0.51766   0.54773   0.71263   0.00000  Uiso   1.00
C606   C     0.51786   0.95251   0.79169   0.00000  Uiso   1.00
C607   C     0.49807   0.52425   0.74985   0.00000  Uiso   1.00
C608   C     0.49812   0.97573   0.74957   0.00000  Uiso   1.00
Cu609  Cu    0.50000   0.75000   0.79822   0.00000  Uiso   1.00
Cu610  Cu    0.50000   0.75001   0.70179   0.00000  Uiso   1.00
N611   N     0.50000   0.75001   0.62935   0.00000  Uiso   1.00
N612   N     0.50000   0.74999   0.87066   0.00000  Uiso   1.00
O613   O     0.50000   0.68573   0.79072   0.00000  Uiso   1.00
O614   O     0.50000   0.81428   0.70929   0.00000  Uiso   1.00
O615   O     0.50000   0.68573   0.70928   0.00000  Uiso   1.00
O616   O     0.50000   0.81427   0.79072   0.00000  Uiso   1.00
O617   O     0.42495   0.75000   0.78132   0.00000  Uiso   1.00
O618   O     0.57505   0.75001   0.71868   0.00000  Uiso   1.00
O619   O     0.42495   0.75000   0.69989   0.00000  Uiso   1.00
O620   O     0.57505   0.75000   0.80012   0.00000  Uiso   1.00
F621   F     0.65601   0.74521   0.68439   0.00000  Uiso   1.00
F622   F     0.34382   0.75669   0.81540   0.00000  Uiso   1.00
F623   F     0.45862   0.52552   0.82312   0.00000  Uiso   1.00
F624   F     0.45852   0.97393   0.66643   0.00000  Uiso   1.00
H625   H     0.46551   0.61071   0.81680   0.00000  Uiso   1.00
H626   H     0.46549   0.88884   0.67453   0.00000  Uiso   1.00
H627   H     0.53324   0.61119   0.68346   0.00000  Uiso   1.00
H628   H     0.53359   0.88926   0.82478   0.00000  Uiso   1.00
H629   H     0.53319   0.53049   0.68386   0.00000  Uiso   1.00
H630   H     0.53344   0.96996   0.82433   0.00000  Uiso   1.00
F631   F     0.52610   0.82542   0.53288   0.00000  Uiso   1.00
F632   F     0.41899   0.71216   0.95908   0.00000  Uiso   1.00
F633   F     0.53278   0.82318   0.63039   0.00000  Uiso   1.00
F634   F     0.42380   0.70763   0.86233   0.00000  Uiso   1.00
H635   H     0.47404   0.68345   0.62145   0.00000  Uiso   1.00
H636   H     0.57075   0.78447   0.88424   0.00000  Uiso   1.00
F637   F     0.47637   0.67210   0.52949   0.00000  Uiso   1.00
F638   F     0.58381   0.78438   0.97862   0.00000  Uiso   1.00
C639   C     0.83326   0.66496   0.75010   0.00000  Uiso   1.00
C640   C     0.83333   0.83504   0.74988   0.00000  Uiso   1.00
C641   C     0.84788   0.78708   0.55481   0.00000  Uiso   1.00
C642   C     0.79370   0.72972   0.94135   0.00000  Uiso   1.00
C643   C     0.84875   0.78657   0.60553   0.00000  Uiso   1.00
C644   C     0.79475   0.72945   0.89085   0.00000  Uiso   1.00
C645   C     0.81916   0.71270   0.60327   0.00000  Uiso   1.00
C646   C     0.87303   0.76899   0.90009   0.00000  Uiso   1.00
C647   C     0.82049   0.71104   0.55276   0.00000  Uiso   1.00
C648   C     0.87497   0.76789   0.95099   0.00000  Uiso   1.00
C649   C     0.83429   0.74886   0.52726   0.00000  Uiso   1.00
C650   C     0.83440   0.74874   0.97272   0.00000  Uiso   1.00
C651   C     0.73472   0.75005   0.73771   0.00000  Uiso   1.00
C652   C     0.93193   0.75036   0.76227   0.00000  Uiso   1.00
C653   C     0.67975   0.74929   0.73084   0.00000  Uiso   1.00
C654   C     0.98685   0.75183   0.76906   0.00000  Uiso   1.00
C655   C     0.81255   0.54736   0.78742   0.00000  Uiso   1.00
C656   C     0.81256   0.95237   0.70729   0.00000  Uiso   1.00
C657   C     0.81375   0.59336   0.78774   0.00000  Uiso   1.00
C658   C     0.81379   0.90639   0.70730   0.00000  Uiso   1.00
C659   C     0.83289   0.61671   0.75023   0.00000  Uiso   1.00
C660   C     0.83301   0.88329   0.74962   0.00000  Uiso   1.00
C661   C     0.85129   0.59368   0.71256   0.00000  Uiso   1.00
C662   C     0.85153   0.90656   0.79186   0.00000  Uiso   1.00
C663   C     0.85100   0.54773   0.71263   0.00000  Uiso   1.00
C664   C     0.85119   0.95251   0.79169   0.00000  Uiso   1.00
C665   C     0.83140   0.52425   0.74985   0.00000  Uiso   1.00
C666   C     0.83145   0.97573   0.74957   0.00000  Uiso   1.00
Cu667  Cu    0.83333   0.75000   0.79822   0.00000  Uiso   1.00
Cu668  Cu    0.83333   0.75001   0.70179   0.00000  Uiso   1.00
N669   N     0.83333   0.75001   0.62935   0.00000  Uiso   1.00
N670   N     0.83333   0.74999   0.87066   0.00000  Uiso   1.00
O671   O     0.83334   0.68573   0.79072   0.00000  Uiso   1.00
O672   O     0.83333   0.81428   0.70929   0.00000  Uiso   1.00
O673   O     0.83334   0.68573   0.70928   0.00000  Uiso   1.00
O674   O     0.83333   0.81427   0.79072   0.00000  Uiso   1.00
O675   O     0.75828   0.75000   0.78132   0.00000  Uiso   1.00
O676   O     0.90839   0.75001   0.71868   0.00000  Uiso   1.00
O677   O     0.75828   0.75000   0.69989   0.00000  Uiso   1.00
O678   O     0.90839   0.75000   0.80012   0.00000  Uiso   1.00
F679   F     0.98934   0.74521   0.68439   0.00000  Uiso   1.00
F680   F     0.67715   0.75669   0.81540   0.00000  Uiso   1.00
F681   F     0.79195   0.52552   0.82312   0.00000  Uiso   1.00
F682   F     0.79185   0.97393   0.66643   0.00000  Uiso   1.00
H683   H     0.79884   0.61071   0.81680   0.00000  Uiso   1.00
H684   H     0.79882   0.88884   0.67453   0.00000  Uiso   1.00
H685   H     0.86657   0.61119   0.68346   0.00000  Uiso   1.00
H686   H     0.86692   0.88926   0.82478   0.00000  Uiso   1.00
H687   H     0.86652   0.53049   0.68386   0.00000  Uiso   1.00
H688   H     0.86677   0.96996   0.82433   0.00000  Uiso   1.00
F689   F     0.85944   0.82542   0.53288   0.00000  Uiso   1.00
F690   F     0.75232   0.71216   0.95908   0.00000  Uiso   1.00
F691   F     0.86612   0.82318   0.63039   0.00000  Uiso   1.00
F692   F     0.75714   0.70763   0.86233   0.00000  Uiso   1.00
H693   H     0.80737   0.68345   0.62145   0.00000  Uiso   1.00
H694   H     0.90409   0.78447   0.88424   0.00000  Uiso   1.00
F695   F     0.80970   0.67210   0.52949   0.00000  Uiso   1.00
F696   F     0.91714   0.78438   0.97862   0.00000  Uiso   1.00
loop_
_geom_bond_atom_site_label_1
_geom_bond_atom_site_label_2
_geom_bond_distance
_geom_bond_site_symmetry_2
_ccdc_geom_bond_type
C1     C21     1.459   .     S
C1     O33     1.295   .     A
C1     O35     1.293   .     A
C2     C22     1.459   .     S
C2     O34     1.294   .     A
C2     O36     1.294   .     A
C3     C5      1.407   .     A
C3     C11     1.408   .     A
C3     F51     1.357   .     S
C4     F52     1.357   .     S
C4     C6      1.407   .     A
C4     C12     1.410   .     A
C5     F53     1.353   .     S
C5     N31     1.371   .     A
C6     N32     1.367   .     A
C6     F54     1.354   .     S
C7     H55     1.080   .     S
C7     N31     1.367   .     A
C7     C9      1.410   .     A
C8     H56     1.081   .     S
C8     N32     1.364   .     A
C8     C10     1.409   .     A
C9     C11     1.412   .     A
C9     F57     1.357   .     S
C10    C12     1.414   .     A
C10    F58     1.357   .     S
C11    C360    1.516   1_554 S
C12    C359    1.516   .     S
C13    O37     1.286   .     A
C13    C15     1.435   .     S
C13    O39     1.289   .     A
C14    O38     1.285   .     A
C14    C16     1.434   .     S
C14    O40     1.290   .     A
C15    C132    1.344   1_455 S
C15    F157    1.363   1_455 S
C16    C73     1.344   .     S
C16    F100    1.362   .     S
C17    C27     1.406   .     A
C17    F43     1.358   .     S
C17    C19     1.391   .     A
C18    C28     1.406   .     A
C18    F44     1.358   .     S
C18    C20     1.391   .     A
C19    H45     1.083   .     S
C19    C21     1.401   .     A
C20    H46     1.083   .     S
C20    C22     1.401   .     A
C21    C23     1.401   .     A
C22    C24     1.401   .     A
C23    C25     1.389   .     A
C23    H47     1.083   .     S
C24    H48     1.083   .     S
C24    C26     1.390   .     A
C25    C27     1.402   .     A
C25    H49     1.083   .     S
C26    H50     1.083   .     S
C26    C28     1.402   .     A
C27    C202    1.467   1_545 S
C28    C201    1.467   .     S
Cu29   Cu30    2.679   .     S
Cu29   O36     1.953   .     S
Cu29   O40     1.970   .     S
Cu29   N32     2.013   .     S
Cu29   O37     1.970   .     S
Cu29   O33     1.956   .     S
Cu30   N31     2.013   .     S
Cu30   O35     1.953   .     S
Cu30   O39     1.970   .     S
Cu30   O34     1.956   .     S
Cu30   O38     1.970   .     S
F41    C73     1.363   .     S
F42    C132    1.362   1_455 S
C59    C79     1.459   .     S
C59    O91     1.295   .     A
C59    O93     1.293   .     A
C60    C80     1.459   .     S
C60    O92     1.294   .     A
C60    O94     1.294   .     A
C61    C63     1.407   .     A
C61    C69     1.408   .     A
C61    F109    1.357   .     S
C62    F110    1.357   .     S
C62    C64     1.407   .     A
C62    C70     1.410   .     A
C63    F111    1.353   .     S
C63    N89     1.371   .     A
C64    N90     1.367   .     A
C64    F112    1.354   .     S
C65    H113    1.080   .     S
C65    N89     1.367   .     A
C65    C67     1.410   .     A
C66    H114    1.081   .     S
C66    N90     1.364   .     A
C66    C68     1.409   .     A
C67    C69     1.412   .     A
C67    F115    1.357   .     S
C68    C70     1.414   .     A
C68    F116    1.357   .     S
C69    C418    1.516   1_554 S
C70    C417    1.516   .     S
C71    O95     1.286   .     A
C71    C73     1.435   .     S
C71    O97     1.289   .     A
C72    O96     1.285   .     A
C72    C74     1.434   .     S
C72    O98     1.290   .     A
C74    C131    1.344   .     S
C74    F158    1.362   .     S
C75    C85     1.406   .     A
C75    F101    1.358   .     S
C75    C77     1.391   .     A
C76    C86     1.406   .     A
C76    F102    1.358   .     S
C76    C78     1.391   .     A
C77    H103    1.083   .     S
C77    C79     1.401   .     A
C78    H104    1.083   .     S
C78    C80     1.401   .     A
C79    C81     1.401   .     A
C80    C82     1.401   .     A
C81    C83     1.389   .     A
C81    H105    1.083   .     S
C82    H106    1.083   .     S
C82    C84     1.390   .     A
C83    C85     1.402   .     A
C83    H107    1.083   .     S
C84    H108    1.083   .     S
C84    C86     1.402   .     A
C85    C260    1.467   1_545 S
C86    C259    1.467   .     S
Cu87   Cu88    2.679   .     S
Cu87   O94     1.953   .     S
Cu87   O98     1.970   .     S
Cu87   N90     2.013   .     S
Cu87   O95     1.970   .     S
Cu87   O91     1.956   .     S
Cu88   N89     2.013   .     S
Cu88   O93     1.953   .     S
Cu88   O97     1.970   .     S
Cu88   O92     1.956   .     S
Cu88   O96     1.970   .     S
F99    C131    1.363   .     S
C117   C137    1.459   .     S
C117   O149    1.295   .     A
C117   O151    1.293   .     A
C118   C138    1.459   .     S
C118   O150    1.294   .     A
C118   O152    1.294   .     A
C119   C121    1.407   .     A
C119   C127    1.408   .     A
C119   F167    1.357   .     S
C120   F168    1.357   .     S
C120   C122    1.407   .     A
C120   C128    1.410   .     A
C121   F169    1.353   .     S
C121   N147    1.371   .     A
C122   N148    1.367   .     A
C122   F170    1.354   .     S
C123   H171    1.080   .     S
C123   N147    1.367   .     A
C123   C125    1.410   .     A
C124   H172    1.081   .     S
C124   N148    1.364   .     A
C124   C126    1.409   .     A
C125   C127    1.412   .     A
C125   F173    1.357   .     S
C126   C128    1.414   .     A
C126   F174    1.357   .     S
C127   C476    1.516   1_554 S
C128   C475    1.516   .     S
C129   O153    1.286   .     A
C129   C131    1.435   .     S
C129   O155    1.289   .     A
C130   O154    1.285   .     A
C130   C132    1.434   .     S
C130   O156    1.290   .     A
C132   C15     1.344   1_655 S
C132   F42     1.362   1_655 S
C133   C143    1.406   .     A
C133   F159    1.358   .     S
C133   C135    1.391   .     A
C134   C144    1.406   .     A
C134   F160    1.358   .     S
C134   C136    1.391   .     A
C135   H161    1.083   .     S
C135   C137    1.401   .     A
C136   H162    1.083   .     S
C136   C138    1.401   .     A
C137   C139    1.401   .     A
C138   C140    1.401   .     A
C139   C141    1.389   .     A
C139   H163    1.083   .     S
C140   H164    1.083   .     S
C140   C142    1.390   .     A
C141   C143    1.402   .     A
C141   H165    1.083   .     S
C142   H166    1.083   .     S
C142   C144    1.402   .     A
C143   C318    1.467   1_545 S
C144   C317    1.467   .     S
Cu145  Cu146   2.679   .     S
Cu145  O152    1.953   .     S
Cu145  O156    1.970   .     S
Cu145  N148    2.013   .     S
Cu145  O153    1.970   .     S
Cu145  O149    1.956   .     S
Cu146  N147    2.013   .     S
Cu146  O151    1.953   .     S
Cu146  O155    1.970   .     S
Cu146  O150    1.956   .     S
Cu146  O154    1.970   .     S
F157   C15     1.363   1_655 S
C175   C195    1.459   .     S
C175   O207    1.295   .     A
C175   O209    1.293   .     A
C176   C196    1.459   .     S
C176   O208    1.294   .     A
C176   O210    1.294   .     A
C177   C179    1.407   .     A
C177   C185    1.408   .     A
C177   F225    1.357   .     S
C178   F226    1.357   .     S
C178   C180    1.407   .     A
C178   C186    1.410   .     A
C179   F227    1.353   .     S
C179   N205    1.371   .     A
C180   N206    1.367   .     A
C180   F228    1.354   .     S
C181   H229    1.080   .     S
C181   N205    1.367   .     A
C181   C183    1.410   .     A
C182   H230    1.081   .     S
C182   N206    1.364   .     A
C182   C184    1.409   .     A
C183   C185    1.412   .     A
C183   F231    1.357   .     S
C184   C186    1.414   .     A
C184   F232    1.357   .     S
C185   C534    1.516   1_554 S
C186   C533    1.516   .     S
C187   O211    1.286   .     A
C187   C189    1.435   .     S
C187   O213    1.289   .     A
C188   O212    1.285   .     A
C188   C190    1.434   .     S
C188   O214    1.290   .     A
C189   C306    1.344   1_455 S
C189   F331    1.363   1_455 S
C190   C247    1.344   .     S
C190   F274    1.362   .     S
C191   C201    1.406   .     A
C191   F217    1.358   .     S
C191   C193    1.391   .     A
C192   C202    1.406   .     A
C192   F218    1.358   .     S
C192   C194    1.391   .     A
C193   H219    1.083   .     S
C193   C195    1.401   .     A
C194   H220    1.083   .     S
C194   C196    1.401   .     A
C195   C197    1.401   .     A
C196   C198    1.401   .     A
C197   C199    1.389   .     A
C197   H221    1.083   .     S
C198   H222    1.083   .     S
C198   C200    1.390   .     A
C199   C201    1.402   .     A
C199   H223    1.083   .     S
C200   H224    1.083   .     S
C200   C202    1.402   .     A
C202   C27     1.467   1_565 S
Cu203  Cu204   2.679   .     S
Cu203  O210    1.953   .     S
Cu203  O214    1.970   .     S
Cu203  N206    2.013   .     S
Cu203  O211    1.970   .     S
Cu203  O207    1.956   .     S
Cu204  N205    2.013   .     S
Cu204  O209    1.953   .     S
Cu204  O213    1.970   .     S
Cu204  O208    1.956   .     S
Cu204  O212    1.970   .     S
F215   C247    1.363   .     S
F216   C306    1.362   1_455 S
C233   C253    1.459   .     S
C233   O265    1.295   .     A
C233   O267    1.293   .     A
C234   C254    1.459   .     S
C234   O266    1.294   .     A
C234   O268    1.294   .     A
C235   C237    1.407   .     A
C235   C243    1.408   .     A
C235   F283    1.357   .     S
C236   F284    1.357   .     S
C236   C238    1.407   .     A
C236   C244    1.410   .     A
C237   F285    1.353   .     S
C237   N263    1.371   .     A
C238   N264    1.367   .     A
C238   F286    1.354   .     S
C239   H287    1.080   .     S
C239   N263    1.367   .     A
C239   C241    1.410   .     A
C240   H288    1.081   .     S
C240   N264    1.364   .     A
C240   C242    1.409   .     A
C241   C243    1.412   .     A
C241   F289    1.357   .     S
C242   C244    1.414   .     A
C242   F290    1.357   .     S
C243   C592    1.516   1_554 S
C244   C591    1.516   .     S
C245   O269    1.286   .     A
C245   C247    1.435   .     S
C245   O271    1.289   .     A
C246   O270    1.285   .     A
C246   C248    1.434   .     S
C246   O272    1.290   .     A
C248   C305    1.344   .     S
C248   F332    1.362   .     S
C249   C259    1.406   .     A
C249   F275    1.358   .     S
C249   C251    1.391   .     A
C250   C260    1.406   .     A
C250   F276    1.358   .     S
C250   C252    1.391   .     A
C251   H277    1.083   .     S
C251   C253    1.401   .     A
C252   H278    1.083   .     S
C252   C254    1.401   .     A
C253   C255    1.401   .     A
C254   C256    1.401   .     A
C255   C257    1.389   .     A
C255   H279    1.083   .     S
C256   H280    1.083   .     S
C256   C258    1.390   .     A
C257   C259    1.402   .     A
C257   H281    1.083   .     S
C258   H282    1.083   .     S
C258   C260    1.402   .     A
C260   C85     1.467   1_565 S
Cu261  Cu262   2.679   .     S
Cu261  O268    1.953   .     S
Cu261  O272    1.970   .     S
Cu261  N264    2.013   .     S
Cu261  O269    1.970   .     S
Cu261  O265    1.956   .     S
Cu262  N263    2.013   .     S
Cu262  O267    1.953   .     S
Cu262  O271    1.970   .     S
Cu262  O266    1.956   .     S
Cu262  O270    1.970   .     S
F273   C305    1.363   .     S
C291   C311    1.459   .     S
C291   O323    1.295   .     A
C291   O325    1.293   .     A
C292   C312    1.459   .     S
C292   O324    1.294   .     A
C292   O326    1.294   .     A
C293   C295    1.407   .     A
C293   C301    1.408   .     A
C293   F341    1.357   .     S
C294   F342    1.357   .     S
C294   C296    1.407   .     A
C294   C302    1.410   .     A
C295   F343    1.353   .     S
C295   N321    1.371   .     A
C296   N322    1.367   .     A
C296   F344    1.354   .     S
C297   H345    1.080   .     S
C297   N321    1.367   .     A
C297   C299    1.410   .     A
C298   H346    1.081   .     S
C298   N322    1.364   .     A
C298   C300    1.409   .     A
C299   C301    1.412   .     A
C299   F347    1.357   .     S
C300   C302    1.414   .     A
C300   F348    1.357   .     S
C301   C650    1.516   1_554 S
C302   C649    1.516   .     S
C303   O327    1.286   .     A
C303   C305    1.435   .     S
C303   O329    1.289   .     A
C304   O328    1.285   .     A
C304   C306    1.434   .     S
C304   O330    1.290   .     A
C306   C189    1.344   1_655 S
C306   F216    1.362   1_655 S
C307   C317    1.406   .     A
C307   F333    1.358   .     S
C307   C309    1.391   .     A
C308   C318    1.406   .     A
C308   F334    1.358   .     S
C308   C310    1.391   .     A
C309   H335    1.083   .     S
C309   C311    1.401   .     A
C310   H336    1.083   .     S
C310   C312    1.401   .     A
C311   C313    1.401   .     A
C312   C314    1.401   .     A
C313   C315    1.389   .     A
C313   H337    1.083   .     S
C314   H338    1.083   .     S
C314   C316    1.390   .     A
C315   C317    1.402   .     A
C315   H339    1.083   .     S
C316   H340    1.083   .     S
C316   C318    1.402   .     A
C318   C143    1.467   1_565 S
Cu319  Cu320   2.679   .     S
Cu319  O326    1.953   .     S
Cu319  O330    1.970   .     S
Cu319  N322    2.013   .     S
Cu319  O327    1.970   .     S
Cu319  O323    1.956   .     S
Cu320  N321    2.013   .     S
Cu320  O325    1.953   .     S
Cu320  O329    1.970   .     S
Cu320  O324    1.956   .     S
Cu320  O328    1.970   .     S
F331   C189    1.363   1_655 S
C349   C369    1.459   .     S
C349   O381    1.295   .     A
C349   O383    1.293   .     A
C350   C370    1.459   .     S
C350   O382    1.294   .     A
C350   O384    1.294   .     A
C351   C353    1.407   .     A
C351   C359    1.408   .     A
C351   F399    1.357   .     S
C352   F400    1.357   .     S
C352   C354    1.407   .     A
C352   C360    1.410   .     A
C353   F401    1.353   .     S
C353   N379    1.371   .     A
C354   N380    1.367   .     A
C354   F402    1.354   .     S
C355   H403    1.080   .     S
C355   N379    1.367   .     A
C355   C357    1.410   .     A
C356   H404    1.081   .     S
C356   N380    1.364   .     A
C356   C358    1.409   .     A
C357   C359    1.412   .     A
C357   F405    1.357   .     S
C358   C360    1.414   .     A
C358   F406    1.357   .     S
C360   C11     1.516   1_556 S
C361   O385    1.286   .     A
C361   C363    1.435   .     S
C361   O387    1.289   .     A
C362   O386    1.285   .     A
C362   C364    1.434   .     S
C362   O388    1.290   .     A
C363   C480    1.344   1_455 S
C363   F505    1.363   1_455 S
C364   C421    1.344   .     S
C364   F448    1.362   .     S
C365   C375    1.406   .     A
C365   F391    1.358   .     S
C365   C367    1.391   .     A
C366   C376    1.406   .     A
C366   F392    1.358   .     S
C366   C368    1.391   .     A
C367   H393    1.083   .     S
C367   C369    1.401   .     A
C368   H394    1.083   .     S
C368   C370    1.401   .     A
C369   C371    1.401   .     A
C370   C372    1.401   .     A
C371   C373    1.389   .     A
C371   H395    1.083   .     S
C372   H396    1.083   .     S
C372   C374    1.390   .     A
C373   C375    1.402   .     A
C373   H397    1.083   .     S
C374   H398    1.083   .     S
C374   C376    1.402   .     A
C375   C550    1.467   1_545 S
C376   C549    1.467   .     S
Cu377  Cu378   2.679   .     S
Cu377  O384    1.953   .     S
Cu377  O388    1.970   .     S
Cu377  N380    2.013   .     S
Cu377  O385    1.970   .     S
Cu377  O381    1.956   .     S
Cu378  N379    2.013   .     S
Cu378  O383    1.953   .     S
Cu378  O387    1.970   .     S
Cu378  O382    1.956   .     S
Cu378  O386    1.970   .     S
F389   C421    1.363   .     S
F390   C480    1.362   1_455 S
C407   C427    1.459   .     S
C407   O439    1.295   .     A
C407   O441    1.293   .     A
C408   C428    1.459   .     S
C408   O440    1.294   .     A
C408   O442    1.294   .     A
C409   C411    1.407   .     A
C409   C417    1.408   .     A
C409   F457    1.357   .     S
C410   F458    1.357   .     S
C410   C412    1.407   .     A
C410   C418    1.410   .     A
C411   F459    1.353   .     S
C411   N437    1.371   .     A
C412   N438    1.367   .     A
C412   F460    1.354   .     S
C413   H461    1.080   .     S
C413   N437    1.367   .     A
C413   C415    1.410   .     A
C414   H462    1.081   .     S
C414   N438    1.364   .     A
C414   C416    1.409   .     A
C415   C417    1.412   .     A
C415   F463    1.357   .     S
C416   C418    1.414   .     A
C416   F464    1.357   .     S
C418   C69     1.516   1_556 S
C419   O443    1.286   .     A
C419   C421    1.435   .     S
C419   O445    1.289   .     A
C420   O444    1.285   .     A
C420   C422    1.434   .     S
C420   O446    1.290   .     A
C422   C479    1.344   .     S
C422   F506    1.362   .     S
C423   C433    1.406   .     A
C423   F449    1.358   .     S
C423   C425    1.391   .     A
C424   C434    1.406   .     A
C424   F450    1.358   .     S
C424   C426    1.391   .     A
C425   H451    1.083   .     S
C425   C427    1.401   .     A
C426   H452    1.083   .     S
C426   C428    1.401   .     A
C427   C429    1.401   .     A
C428   C430    1.401   .     A
C429   C431    1.389   .     A
C429   H453    1.083   .     S
C430   H454    1.083   .     S
C430   C432    1.390   .     A
C431   C433    1.402   .     A
C431   H455    1.083   .     S
C432   H456    1.083   .     S
C432   C434    1.402   .     A
C433   C608    1.467   1_545 S
C434   C607    1.467   .     S
Cu435  Cu436   2.679   .     S
Cu435  O442    1.953   .     S
Cu435  O446    1.970   .     S
Cu435  N438    2.013   .     S
Cu435  O443    1.970   .     S
Cu435  O439    1.956   .     S
Cu436  N437    2.013   .     S
Cu436  O441    1.953   .     S
Cu436  O445    1.970   .     S
Cu436  O440    1.956   .     S
Cu436  O444    1.970   .     S
F447   C479    1.363   .     S
C465   C485    1.459   .     S
C465   O497    1.295   .     A
C465   O499    1.293   .     A
C466   C486    1.459   .     S
C466   O498    1.294   .     A
C466   O500    1.294   .     A
C467   C469    1.407   .     A
C467   C475    1.408   .     A
C467   F515    1.357   .     S
C468   F516    1.357   .     S
C468   C470    1.407   .     A
C468   C476    1.410   .     A
C469   F517    1.353   .     S
C469   N495    1.371   .     A
C470   N496    1.367   .     A
C470   F518    1.354   .     S
C471   H519    1.080   .     S
C471   N495    1.367   .     A
C471   C473    1.410   .     A
C472   H520    1.081   .     S
C472   N496    1.364   .     A
C472   C474    1.409   .     A
C473   C475    1.412   .     A
C473   F521    1.357   .     S
C474   C476    1.414   .     A
C474   F522    1.357   .     S
C476   C127    1.516   1_556 S
C477   O501    1.286   .     A
C477   C479    1.435   .     S
C477   O503    1.289   .     A
C478   O502    1.285   .     A
C478   C480    1.434   .     S
C478   O504    1.290   .     A
C480   C363    1.344   1_655 S
C480   F390    1.362   1_655 S
C481   C491    1.406   .     A
C481   F507    1.358   .     S
C481   C483    1.391   .     A
C482   C492    1.406   .     A
C482   F508    1.358   .     S
C482   C484    1.391   .     A
C483   H509    1.083   .     S
C483   C485    1.401   .     A
C484   H510    1.083   .     S
C484   C486    1.401   .     A
C485   C487    1.401   .     A
C486   C488    1.401   .     A
C487   C489    1.389   .     A
C487   H511    1.083   .     S
C488   H512    1.083   .     S
C488   C490    1.390   .     A
C489   C491    1.402   .     A
C489   H513    1.083   .     S
C490   H514    1.083   .     S
C490   C492    1.402   .     A
C491   C666    1.467   1_545 S
C492   C665    1.467   .     S
Cu493  Cu494   2.679   .     S
Cu493  O500    1.953   .     S
Cu493  O504    1.970   .     S
Cu493  N496    2.013   .     S
Cu493  O501    1.970   .     S
Cu493  O497    1.956   .     S
Cu494  N495    2.013   .     S
Cu494  O499    1.953   .     S
Cu494  O503    1.970   .     S
Cu494  O498    1.956   .     S
Cu494  O502    1.970   .     S
F505   C363    1.363   1_655 S
C523   C543    1.459   .     S
C523   O555    1.295   .     A
C523   O557    1.293   .     A
C524   C544    1.459   .     S
C524   O556    1.294   .     A
C524   O558    1.294   .     A
C525   C527    1.407   .     A
C525   C533    1.408   .     A
C525   F573    1.357   .     S
C526   F574    1.357   .     S
C526   C528    1.407   .     A
C526   C534    1.410   .     A
C527   F575    1.353   .     S
C527   N553    1.371   .     A
C528   N554    1.367   .     A
C528   F576    1.354   .     S
C529   H577    1.080   .     S
C529   N553    1.367   .     A
C529   C531    1.410   .     A
C530   H578    1.081   .     S
C530   N554    1.364   .     A
C530   C532    1.409   .     A
C531   C533    1.412   .     A
C531   F579    1.357   .     S
C532   C534    1.414   .     A
C532   F580    1.357   .     S
C534   C185    1.516   1_556 S
C535   O559    1.286   .     A
C535   C537    1.435   .     S
C535   O561    1.289   .     A
C536   O560    1.285   .     A
C536   C538    1.434   .     S
C536   O562    1.290   .     A
C537   C654    1.344   1_455 S
C537   F679    1.363   1_455 S
C538   C595    1.344   .     S
C538   F622    1.362   .     S
C539   C549    1.406   .     A
C539   F565    1.358   .     S
C539   C541    1.391   .     A
C540   C550    1.406   .     A
C540   F566    1.358   .     S
C540   C542    1.391   .     A
C541   H567    1.083   .     S
C541   C543    1.401   .     A
C542   H568    1.083   .     S
C542   C544    1.401   .     A
C543   C545    1.401   .     A
C544   C546    1.401   .     A
C545   C547    1.389   .     A
C545   H569    1.083   .     S
C546   H570    1.083   .     S
C546   C548    1.390   .     A
C547   C549    1.402   .     A
C547   H571    1.083   .     S
C548   H572    1.083   .     S
C548   C550    1.402   .     A
C550   C375    1.467   1_565 S
Cu551  Cu552   2.679   .     S
Cu551  O558    1.953   .     S
Cu551  O562    1.970   .     S
Cu551  N554    2.013   .     S
Cu551  O559    1.970   .     S
Cu551  O555    1.956   .     S
Cu552  N553    2.013   .     S
Cu552  O557    1.953   .     S
Cu552  O561    1.970   .     S
Cu552  O556    1.956   .     S
Cu552  O560    1.970   .     S
F563   C595    1.363   .     S
F564   C654    1.362   1_455 S
C581   C601    1.459   .     S
C581   O613    1.295   .     A
C581   O615    1.293   .     A
C582   C602    1.459   .     S
C582   O614    1.294   .     A
C582   O616    1.294   .     A
C583   C585    1.407   .     A
C583   C591    1.408   .     A
C583   F631    1.357   .     S
C584   F632    1.357   .     S
C584   C586    1.407   .     A
C584   C592    1.410   .     A
C585   F633    1.353   .     S
C585   N611    1.371   .     A
C586   N612    1.367   .     A
C586   F634    1.354   .     S
C587   H635    1.080   .     S
C587   N611    1.367   .     A
C587   C589    1.410   .     A
C588   H636    1.081   .     S
C588   N612    1.364   .     A
C588   C590    1.409   .     A
C589   C591    1.412   .     A
C589   F637    1.357   .     S
C590   C592    1.414   .     A
C590   F638    1.357   .     S
C592   C243    1.516   1_556 S
C593   O617    1.286   .     A
C593   C595    1.435   .     S
C593   O619    1.289   .     A
C594   O618    1.285   .     A
C594   C596    1.434   .     S
C594   O620    1.290   .     A
C596   C653    1.344   .     S
C596   F680    1.362   .     S
C597   C607    1.406   .     A
C597   F623    1.358   .     S
C597   C599    1.391   .     A
C598   C608    1.406   .     A
C598   F624    1.358   .     S
C598   C600    1.391   .     A
C599   H625    1.083   .     S
C599   C601    1.401   .     A
C600   H626    1.083   .     S
C600   C602    1.401   .     A
C601   C603    1.401   .     A
C602   C604    1.401   .     A
C603   C605    1.389   .     A
C603   H627    1.083   .     S
C604   H628    1.083   .     S
C604   C606    1.390   .     A
C605   C607    1.402   .     A
C605   H629    1.083   .     S
C606   H630    1.083   .     S
C606   C608    1.402   .     A
C608   C433    1.467   1_565 S
Cu609  Cu610   2.679   .     S
Cu609  O616    1.953   .     S
Cu609  O620    1.970   .     S
Cu609  N612    2.013   .     S
Cu609  O617    1.970   .     S
Cu609  O613    1.956   .     S
Cu610  N611    2.013   .     S
Cu610  O615    1.953   .     S
Cu610  O619    1.970   .     S
Cu610  O614    1.956   .     S
Cu610  O618    1.970   .     S
F621   C653    1.363   .     S
C639   C659    1.459   .     S
C639   O671    1.295   .     A
C639   O673    1.293   .     A
C640   C660    1.459   .     S
C640   O672    1.294   .     A
C640   O674    1.294   .     A
C641   C643    1.407   .     A
C641   C649    1.408   .     A
C641   F689    1.357   .     S
C642   F690    1.357   .     S
C642   C644    1.407   .     A
C642   C650    1.410   .     A
C643   F691    1.353   .     S
C643   N669    1.371   .     A
C644   N670    1.367   .     A
C644   F692    1.354   .     S
C645   H693    1.080   .     S
C645   N669    1.367   .     A
C645   C647    1.410   .     A
C646   H694    1.081   .     S
C646   N670    1.364   .     A
C646   C648    1.409   .     A
C647   C649    1.412   .     A
C647   F695    1.357   .     S
C648   C650    1.414   .     A
C648   F696    1.357   .     S
C650   C301    1.516   1_556 S
C651   O675    1.286   .     A
C651   C653    1.435   .     S
C651   O677    1.289   .     A
C652   O676    1.285   .     A
C652   C654    1.434   .     S
C652   O678    1.290   .     A
C654   C537    1.344   1_655 S
C654   F564    1.362   1_655 S
C655   C665    1.406   .     A
C655   F681    1.358   .     S
C655   C657    1.391   .     A
C656   C666    1.406   .     A
C656   F682    1.358   .     S
C656   C658    1.391   .     A
C657   H683    1.083   .     S
C657   C659    1.401   .     A
C658   H684    1.083   .     S
C658   C660    1.401   .     A
C659   C661    1.401   .     A
C660   C662    1.401   .     A
C661   C663    1.389   .     A
C661   H685    1.083   .     S
C662   H686    1.083   .     S
C662   C664    1.390   .     A
C663   C665    1.402   .     A
C663   H687    1.083   .     S
C664   H688    1.083   .     S
C664   C666    1.402   .     A
C666   C491    1.467   1_565 S
Cu667  Cu668   2.679   .     S
Cu667  O674    1.953   .     S
Cu667  O678    1.970   .     S
Cu667  N670    2.013   .     S
Cu667  O675    1.970   .     S
Cu667  O671    1.956   .     S
Cu668  N669    2.013   .     S
Cu668  O673    1.953   .     S
Cu668  O677    1.970   .     S
Cu668  O672    1.956   .     S
Cu668  O676    1.970   .     S
F679   C537    1.363   1_655 S
