data_str_m2_o1_o18_pcu_sym.165
_audit_creation_date              2020-01-03
_audit_creation_method            'Materials Studio'
_symmetry_space_group_name_H-M    'P1'
_symmetry_Int_Tables_number       1
_symmetry_cell_setting            triclinic
loop_
_symmetry_equiv_pos_as_xyz
  x,y,z
_cell_length_a                    28.7852
_cell_length_b                    32.5220
_cell_length_c                    31.8280
_cell_angle_alpha                 89.8411
_cell_angle_beta                  72.2583
_cell_angle_gamma                 90.1718
loop_
_atom_site_label
_atom_site_type_symbol
_atom_site_fract_x
_atom_site_fract_y
_atom_site_fract_z
_atom_site_U_iso_or_equiv
_atom_site_adp_type
_atom_site_occupancy
O1     O     0.03958   0.10655   0.25000   0.00000  Uiso   1.00
O2     O     0.29375   0.22678   0.25000   0.00000  Uiso   1.00
O3     O     0.29372   0.10654   0.25000   0.00000  Uiso   1.00
O4     O     0.03961   0.22679   0.25000   0.00000  Uiso   1.00
C5     C     0.33329   0.08745   0.24937   0.00000  Uiso   1.00
C6     C     0.33310   0.24580   0.25120   0.00000  Uiso   1.00
O7     O     0.01852   0.16668   0.31492   0.00000  Uiso   1.00
O8     O     0.31481   0.16666   0.18508   0.00000  Uiso   1.00
O9     O     0.27267   0.16667   0.31492   0.00000  Uiso   1.00
O10    O     0.06067   0.16667   0.18508   0.00000  Uiso   1.00
C11    C     0.30531   0.16557   0.33538   0.00000  Uiso   1.00
C12    C     0.02808   0.16566   0.16459   0.00000  Uiso   1.00
Cu13   Cu    0.04689   0.16667   0.25000   0.00000  Uiso   1.00
Cu14   Cu    0.28645   0.16666   0.25000   0.00000  Uiso   1.00
C15    C     0.28886   0.15849   0.38273   0.00000  Uiso   1.00
C16    C     0.04478   0.15889   0.11719   0.00000  Uiso   1.00
C17    C     0.30203   0.12673   0.44692   0.00000  Uiso   1.00
C18    C     0.03148   0.12785   0.05289   0.00000  Uiso   1.00
C19    C     0.31895   0.13716   0.40223   0.00000  Uiso   1.00
C20    C     0.01438   0.13834   0.09744   0.00000  Uiso   1.00
C21    C     0.24055   0.16673   0.40711   0.00000  Uiso   1.00
C22    C     0.09349   0.16649   0.09302   0.00000  Uiso   1.00
C23    C     0.22356   0.15703   0.45215   0.00000  Uiso   1.00
C24    C     0.11039   0.15725   0.04791   0.00000  Uiso   1.00
C25    C     0.25695   0.14213   0.47298   0.00000  Uiso   1.00
C26    C     0.07672   0.14322   0.02696   0.00000  Uiso   1.00
C27    C     0.17373   0.15842   0.47665   0.00000  Uiso   1.00
C28    C     0.16025   0.15814   0.02343   0.00000  Uiso   1.00
C29    C     0.19650   0.15187   0.04409   0.00000  Uiso   1.00
C30    C     0.13730   0.15324   0.45594   0.00000  Uiso   1.00
C31    C     0.24340   0.14110   0.01906   0.00000  Uiso   1.00
C32    C     0.09012   0.14282   0.48091   0.00000  Uiso   1.00
H33    H     0.26897   0.13269   0.03605   0.00000  Uiso   1.00
H34    H     0.06417   0.13522   0.46396   0.00000  Uiso   1.00
H35    H     0.11764   0.18025   0.10931   0.00000  Uiso   1.00
H36    H     0.21676   0.18126   0.39096   0.00000  Uiso   1.00
H37    H     0.31191   0.12822   0.11720   0.00000  Uiso   1.00
H38    H     0.02102   0.12639   0.38220   0.00000  Uiso   1.00
H39    H     0.18790   0.14979   0.07956   0.00000  Uiso   1.00
H40    H     0.14579   0.15172   0.42047   0.00000  Uiso   1.00
C41    C     0.29844   0.02011   0.23479   0.00000  Uiso   1.00
C42    C     0.03281   0.31288   0.26844   0.00000  Uiso   1.00
C43    C     0.29933   0.31091   0.23626   0.00000  Uiso   1.00
C44    C     0.03260   0.02219   0.26614   0.00000  Uiso   1.00
H45    H     0.27388   0.29370   0.22395   0.00000  Uiso   1.00
H46    H     0.05736   0.03943   0.27916   0.00000  Uiso   1.00
C47    C     0.33294   0.29043   0.25248   0.00000  Uiso   1.00
C48    C     0.33265   0.04272   0.24939   0.00000  Uiso   1.00
C49    C     0.18030   0.14731   0.28269   0.00000  Uiso   1.00
C50    C     0.15297   0.18630   0.21750   0.00000  Uiso   1.00
H51    H     0.18982   0.13146   0.30881   0.00000  Uiso   1.00
H52    H     0.14341   0.20224   0.19145   0.00000  Uiso   1.00
C53    C     0.13089   0.14732   0.28268   0.00000  Uiso   1.00
C54    C     0.20237   0.18630   0.21752   0.00000  Uiso   1.00
H55    H     0.10369   0.13144   0.30878   0.00000  Uiso   1.00
H56    H     0.22956   0.20228   0.19148   0.00000  Uiso   1.00
N57    N     0.11736   0.16668   0.24999   0.00000  Uiso   1.00
N58    N     0.21597   0.16666   0.25001   0.00000  Uiso   1.00
O59    O     0.32512   0.09701   0.46390   0.00000  Uiso   1.00
H60    H     0.01915   0.08536   0.43988   0.00000  Uiso   1.00
O61    O     0.00873   0.09774   0.03609   0.00000  Uiso   1.00
H62    H     0.31550   0.08519   0.06034   0.00000  Uiso   1.00
C63    C     0.26069   0.03924   0.21841   0.00000  Uiso   1.00
C64    C     0.21240   0.04135   0.24616   0.00000  Uiso   1.00
C65    C     0.17621   0.05860   0.23080   0.00000  Uiso   1.00
C66    C     0.18780   0.07350   0.18764   0.00000  Uiso   1.00
C67    C     0.23570   0.07109   0.15970   0.00000  Uiso   1.00
C68    C     0.27225   0.05416   0.17501   0.00000  Uiso   1.00
H69    H     0.20290   0.02979   0.27968   0.00000  Uiso   1.00
H70    H     0.13921   0.06052   0.25243   0.00000  Uiso   1.00
H71    H     0.15967   0.08685   0.17584   0.00000  Uiso   1.00
H72    H     0.24429   0.08224   0.12615   0.00000  Uiso   1.00
H73    H     0.30928   0.05242   0.15311   0.00000  Uiso   1.00
C74    C     0.06687   0.29299   0.28895   0.00000  Uiso   1.00
C75    C     0.04885   0.27094   0.32870   0.00000  Uiso   1.00
C76    C     0.08102   0.25062   0.34688   0.00000  Uiso   1.00
C77    C     0.13128   0.25243   0.32572   0.00000  Uiso   1.00
C78    C     0.14944   0.27458   0.28637   0.00000  Uiso   1.00
C79    C     0.11739   0.29480   0.26798   0.00000  Uiso   1.00
H80    H     0.00996   0.26905   0.34517   0.00000  Uiso   1.00
H81    H     0.06698   0.23330   0.37724   0.00000  Uiso   1.00
H82    H     0.15613   0.23652   0.33969   0.00000  Uiso   1.00
H83    H     0.18831   0.27573   0.26990   0.00000  Uiso   1.00
H84    H     0.13180   0.31111   0.23701   0.00000  Uiso   1.00
O85    O     0.37291   0.10655   0.25000   0.00000  Uiso   1.00
O86    O     0.62709   0.22678   0.25000   0.00000  Uiso   1.00
O87    O     0.62706   0.10654   0.25000   0.00000  Uiso   1.00
O88    O     0.37294   0.22679   0.25000   0.00000  Uiso   1.00
C89    C     0.66663   0.08745   0.24937   0.00000  Uiso   1.00
C90    C     0.66643   0.24580   0.25120   0.00000  Uiso   1.00
O91    O     0.35186   0.16668   0.31492   0.00000  Uiso   1.00
O92    O     0.64814   0.16666   0.18508   0.00000  Uiso   1.00
O93    O     0.60600   0.16667   0.31492   0.00000  Uiso   1.00
O94    O     0.39400   0.16667   0.18508   0.00000  Uiso   1.00
C95    C     0.63864   0.16557   0.33538   0.00000  Uiso   1.00
C96    C     0.36142   0.16566   0.16459   0.00000  Uiso   1.00
Cu97   Cu    0.38022   0.16667   0.25000   0.00000  Uiso   1.00
Cu98   Cu    0.61978   0.16666   0.25000   0.00000  Uiso   1.00
C99    C     0.62219   0.15849   0.38273   0.00000  Uiso   1.00
C100   C     0.37811   0.15889   0.11719   0.00000  Uiso   1.00
C101   C     0.63536   0.12673   0.44692   0.00000  Uiso   1.00
C102   C     0.36482   0.12785   0.05289   0.00000  Uiso   1.00
C103   C     0.65228   0.13716   0.40223   0.00000  Uiso   1.00
C104   C     0.34771   0.13834   0.09744   0.00000  Uiso   1.00
C105   C     0.57389   0.16673   0.40711   0.00000  Uiso   1.00
C106   C     0.42683   0.16649   0.09302   0.00000  Uiso   1.00
C107   C     0.55690   0.15703   0.45215   0.00000  Uiso   1.00
C108   C     0.44372   0.15725   0.04791   0.00000  Uiso   1.00
C109   C     0.59028   0.14213   0.47298   0.00000  Uiso   1.00
C110   C     0.41005   0.14322   0.02696   0.00000  Uiso   1.00
C111   C     0.50706   0.15842   0.47665   0.00000  Uiso   1.00
C112   C     0.49359   0.15814   0.02343   0.00000  Uiso   1.00
C113   C     0.52983   0.15187   0.04409   0.00000  Uiso   1.00
C114   C     0.47063   0.15324   0.45594   0.00000  Uiso   1.00
C115   C     0.57674   0.14110   0.01906   0.00000  Uiso   1.00
C116   C     0.42345   0.14282   0.48091   0.00000  Uiso   1.00
H117   H     0.60230   0.13269   0.03605   0.00000  Uiso   1.00
H118   H     0.39751   0.13522   0.46396   0.00000  Uiso   1.00
H119   H     0.45098   0.18025   0.10931   0.00000  Uiso   1.00
H120   H     0.55009   0.18126   0.39096   0.00000  Uiso   1.00
H121   H     0.64524   0.12822   0.11720   0.00000  Uiso   1.00
H122   H     0.35435   0.12639   0.38220   0.00000  Uiso   1.00
H123   H     0.52123   0.14979   0.07956   0.00000  Uiso   1.00
H124   H     0.47912   0.15172   0.42047   0.00000  Uiso   1.00
C125   C     0.63178   0.02011   0.23479   0.00000  Uiso   1.00
C126   C     0.36614   0.31288   0.26844   0.00000  Uiso   1.00
C127   C     0.63266   0.31091   0.23626   0.00000  Uiso   1.00
C128   C     0.36594   0.02219   0.26614   0.00000  Uiso   1.00
H129   H     0.60722   0.29370   0.22395   0.00000  Uiso   1.00
H130   H     0.39069   0.03943   0.27916   0.00000  Uiso   1.00
C131   C     0.66628   0.29043   0.25248   0.00000  Uiso   1.00
C132   C     0.66598   0.04272   0.24939   0.00000  Uiso   1.00
C133   C     0.51363   0.14731   0.28269   0.00000  Uiso   1.00
C134   C     0.48631   0.18630   0.21750   0.00000  Uiso   1.00
H135   H     0.52316   0.13146   0.30881   0.00000  Uiso   1.00
H136   H     0.47675   0.20224   0.19145   0.00000  Uiso   1.00
C137   C     0.46423   0.14732   0.28268   0.00000  Uiso   1.00
C138   C     0.53571   0.18630   0.21752   0.00000  Uiso   1.00
H139   H     0.43702   0.13144   0.30878   0.00000  Uiso   1.00
H140   H     0.56290   0.20228   0.19148   0.00000  Uiso   1.00
N141   N     0.45069   0.16668   0.24999   0.00000  Uiso   1.00
N142   N     0.54931   0.16666   0.25001   0.00000  Uiso   1.00
O143   O     0.65846   0.09701   0.46390   0.00000  Uiso   1.00
H144   H     0.35248   0.08536   0.43988   0.00000  Uiso   1.00
O145   O     0.34206   0.09774   0.03609   0.00000  Uiso   1.00
H146   H     0.64884   0.08519   0.06034   0.00000  Uiso   1.00
C147   C     0.59402   0.03924   0.21841   0.00000  Uiso   1.00
C148   C     0.54574   0.04135   0.24616   0.00000  Uiso   1.00
C149   C     0.50955   0.05860   0.23080   0.00000  Uiso   1.00
C150   C     0.52114   0.07350   0.18764   0.00000  Uiso   1.00
C151   C     0.56903   0.07109   0.15970   0.00000  Uiso   1.00
C152   C     0.60558   0.05416   0.17501   0.00000  Uiso   1.00
H153   H     0.53623   0.02979   0.27968   0.00000  Uiso   1.00
H154   H     0.47254   0.06052   0.25243   0.00000  Uiso   1.00
H155   H     0.49300   0.08685   0.17584   0.00000  Uiso   1.00
H156   H     0.57762   0.08224   0.12615   0.00000  Uiso   1.00
H157   H     0.64261   0.05242   0.15311   0.00000  Uiso   1.00
C158   C     0.40020   0.29299   0.28895   0.00000  Uiso   1.00
C159   C     0.38219   0.27094   0.32870   0.00000  Uiso   1.00
C160   C     0.41436   0.25062   0.34688   0.00000  Uiso   1.00
C161   C     0.46461   0.25243   0.32572   0.00000  Uiso   1.00
C162   C     0.48277   0.27458   0.28637   0.00000  Uiso   1.00
C163   C     0.45073   0.29480   0.26798   0.00000  Uiso   1.00
H164   H     0.34329   0.26905   0.34517   0.00000  Uiso   1.00
H165   H     0.40031   0.23330   0.37724   0.00000  Uiso   1.00
H166   H     0.48946   0.23652   0.33969   0.00000  Uiso   1.00
H167   H     0.52165   0.27573   0.26990   0.00000  Uiso   1.00
H168   H     0.46513   0.31111   0.23701   0.00000  Uiso   1.00
O169   O     0.70625   0.10655   0.25000   0.00000  Uiso   1.00
O170   O     0.96042   0.22678   0.25000   0.00000  Uiso   1.00
O171   O     0.96039   0.10654   0.25000   0.00000  Uiso   1.00
O172   O     0.70628   0.22679   0.25000   0.00000  Uiso   1.00
C173   C     0.99996   0.08745   0.24937   0.00000  Uiso   1.00
C174   C     0.99977   0.24580   0.25120   0.00000  Uiso   1.00
O175   O     0.68519   0.16668   0.31492   0.00000  Uiso   1.00
O176   O     0.98148   0.16666   0.18508   0.00000  Uiso   1.00
O177   O     0.93933   0.16667   0.31492   0.00000  Uiso   1.00
O178   O     0.72733   0.16667   0.18508   0.00000  Uiso   1.00
C179   C     0.97198   0.16557   0.33538   0.00000  Uiso   1.00
C180   C     0.69475   0.16566   0.16459   0.00000  Uiso   1.00
Cu181  Cu    0.71355   0.16667   0.25000   0.00000  Uiso   1.00
Cu182  Cu    0.95311   0.16666   0.25000   0.00000  Uiso   1.00
C183   C     0.95553   0.15849   0.38273   0.00000  Uiso   1.00
C184   C     0.71145   0.15889   0.11719   0.00000  Uiso   1.00
C185   C     0.96869   0.12673   0.44692   0.00000  Uiso   1.00
C186   C     0.69815   0.12785   0.05289   0.00000  Uiso   1.00
C187   C     0.98562   0.13716   0.40223   0.00000  Uiso   1.00
C188   C     0.68105   0.13834   0.09744   0.00000  Uiso   1.00
C189   C     0.90722   0.16673   0.40711   0.00000  Uiso   1.00
C190   C     0.76016   0.16649   0.09302   0.00000  Uiso   1.00
C191   C     0.89023   0.15703   0.45215   0.00000  Uiso   1.00
C192   C     0.77706   0.15725   0.04791   0.00000  Uiso   1.00
C193   C     0.92362   0.14213   0.47298   0.00000  Uiso   1.00
C194   C     0.74338   0.14322   0.02696   0.00000  Uiso   1.00
C195   C     0.84040   0.15842   0.47665   0.00000  Uiso   1.00
C196   C     0.82692   0.15814   0.02343   0.00000  Uiso   1.00
C197   C     0.86316   0.15187   0.04409   0.00000  Uiso   1.00
C198   C     0.80396   0.15324   0.45594   0.00000  Uiso   1.00
C199   C     0.91007   0.14110   0.01906   0.00000  Uiso   1.00
C200   C     0.75679   0.14282   0.48091   0.00000  Uiso   1.00
H201   H     0.93563   0.13269   0.03605   0.00000  Uiso   1.00
H202   H     0.73084   0.13522   0.46396   0.00000  Uiso   1.00
H203   H     0.78431   0.18025   0.10931   0.00000  Uiso   1.00
H204   H     0.88343   0.18126   0.39096   0.00000  Uiso   1.00
H205   H     0.97857   0.12822   0.11720   0.00000  Uiso   1.00
H206   H     0.68769   0.12639   0.38220   0.00000  Uiso   1.00
H207   H     0.85457   0.14979   0.07956   0.00000  Uiso   1.00
H208   H     0.81245   0.15172   0.42047   0.00000  Uiso   1.00
C209   C     0.96511   0.02011   0.23479   0.00000  Uiso   1.00
C210   C     0.69947   0.31288   0.26844   0.00000  Uiso   1.00
C211   C     0.96599   0.31091   0.23626   0.00000  Uiso   1.00
C212   C     0.69927   0.02219   0.26614   0.00000  Uiso   1.00
H213   H     0.94055   0.29370   0.22395   0.00000  Uiso   1.00
H214   H     0.72403   0.03943   0.27916   0.00000  Uiso   1.00
C215   C     0.99961   0.29043   0.25248   0.00000  Uiso   1.00
C216   C     0.99931   0.04272   0.24939   0.00000  Uiso   1.00
C217   C     0.84696   0.14731   0.28269   0.00000  Uiso   1.00
C218   C     0.81964   0.18630   0.21750   0.00000  Uiso   1.00
H219   H     0.85649   0.13146   0.30881   0.00000  Uiso   1.00
H220   H     0.81008   0.20224   0.19145   0.00000  Uiso   1.00
C221   C     0.79756   0.14732   0.28268   0.00000  Uiso   1.00
C222   C     0.86904   0.18630   0.21752   0.00000  Uiso   1.00
H223   H     0.77035   0.13144   0.30878   0.00000  Uiso   1.00
H224   H     0.89623   0.20228   0.19148   0.00000  Uiso   1.00
N225   N     0.78403   0.16668   0.24999   0.00000  Uiso   1.00
N226   N     0.88264   0.16666   0.25001   0.00000  Uiso   1.00
O227   O     0.99179   0.09701   0.46390   0.00000  Uiso   1.00
H228   H     0.68582   0.08536   0.43988   0.00000  Uiso   1.00
O229   O     0.67540   0.09774   0.03609   0.00000  Uiso   1.00
H230   H     0.98217   0.08519   0.06034   0.00000  Uiso   1.00
C231   C     0.92736   0.03924   0.21841   0.00000  Uiso   1.00
C232   C     0.87907   0.04135   0.24616   0.00000  Uiso   1.00
C233   C     0.84288   0.05860   0.23080   0.00000  Uiso   1.00
C234   C     0.85447   0.07350   0.18764   0.00000  Uiso   1.00
C235   C     0.90237   0.07109   0.15970   0.00000  Uiso   1.00
C236   C     0.93891   0.05416   0.17501   0.00000  Uiso   1.00
H237   H     0.86956   0.02979   0.27968   0.00000  Uiso   1.00
H238   H     0.80587   0.06052   0.25243   0.00000  Uiso   1.00
H239   H     0.82633   0.08685   0.17584   0.00000  Uiso   1.00
H240   H     0.91096   0.08224   0.12615   0.00000  Uiso   1.00
H241   H     0.97595   0.05242   0.15311   0.00000  Uiso   1.00
C242   C     0.73353   0.29299   0.28895   0.00000  Uiso   1.00
C243   C     0.71552   0.27094   0.32870   0.00000  Uiso   1.00
C244   C     0.74769   0.25062   0.34688   0.00000  Uiso   1.00
C245   C     0.79794   0.25243   0.32572   0.00000  Uiso   1.00
C246   C     0.81610   0.27458   0.28637   0.00000  Uiso   1.00
C247   C     0.78406   0.29480   0.26798   0.00000  Uiso   1.00
H248   H     0.67663   0.26905   0.34517   0.00000  Uiso   1.00
H249   H     0.73364   0.23330   0.37724   0.00000  Uiso   1.00
H250   H     0.82279   0.23652   0.33969   0.00000  Uiso   1.00
H251   H     0.85498   0.27573   0.26990   0.00000  Uiso   1.00
H252   H     0.79846   0.31111   0.23701   0.00000  Uiso   1.00
O253   O     0.03958   0.43989   0.25000   0.00000  Uiso   1.00
O254   O     0.29375   0.56011   0.25000   0.00000  Uiso   1.00
O255   O     0.29372   0.43988   0.25000   0.00000  Uiso   1.00
O256   O     0.03961   0.56012   0.25000   0.00000  Uiso   1.00
C257   C     0.33329   0.42079   0.24937   0.00000  Uiso   1.00
C258   C     0.33310   0.57914   0.25120   0.00000  Uiso   1.00
O259   O     0.01852   0.50001   0.31492   0.00000  Uiso   1.00
O260   O     0.31481   0.49999   0.18508   0.00000  Uiso   1.00
O261   O     0.27267   0.50000   0.31492   0.00000  Uiso   1.00
O262   O     0.06067   0.50000   0.18508   0.00000  Uiso   1.00
C263   C     0.30531   0.49890   0.33538   0.00000  Uiso   1.00
C264   C     0.02808   0.49899   0.16459   0.00000  Uiso   1.00
Cu265  Cu    0.04689   0.50001   0.25000   0.00000  Uiso   1.00
Cu266  Cu    0.28645   0.49999   0.25000   0.00000  Uiso   1.00
C267   C     0.28886   0.49182   0.38273   0.00000  Uiso   1.00
C268   C     0.04478   0.49223   0.11719   0.00000  Uiso   1.00
C269   C     0.30203   0.46006   0.44692   0.00000  Uiso   1.00
C270   C     0.03148   0.46118   0.05289   0.00000  Uiso   1.00
C271   C     0.31895   0.47049   0.40223   0.00000  Uiso   1.00
C272   C     0.01438   0.47168   0.09744   0.00000  Uiso   1.00
C273   C     0.24055   0.50006   0.40711   0.00000  Uiso   1.00
C274   C     0.09349   0.49983   0.09302   0.00000  Uiso   1.00
C275   C     0.22356   0.49036   0.45215   0.00000  Uiso   1.00
C276   C     0.11039   0.49058   0.04791   0.00000  Uiso   1.00
C277   C     0.25695   0.47546   0.47298   0.00000  Uiso   1.00
C278   C     0.07672   0.47655   0.02696   0.00000  Uiso   1.00
C279   C     0.17373   0.49175   0.47665   0.00000  Uiso   1.00
C280   C     0.16025   0.49147   0.02343   0.00000  Uiso   1.00
C281   C     0.19650   0.48520   0.04409   0.00000  Uiso   1.00
C282   C     0.13730   0.48657   0.45594   0.00000  Uiso   1.00
C283   C     0.24340   0.47443   0.01906   0.00000  Uiso   1.00
C284   C     0.09012   0.47615   0.48091   0.00000  Uiso   1.00
H285   H     0.26897   0.46603   0.03605   0.00000  Uiso   1.00
H286   H     0.06417   0.46855   0.46396   0.00000  Uiso   1.00
H287   H     0.11764   0.51358   0.10931   0.00000  Uiso   1.00
H288   H     0.21676   0.51460   0.39096   0.00000  Uiso   1.00
H289   H     0.31191   0.46155   0.11720   0.00000  Uiso   1.00
H290   H     0.02102   0.45972   0.38220   0.00000  Uiso   1.00
H291   H     0.18790   0.48312   0.07956   0.00000  Uiso   1.00
H292   H     0.14579   0.48505   0.42047   0.00000  Uiso   1.00
C293   C     0.29844   0.35345   0.23479   0.00000  Uiso   1.00
C294   C     0.03281   0.64621   0.26844   0.00000  Uiso   1.00
C295   C     0.29933   0.64424   0.23626   0.00000  Uiso   1.00
C296   C     0.03260   0.35552   0.26614   0.00000  Uiso   1.00
H297   H     0.27388   0.62704   0.22395   0.00000  Uiso   1.00
H298   H     0.05736   0.37276   0.27916   0.00000  Uiso   1.00
C299   C     0.33294   0.62376   0.25248   0.00000  Uiso   1.00
C300   C     0.33265   0.37606   0.24939   0.00000  Uiso   1.00
C301   C     0.18030   0.48065   0.28269   0.00000  Uiso   1.00
C302   C     0.15297   0.51963   0.21750   0.00000  Uiso   1.00
H303   H     0.18982   0.46479   0.30881   0.00000  Uiso   1.00
H304   H     0.14341   0.53557   0.19145   0.00000  Uiso   1.00
C305   C     0.13089   0.48065   0.28268   0.00000  Uiso   1.00
C306   C     0.20237   0.51963   0.21752   0.00000  Uiso   1.00
H307   H     0.10369   0.46477   0.30878   0.00000  Uiso   1.00
H308   H     0.22956   0.53561   0.19148   0.00000  Uiso   1.00
N309   N     0.11736   0.50001   0.24999   0.00000  Uiso   1.00
N310   N     0.21597   0.49999   0.25001   0.00000  Uiso   1.00
O311   O     0.32512   0.43035   0.46390   0.00000  Uiso   1.00
H312   H     0.01915   0.41870   0.43988   0.00000  Uiso   1.00
O313   O     0.00873   0.43108   0.03609   0.00000  Uiso   1.00
H314   H     0.31550   0.41852   0.06034   0.00000  Uiso   1.00
C315   C     0.26069   0.37257   0.21841   0.00000  Uiso   1.00
C316   C     0.21240   0.37468   0.24616   0.00000  Uiso   1.00
C317   C     0.17621   0.39194   0.23080   0.00000  Uiso   1.00
C318   C     0.18780   0.40683   0.18764   0.00000  Uiso   1.00
C319   C     0.23570   0.40442   0.15970   0.00000  Uiso   1.00
C320   C     0.27225   0.38750   0.17501   0.00000  Uiso   1.00
H321   H     0.20290   0.36313   0.27968   0.00000  Uiso   1.00
H322   H     0.13921   0.39385   0.25243   0.00000  Uiso   1.00
H323   H     0.15967   0.42018   0.17584   0.00000  Uiso   1.00
H324   H     0.24429   0.41557   0.12615   0.00000  Uiso   1.00
H325   H     0.30928   0.38575   0.15311   0.00000  Uiso   1.00
C326   C     0.06687   0.62632   0.28895   0.00000  Uiso   1.00
C327   C     0.04885   0.60427   0.32870   0.00000  Uiso   1.00
C328   C     0.08102   0.58396   0.34688   0.00000  Uiso   1.00
C329   C     0.13128   0.58577   0.32572   0.00000  Uiso   1.00
C330   C     0.14944   0.60792   0.28637   0.00000  Uiso   1.00
C331   C     0.11739   0.62813   0.26798   0.00000  Uiso   1.00
H332   H     0.00996   0.60238   0.34517   0.00000  Uiso   1.00
H333   H     0.06698   0.56663   0.37724   0.00000  Uiso   1.00
H334   H     0.15613   0.56985   0.33969   0.00000  Uiso   1.00
H335   H     0.18831   0.60907   0.26990   0.00000  Uiso   1.00
H336   H     0.13180   0.64445   0.23701   0.00000  Uiso   1.00
O337   O     0.37291   0.43989   0.25000   0.00000  Uiso   1.00
O338   O     0.62709   0.56011   0.25000   0.00000  Uiso   1.00
O339   O     0.62706   0.43988   0.25000   0.00000  Uiso   1.00
O340   O     0.37294   0.56012   0.25000   0.00000  Uiso   1.00
C341   C     0.66663   0.42079   0.24937   0.00000  Uiso   1.00
C342   C     0.66643   0.57914   0.25120   0.00000  Uiso   1.00
O343   O     0.35186   0.50001   0.31492   0.00000  Uiso   1.00
O344   O     0.64814   0.49999   0.18508   0.00000  Uiso   1.00
O345   O     0.60600   0.50000   0.31492   0.00000  Uiso   1.00
O346   O     0.39400   0.50000   0.18508   0.00000  Uiso   1.00
C347   C     0.63864   0.49890   0.33538   0.00000  Uiso   1.00
C348   C     0.36142   0.49899   0.16459   0.00000  Uiso   1.00
Cu349  Cu    0.38022   0.50001   0.25000   0.00000  Uiso   1.00
Cu350  Cu    0.61978   0.49999   0.25000   0.00000  Uiso   1.00
C351   C     0.62219   0.49182   0.38273   0.00000  Uiso   1.00
C352   C     0.37811   0.49223   0.11719   0.00000  Uiso   1.00
C353   C     0.63536   0.46006   0.44692   0.00000  Uiso   1.00
C354   C     0.36482   0.46118   0.05289   0.00000  Uiso   1.00
C355   C     0.65228   0.47049   0.40223   0.00000  Uiso   1.00
C356   C     0.34771   0.47168   0.09744   0.00000  Uiso   1.00
C357   C     0.57389   0.50006   0.40711   0.00000  Uiso   1.00
C358   C     0.42683   0.49983   0.09302   0.00000  Uiso   1.00
C359   C     0.55690   0.49036   0.45215   0.00000  Uiso   1.00
C360   C     0.44372   0.49058   0.04791   0.00000  Uiso   1.00
C361   C     0.59028   0.47546   0.47298   0.00000  Uiso   1.00
C362   C     0.41005   0.47655   0.02696   0.00000  Uiso   1.00
C363   C     0.50706   0.49175   0.47665   0.00000  Uiso   1.00
C364   C     0.49359   0.49147   0.02343   0.00000  Uiso   1.00
C365   C     0.52983   0.48520   0.04409   0.00000  Uiso   1.00
C366   C     0.47063   0.48657   0.45594   0.00000  Uiso   1.00
C367   C     0.57674   0.47443   0.01906   0.00000  Uiso   1.00
C368   C     0.42345   0.47615   0.48091   0.00000  Uiso   1.00
H369   H     0.60230   0.46603   0.03605   0.00000  Uiso   1.00
H370   H     0.39751   0.46855   0.46396   0.00000  Uiso   1.00
H371   H     0.45098   0.51358   0.10931   0.00000  Uiso   1.00
H372   H     0.55009   0.51460   0.39096   0.00000  Uiso   1.00
H373   H     0.64524   0.46155   0.11720   0.00000  Uiso   1.00
H374   H     0.35435   0.45972   0.38220   0.00000  Uiso   1.00
H375   H     0.52123   0.48312   0.07956   0.00000  Uiso   1.00
H376   H     0.47912   0.48505   0.42047   0.00000  Uiso   1.00
C377   C     0.63178   0.35345   0.23479   0.00000  Uiso   1.00
C378   C     0.36614   0.64621   0.26844   0.00000  Uiso   1.00
C379   C     0.63266   0.64424   0.23626   0.00000  Uiso   1.00
C380   C     0.36594   0.35552   0.26614   0.00000  Uiso   1.00
H381   H     0.60722   0.62704   0.22395   0.00000  Uiso   1.00
H382   H     0.39069   0.37276   0.27916   0.00000  Uiso   1.00
C383   C     0.66628   0.62376   0.25248   0.00000  Uiso   1.00
C384   C     0.66598   0.37606   0.24939   0.00000  Uiso   1.00
C385   C     0.51363   0.48065   0.28269   0.00000  Uiso   1.00
C386   C     0.48631   0.51963   0.21750   0.00000  Uiso   1.00
H387   H     0.52316   0.46479   0.30881   0.00000  Uiso   1.00
H388   H     0.47675   0.53557   0.19145   0.00000  Uiso   1.00
C389   C     0.46423   0.48065   0.28268   0.00000  Uiso   1.00
C390   C     0.53571   0.51963   0.21752   0.00000  Uiso   1.00
H391   H     0.43702   0.46477   0.30878   0.00000  Uiso   1.00
H392   H     0.56290   0.53561   0.19148   0.00000  Uiso   1.00
N393   N     0.45069   0.50001   0.24999   0.00000  Uiso   1.00
N394   N     0.54931   0.49999   0.25001   0.00000  Uiso   1.00
O395   O     0.65846   0.43035   0.46390   0.00000  Uiso   1.00
H396   H     0.35248   0.41870   0.43988   0.00000  Uiso   1.00
O397   O     0.34206   0.43108   0.03609   0.00000  Uiso   1.00
H398   H     0.64884   0.41852   0.06034   0.00000  Uiso   1.00
C399   C     0.59402   0.37257   0.21841   0.00000  Uiso   1.00
C400   C     0.54574   0.37468   0.24616   0.00000  Uiso   1.00
C401   C     0.50955   0.39194   0.23080   0.00000  Uiso   1.00
C402   C     0.52114   0.40683   0.18764   0.00000  Uiso   1.00
C403   C     0.56903   0.40442   0.15970   0.00000  Uiso   1.00
C404   C     0.60558   0.38750   0.17501   0.00000  Uiso   1.00
H405   H     0.53623   0.36313   0.27968   0.00000  Uiso   1.00
H406   H     0.47254   0.39385   0.25243   0.00000  Uiso   1.00
H407   H     0.49300   0.42018   0.17584   0.00000  Uiso   1.00
H408   H     0.57762   0.41557   0.12615   0.00000  Uiso   1.00
H409   H     0.64261   0.38575   0.15311   0.00000  Uiso   1.00
C410   C     0.40020   0.62632   0.28895   0.00000  Uiso   1.00
C411   C     0.38219   0.60427   0.32870   0.00000  Uiso   1.00
C412   C     0.41436   0.58396   0.34688   0.00000  Uiso   1.00
C413   C     0.46461   0.58577   0.32572   0.00000  Uiso   1.00
C414   C     0.48277   0.60792   0.28637   0.00000  Uiso   1.00
C415   C     0.45073   0.62813   0.26798   0.00000  Uiso   1.00
H416   H     0.34329   0.60238   0.34517   0.00000  Uiso   1.00
H417   H     0.40031   0.56663   0.37724   0.00000  Uiso   1.00
H418   H     0.48946   0.56985   0.33969   0.00000  Uiso   1.00
H419   H     0.52165   0.60907   0.26990   0.00000  Uiso   1.00
H420   H     0.46513   0.64445   0.23701   0.00000  Uiso   1.00
O421   O     0.70625   0.43989   0.25000   0.00000  Uiso   1.00
O422   O     0.96042   0.56011   0.25000   0.00000  Uiso   1.00
O423   O     0.96039   0.43988   0.25000   0.00000  Uiso   1.00
O424   O     0.70628   0.56012   0.25000   0.00000  Uiso   1.00
C425   C     0.99996   0.42079   0.24937   0.00000  Uiso   1.00
C426   C     0.99977   0.57914   0.25120   0.00000  Uiso   1.00
O427   O     0.68519   0.50001   0.31492   0.00000  Uiso   1.00
O428   O     0.98148   0.49999   0.18508   0.00000  Uiso   1.00
O429   O     0.93933   0.50000   0.31492   0.00000  Uiso   1.00
O430   O     0.72733   0.50000   0.18508   0.00000  Uiso   1.00
C431   C     0.97198   0.49890   0.33538   0.00000  Uiso   1.00
C432   C     0.69475   0.49899   0.16459   0.00000  Uiso   1.00
Cu433  Cu    0.71355   0.50001   0.25000   0.00000  Uiso   1.00
Cu434  Cu    0.95311   0.49999   0.25000   0.00000  Uiso   1.00
C435   C     0.95553   0.49182   0.38273   0.00000  Uiso   1.00
C436   C     0.71145   0.49223   0.11719   0.00000  Uiso   1.00
C437   C     0.96869   0.46006   0.44692   0.00000  Uiso   1.00
C438   C     0.69815   0.46118   0.05289   0.00000  Uiso   1.00
C439   C     0.98562   0.47049   0.40223   0.00000  Uiso   1.00
C440   C     0.68105   0.47168   0.09744   0.00000  Uiso   1.00
C441   C     0.90722   0.50006   0.40711   0.00000  Uiso   1.00
C442   C     0.76016   0.49983   0.09302   0.00000  Uiso   1.00
C443   C     0.89023   0.49036   0.45215   0.00000  Uiso   1.00
C444   C     0.77706   0.49058   0.04791   0.00000  Uiso   1.00
C445   C     0.92362   0.47546   0.47298   0.00000  Uiso   1.00
C446   C     0.74338   0.47655   0.02696   0.00000  Uiso   1.00
C447   C     0.84040   0.49175   0.47665   0.00000  Uiso   1.00
C448   C     0.82692   0.49147   0.02343   0.00000  Uiso   1.00
C449   C     0.86316   0.48520   0.04409   0.00000  Uiso   1.00
C450   C     0.80396   0.48657   0.45594   0.00000  Uiso   1.00
C451   C     0.91007   0.47443   0.01906   0.00000  Uiso   1.00
C452   C     0.75679   0.47615   0.48091   0.00000  Uiso   1.00
H453   H     0.93563   0.46603   0.03605   0.00000  Uiso   1.00
H454   H     0.73084   0.46855   0.46396   0.00000  Uiso   1.00
H455   H     0.78431   0.51358   0.10931   0.00000  Uiso   1.00
H456   H     0.88343   0.51460   0.39096   0.00000  Uiso   1.00
H457   H     0.97857   0.46155   0.11720   0.00000  Uiso   1.00
H458   H     0.68769   0.45972   0.38220   0.00000  Uiso   1.00
H459   H     0.85457   0.48312   0.07956   0.00000  Uiso   1.00
H460   H     0.81245   0.48505   0.42047   0.00000  Uiso   1.00
C461   C     0.96511   0.35345   0.23479   0.00000  Uiso   1.00
C462   C     0.69947   0.64621   0.26844   0.00000  Uiso   1.00
C463   C     0.96599   0.64424   0.23626   0.00000  Uiso   1.00
C464   C     0.69927   0.35552   0.26614   0.00000  Uiso   1.00
H465   H     0.94055   0.62704   0.22395   0.00000  Uiso   1.00
H466   H     0.72403   0.37276   0.27916   0.00000  Uiso   1.00
C467   C     0.99961   0.62376   0.25248   0.00000  Uiso   1.00
C468   C     0.99931   0.37606   0.24939   0.00000  Uiso   1.00
C469   C     0.84696   0.48065   0.28269   0.00000  Uiso   1.00
C470   C     0.81964   0.51963   0.21750   0.00000  Uiso   1.00
H471   H     0.85649   0.46479   0.30881   0.00000  Uiso   1.00
H472   H     0.81008   0.53557   0.19145   0.00000  Uiso   1.00
C473   C     0.79756   0.48065   0.28268   0.00000  Uiso   1.00
C474   C     0.86904   0.51963   0.21752   0.00000  Uiso   1.00
H475   H     0.77035   0.46477   0.30878   0.00000  Uiso   1.00
H476   H     0.89623   0.53561   0.19148   0.00000  Uiso   1.00
N477   N     0.78403   0.50001   0.24999   0.00000  Uiso   1.00
N478   N     0.88264   0.49999   0.25001   0.00000  Uiso   1.00
O479   O     0.99179   0.43035   0.46390   0.00000  Uiso   1.00
H480   H     0.68582   0.41870   0.43988   0.00000  Uiso   1.00
O481   O     0.67540   0.43108   0.03609   0.00000  Uiso   1.00
H482   H     0.98217   0.41852   0.06034   0.00000  Uiso   1.00
C483   C     0.92736   0.37257   0.21841   0.00000  Uiso   1.00
C484   C     0.87907   0.37468   0.24616   0.00000  Uiso   1.00
C485   C     0.84288   0.39194   0.23080   0.00000  Uiso   1.00
C486   C     0.85447   0.40683   0.18764   0.00000  Uiso   1.00
C487   C     0.90237   0.40442   0.15970   0.00000  Uiso   1.00
C488   C     0.93891   0.38750   0.17501   0.00000  Uiso   1.00
H489   H     0.86956   0.36313   0.27968   0.00000  Uiso   1.00
H490   H     0.80587   0.39385   0.25243   0.00000  Uiso   1.00
H491   H     0.82633   0.42018   0.17584   0.00000  Uiso   1.00
H492   H     0.91096   0.41557   0.12615   0.00000  Uiso   1.00
H493   H     0.97595   0.38575   0.15311   0.00000  Uiso   1.00
C494   C     0.73353   0.62632   0.28895   0.00000  Uiso   1.00
C495   C     0.71552   0.60427   0.32870   0.00000  Uiso   1.00
C496   C     0.74769   0.58396   0.34688   0.00000  Uiso   1.00
C497   C     0.79794   0.58577   0.32572   0.00000  Uiso   1.00
C498   C     0.81610   0.60792   0.28637   0.00000  Uiso   1.00
C499   C     0.78406   0.62813   0.26798   0.00000  Uiso   1.00
H500   H     0.67663   0.60238   0.34517   0.00000  Uiso   1.00
H501   H     0.73364   0.56663   0.37724   0.00000  Uiso   1.00
H502   H     0.82279   0.56985   0.33969   0.00000  Uiso   1.00
H503   H     0.85498   0.60907   0.26990   0.00000  Uiso   1.00
H504   H     0.79846   0.64445   0.23701   0.00000  Uiso   1.00
O505   O     0.03958   0.77322   0.25000   0.00000  Uiso   1.00
O506   O     0.29375   0.89345   0.25000   0.00000  Uiso   1.00
O507   O     0.29372   0.77321   0.25000   0.00000  Uiso   1.00
O508   O     0.03961   0.89346   0.25000   0.00000  Uiso   1.00
C509   C     0.33329   0.75412   0.24937   0.00000  Uiso   1.00
C510   C     0.33310   0.91247   0.25120   0.00000  Uiso   1.00
O511   O     0.01852   0.83334   0.31492   0.00000  Uiso   1.00
O512   O     0.31481   0.83332   0.18508   0.00000  Uiso   1.00
O513   O     0.27267   0.83333   0.31492   0.00000  Uiso   1.00
O514   O     0.06067   0.83333   0.18508   0.00000  Uiso   1.00
C515   C     0.30531   0.83223   0.33538   0.00000  Uiso   1.00
C516   C     0.02808   0.83233   0.16459   0.00000  Uiso   1.00
Cu517  Cu    0.04689   0.83334   0.25000   0.00000  Uiso   1.00
Cu518  Cu    0.28645   0.83333   0.25000   0.00000  Uiso   1.00
C519   C     0.28886   0.82515   0.38273   0.00000  Uiso   1.00
C520   C     0.04478   0.82556   0.11719   0.00000  Uiso   1.00
C521   C     0.30203   0.79339   0.44692   0.00000  Uiso   1.00
C522   C     0.03148   0.79451   0.05289   0.00000  Uiso   1.00
C523   C     0.31895   0.80382   0.40223   0.00000  Uiso   1.00
C524   C     0.01438   0.80501   0.09744   0.00000  Uiso   1.00
C525   C     0.24055   0.83340   0.40711   0.00000  Uiso   1.00
C526   C     0.09349   0.83316   0.09302   0.00000  Uiso   1.00
C527   C     0.22356   0.82369   0.45215   0.00000  Uiso   1.00
C528   C     0.11039   0.82392   0.04791   0.00000  Uiso   1.00
C529   C     0.25695   0.80879   0.47298   0.00000  Uiso   1.00
C530   C     0.07672   0.80988   0.02696   0.00000  Uiso   1.00
C531   C     0.17373   0.82508   0.47665   0.00000  Uiso   1.00
C532   C     0.16025   0.82480   0.02343   0.00000  Uiso   1.00
C533   C     0.19650   0.81853   0.04409   0.00000  Uiso   1.00
C534   C     0.13730   0.81991   0.45594   0.00000  Uiso   1.00
C535   C     0.24340   0.80776   0.01906   0.00000  Uiso   1.00
C536   C     0.09012   0.80948   0.48091   0.00000  Uiso   1.00
H537   H     0.26897   0.79936   0.03605   0.00000  Uiso   1.00
H538   H     0.06417   0.80188   0.46396   0.00000  Uiso   1.00
H539   H     0.11764   0.84692   0.10931   0.00000  Uiso   1.00
H540   H     0.21676   0.84793   0.39096   0.00000  Uiso   1.00
H541   H     0.31191   0.79489   0.11720   0.00000  Uiso   1.00
H542   H     0.02102   0.79306   0.38220   0.00000  Uiso   1.00
H543   H     0.18790   0.81645   0.07956   0.00000  Uiso   1.00
H544   H     0.14579   0.81838   0.42047   0.00000  Uiso   1.00
C545   C     0.29844   0.68678   0.23479   0.00000  Uiso   1.00
C546   C     0.03281   0.97954   0.26844   0.00000  Uiso   1.00
C547   C     0.29933   0.97757   0.23626   0.00000  Uiso   1.00
C548   C     0.03260   0.68885   0.26614   0.00000  Uiso   1.00
H549   H     0.27388   0.96037   0.22395   0.00000  Uiso   1.00
H550   H     0.05736   0.70610   0.27916   0.00000  Uiso   1.00
C551   C     0.33294   0.95709   0.25248   0.00000  Uiso   1.00
C552   C     0.33265   0.70939   0.24939   0.00000  Uiso   1.00
C553   C     0.18030   0.81398   0.28269   0.00000  Uiso   1.00
C554   C     0.15297   0.85296   0.21750   0.00000  Uiso   1.00
H555   H     0.18982   0.79812   0.30881   0.00000  Uiso   1.00
H556   H     0.14341   0.86891   0.19145   0.00000  Uiso   1.00
C557   C     0.13089   0.81399   0.28268   0.00000  Uiso   1.00
C558   C     0.20237   0.85297   0.21752   0.00000  Uiso   1.00
H559   H     0.10369   0.79810   0.30878   0.00000  Uiso   1.00
H560   H     0.22956   0.86894   0.19148   0.00000  Uiso   1.00
N561   N     0.11736   0.83334   0.24999   0.00000  Uiso   1.00
N562   N     0.21597   0.83332   0.25001   0.00000  Uiso   1.00
O563   O     0.32512   0.76368   0.46390   0.00000  Uiso   1.00
H564   H     0.01915   0.75203   0.43988   0.00000  Uiso   1.00
O565   O     0.00873   0.76441   0.03609   0.00000  Uiso   1.00
H566   H     0.31550   0.75186   0.06034   0.00000  Uiso   1.00
C567   C     0.26069   0.70590   0.21841   0.00000  Uiso   1.00
C568   C     0.21240   0.70802   0.24616   0.00000  Uiso   1.00
C569   C     0.17621   0.72527   0.23080   0.00000  Uiso   1.00
C570   C     0.18780   0.74017   0.18764   0.00000  Uiso   1.00
C571   C     0.23570   0.73776   0.15970   0.00000  Uiso   1.00
C572   C     0.27225   0.72083   0.17501   0.00000  Uiso   1.00
H573   H     0.20290   0.69646   0.27968   0.00000  Uiso   1.00
H574   H     0.13921   0.72719   0.25243   0.00000  Uiso   1.00
H575   H     0.15967   0.75351   0.17584   0.00000  Uiso   1.00
H576   H     0.24429   0.74890   0.12615   0.00000  Uiso   1.00
H577   H     0.30928   0.71908   0.15311   0.00000  Uiso   1.00
C578   C     0.06687   0.95965   0.28895   0.00000  Uiso   1.00
C579   C     0.04885   0.93761   0.32870   0.00000  Uiso   1.00
C580   C     0.08102   0.91729   0.34688   0.00000  Uiso   1.00
C581   C     0.13128   0.91910   0.32572   0.00000  Uiso   1.00
C582   C     0.14944   0.94125   0.28637   0.00000  Uiso   1.00
C583   C     0.11739   0.96146   0.26798   0.00000  Uiso   1.00
H584   H     0.00996   0.93571   0.34517   0.00000  Uiso   1.00
H585   H     0.06698   0.89996   0.37724   0.00000  Uiso   1.00
H586   H     0.15613   0.90318   0.33969   0.00000  Uiso   1.00
H587   H     0.18831   0.94240   0.26990   0.00000  Uiso   1.00
H588   H     0.13180   0.97778   0.23701   0.00000  Uiso   1.00
O589   O     0.37291   0.77322   0.25000   0.00000  Uiso   1.00
O590   O     0.62709   0.89345   0.25000   0.00000  Uiso   1.00
O591   O     0.62706   0.77321   0.25000   0.00000  Uiso   1.00
O592   O     0.37294   0.89346   0.25000   0.00000  Uiso   1.00
C593   C     0.66663   0.75412   0.24937   0.00000  Uiso   1.00
C594   C     0.66643   0.91247   0.25120   0.00000  Uiso   1.00
O595   O     0.35186   0.83334   0.31492   0.00000  Uiso   1.00
O596   O     0.64814   0.83332   0.18508   0.00000  Uiso   1.00
O597   O     0.60600   0.83333   0.31492   0.00000  Uiso   1.00
O598   O     0.39400   0.83333   0.18508   0.00000  Uiso   1.00
C599   C     0.63864   0.83223   0.33538   0.00000  Uiso   1.00
C600   C     0.36142   0.83233   0.16459   0.00000  Uiso   1.00
Cu601  Cu    0.38022   0.83334   0.25000   0.00000  Uiso   1.00
Cu602  Cu    0.61978   0.83333   0.25000   0.00000  Uiso   1.00
C603   C     0.62219   0.82515   0.38273   0.00000  Uiso   1.00
C604   C     0.37811   0.82556   0.11719   0.00000  Uiso   1.00
C605   C     0.63536   0.79339   0.44692   0.00000  Uiso   1.00
C606   C     0.36482   0.79451   0.05289   0.00000  Uiso   1.00
C607   C     0.65228   0.80382   0.40223   0.00000  Uiso   1.00
C608   C     0.34771   0.80501   0.09744   0.00000  Uiso   1.00
C609   C     0.57389   0.83340   0.40711   0.00000  Uiso   1.00
C610   C     0.42683   0.83316   0.09302   0.00000  Uiso   1.00
C611   C     0.55690   0.82369   0.45215   0.00000  Uiso   1.00
C612   C     0.44372   0.82392   0.04791   0.00000  Uiso   1.00
C613   C     0.59028   0.80879   0.47298   0.00000  Uiso   1.00
C614   C     0.41005   0.80988   0.02696   0.00000  Uiso   1.00
C615   C     0.50706   0.82508   0.47665   0.00000  Uiso   1.00
C616   C     0.49359   0.82480   0.02343   0.00000  Uiso   1.00
C617   C     0.52983   0.81853   0.04409   0.00000  Uiso   1.00
C618   C     0.47063   0.81991   0.45594   0.00000  Uiso   1.00
C619   C     0.57674   0.80776   0.01906   0.00000  Uiso   1.00
C620   C     0.42345   0.80948   0.48091   0.00000  Uiso   1.00
H621   H     0.60230   0.79936   0.03605   0.00000  Uiso   1.00
H622   H     0.39751   0.80188   0.46396   0.00000  Uiso   1.00
H623   H     0.45098   0.84692   0.10931   0.00000  Uiso   1.00
H624   H     0.55009   0.84793   0.39096   0.00000  Uiso   1.00
H625   H     0.64524   0.79489   0.11720   0.00000  Uiso   1.00
H626   H     0.35435   0.79306   0.38220   0.00000  Uiso   1.00
H627   H     0.52123   0.81645   0.07956   0.00000  Uiso   1.00
H628   H     0.47912   0.81838   0.42047   0.00000  Uiso   1.00
C629   C     0.63178   0.68678   0.23479   0.00000  Uiso   1.00
C630   C     0.36614   0.97954   0.26844   0.00000  Uiso   1.00
C631   C     0.63266   0.97757   0.23626   0.00000  Uiso   1.00
C632   C     0.36594   0.68885   0.26614   0.00000  Uiso   1.00
H633   H     0.60722   0.96037   0.22395   0.00000  Uiso   1.00
H634   H     0.39069   0.70610   0.27916   0.00000  Uiso   1.00
C635   C     0.66628   0.95709   0.25248   0.00000  Uiso   1.00
C636   C     0.66598   0.70939   0.24939   0.00000  Uiso   1.00
C637   C     0.51363   0.81398   0.28269   0.00000  Uiso   1.00
C638   C     0.48631   0.85296   0.21750   0.00000  Uiso   1.00
H639   H     0.52316   0.79812   0.30881   0.00000  Uiso   1.00
H640   H     0.47675   0.86891   0.19145   0.00000  Uiso   1.00
C641   C     0.46423   0.81399   0.28268   0.00000  Uiso   1.00
C642   C     0.53571   0.85297   0.21752   0.00000  Uiso   1.00
H643   H     0.43702   0.79810   0.30878   0.00000  Uiso   1.00
H644   H     0.56290   0.86894   0.19148   0.00000  Uiso   1.00
N645   N     0.45069   0.83334   0.24999   0.00000  Uiso   1.00
N646   N     0.54931   0.83332   0.25001   0.00000  Uiso   1.00
O647   O     0.65846   0.76368   0.46390   0.00000  Uiso   1.00
H648   H     0.35248   0.75203   0.43988   0.00000  Uiso   1.00
O649   O     0.34206   0.76441   0.03609   0.00000  Uiso   1.00
H650   H     0.64884   0.75186   0.06034   0.00000  Uiso   1.00
C651   C     0.59402   0.70590   0.21841   0.00000  Uiso   1.00
C652   C     0.54574   0.70802   0.24616   0.00000  Uiso   1.00
C653   C     0.50955   0.72527   0.23080   0.00000  Uiso   1.00
C654   C     0.52114   0.74017   0.18764   0.00000  Uiso   1.00
C655   C     0.56903   0.73776   0.15970   0.00000  Uiso   1.00
C656   C     0.60558   0.72083   0.17501   0.00000  Uiso   1.00
H657   H     0.53623   0.69646   0.27968   0.00000  Uiso   1.00
H658   H     0.47254   0.72719   0.25243   0.00000  Uiso   1.00
H659   H     0.49300   0.75351   0.17584   0.00000  Uiso   1.00
H660   H     0.57762   0.74890   0.12615   0.00000  Uiso   1.00
H661   H     0.64261   0.71908   0.15311   0.00000  Uiso   1.00
C662   C     0.40020   0.95965   0.28895   0.00000  Uiso   1.00
C663   C     0.38219   0.93761   0.32870   0.00000  Uiso   1.00
C664   C     0.41436   0.91729   0.34688   0.00000  Uiso   1.00
C665   C     0.46461   0.91910   0.32572   0.00000  Uiso   1.00
C666   C     0.48277   0.94125   0.28637   0.00000  Uiso   1.00
C667   C     0.45073   0.96146   0.26798   0.00000  Uiso   1.00
H668   H     0.34329   0.93571   0.34517   0.00000  Uiso   1.00
H669   H     0.40031   0.89996   0.37724   0.00000  Uiso   1.00
H670   H     0.48946   0.90318   0.33969   0.00000  Uiso   1.00
H671   H     0.52165   0.94240   0.26990   0.00000  Uiso   1.00
H672   H     0.46513   0.97778   0.23701   0.00000  Uiso   1.00
O673   O     0.70625   0.77322   0.25000   0.00000  Uiso   1.00
O674   O     0.96042   0.89345   0.25000   0.00000  Uiso   1.00
O675   O     0.96039   0.77321   0.25000   0.00000  Uiso   1.00
O676   O     0.70628   0.89346   0.25000   0.00000  Uiso   1.00
C677   C     0.99996   0.75412   0.24937   0.00000  Uiso   1.00
C678   C     0.99977   0.91247   0.25120   0.00000  Uiso   1.00
O679   O     0.68519   0.83334   0.31492   0.00000  Uiso   1.00
O680   O     0.98148   0.83332   0.18508   0.00000  Uiso   1.00
O681   O     0.93933   0.83333   0.31492   0.00000  Uiso   1.00
O682   O     0.72733   0.83333   0.18508   0.00000  Uiso   1.00
C683   C     0.97198   0.83223   0.33538   0.00000  Uiso   1.00
C684   C     0.69475   0.83233   0.16459   0.00000  Uiso   1.00
Cu685  Cu    0.71355   0.83334   0.25000   0.00000  Uiso   1.00
Cu686  Cu    0.95311   0.83333   0.25000   0.00000  Uiso   1.00
C687   C     0.95553   0.82515   0.38273   0.00000  Uiso   1.00
C688   C     0.71145   0.82556   0.11719   0.00000  Uiso   1.00
C689   C     0.96869   0.79339   0.44692   0.00000  Uiso   1.00
C690   C     0.69815   0.79451   0.05289   0.00000  Uiso   1.00
C691   C     0.98562   0.80382   0.40223   0.00000  Uiso   1.00
C692   C     0.68105   0.80501   0.09744   0.00000  Uiso   1.00
C693   C     0.90722   0.83340   0.40711   0.00000  Uiso   1.00
C694   C     0.76016   0.83316   0.09302   0.00000  Uiso   1.00
C695   C     0.89023   0.82369   0.45215   0.00000  Uiso   1.00
C696   C     0.77706   0.82392   0.04791   0.00000  Uiso   1.00
C697   C     0.92362   0.80879   0.47298   0.00000  Uiso   1.00
C698   C     0.74338   0.80988   0.02696   0.00000  Uiso   1.00
C699   C     0.84040   0.82508   0.47665   0.00000  Uiso   1.00
C700   C     0.82692   0.82480   0.02343   0.00000  Uiso   1.00
C701   C     0.86316   0.81853   0.04409   0.00000  Uiso   1.00
C702   C     0.80396   0.81991   0.45594   0.00000  Uiso   1.00
C703   C     0.91007   0.80776   0.01906   0.00000  Uiso   1.00
C704   C     0.75679   0.80948   0.48091   0.00000  Uiso   1.00
H705   H     0.93563   0.79936   0.03605   0.00000  Uiso   1.00
H706   H     0.73084   0.80188   0.46396   0.00000  Uiso   1.00
H707   H     0.78431   0.84692   0.10931   0.00000  Uiso   1.00
H708   H     0.88343   0.84793   0.39096   0.00000  Uiso   1.00
H709   H     0.97857   0.79489   0.11720   0.00000  Uiso   1.00
H710   H     0.68769   0.79306   0.38220   0.00000  Uiso   1.00
H711   H     0.85457   0.81645   0.07956   0.00000  Uiso   1.00
H712   H     0.81245   0.81838   0.42047   0.00000  Uiso   1.00
C713   C     0.96511   0.68678   0.23479   0.00000  Uiso   1.00
C714   C     0.69947   0.97954   0.26844   0.00000  Uiso   1.00
C715   C     0.96599   0.97757   0.23626   0.00000  Uiso   1.00
C716   C     0.69927   0.68885   0.26614   0.00000  Uiso   1.00
H717   H     0.94055   0.96037   0.22395   0.00000  Uiso   1.00
H718   H     0.72403   0.70610   0.27916   0.00000  Uiso   1.00
C719   C     0.99961   0.95709   0.25248   0.00000  Uiso   1.00
C720   C     0.99931   0.70939   0.24939   0.00000  Uiso   1.00
C721   C     0.84696   0.81398   0.28269   0.00000  Uiso   1.00
C722   C     0.81964   0.85296   0.21750   0.00000  Uiso   1.00
H723   H     0.85649   0.79812   0.30881   0.00000  Uiso   1.00
H724   H     0.81008   0.86891   0.19145   0.00000  Uiso   1.00
C725   C     0.79756   0.81399   0.28268   0.00000  Uiso   1.00
C726   C     0.86904   0.85297   0.21752   0.00000  Uiso   1.00
H727   H     0.77035   0.79810   0.30878   0.00000  Uiso   1.00
H728   H     0.89623   0.86894   0.19148   0.00000  Uiso   1.00
N729   N     0.78403   0.83334   0.24999   0.00000  Uiso   1.00
N730   N     0.88264   0.83332   0.25001   0.00000  Uiso   1.00
O731   O     0.99179   0.76368   0.46390   0.00000  Uiso   1.00
H732   H     0.68582   0.75203   0.43988   0.00000  Uiso   1.00
O733   O     0.67540   0.76441   0.03609   0.00000  Uiso   1.00
H734   H     0.98217   0.75186   0.06034   0.00000  Uiso   1.00
C735   C     0.92736   0.70590   0.21841   0.00000  Uiso   1.00
C736   C     0.87907   0.70802   0.24616   0.00000  Uiso   1.00
C737   C     0.84288   0.72527   0.23080   0.00000  Uiso   1.00
C738   C     0.85447   0.74017   0.18764   0.00000  Uiso   1.00
C739   C     0.90237   0.73776   0.15970   0.00000  Uiso   1.00
C740   C     0.93891   0.72083   0.17501   0.00000  Uiso   1.00
H741   H     0.86956   0.69646   0.27968   0.00000  Uiso   1.00
H742   H     0.80587   0.72719   0.25243   0.00000  Uiso   1.00
H743   H     0.82633   0.75351   0.17584   0.00000  Uiso   1.00
H744   H     0.91096   0.74890   0.12615   0.00000  Uiso   1.00
H745   H     0.97595   0.71908   0.15311   0.00000  Uiso   1.00
C746   C     0.73353   0.95965   0.28895   0.00000  Uiso   1.00
C747   C     0.71552   0.93761   0.32870   0.00000  Uiso   1.00
C748   C     0.74769   0.91729   0.34688   0.00000  Uiso   1.00
C749   C     0.79794   0.91910   0.32572   0.00000  Uiso   1.00
C750   C     0.81610   0.94125   0.28637   0.00000  Uiso   1.00
C751   C     0.78406   0.96146   0.26798   0.00000  Uiso   1.00
H752   H     0.67663   0.93571   0.34517   0.00000  Uiso   1.00
H753   H     0.73364   0.89996   0.37724   0.00000  Uiso   1.00
H754   H     0.82279   0.90318   0.33969   0.00000  Uiso   1.00
H755   H     0.85498   0.94240   0.26990   0.00000  Uiso   1.00
H756   H     0.79846   0.97778   0.23701   0.00000  Uiso   1.00
O757   O     0.03958   0.10655   0.75000   0.00000  Uiso   1.00
O758   O     0.29375   0.22678   0.75000   0.00000  Uiso   1.00
O759   O     0.29372   0.10654   0.75000   0.00000  Uiso   1.00
O760   O     0.03961   0.22679   0.75000   0.00000  Uiso   1.00
C761   C     0.33329   0.08745   0.74937   0.00000  Uiso   1.00
C762   C     0.33310   0.24580   0.75120   0.00000  Uiso   1.00
O763   O     0.01852   0.16668   0.81492   0.00000  Uiso   1.00
O764   O     0.31481   0.16666   0.68508   0.00000  Uiso   1.00
O765   O     0.27267   0.16667   0.81492   0.00000  Uiso   1.00
O766   O     0.06067   0.16667   0.68508   0.00000  Uiso   1.00
C767   C     0.30531   0.16557   0.83538   0.00000  Uiso   1.00
C768   C     0.02808   0.16566   0.66459   0.00000  Uiso   1.00
Cu769  Cu    0.04689   0.16667   0.75000   0.00000  Uiso   1.00
Cu770  Cu    0.28645   0.16666   0.75000   0.00000  Uiso   1.00
C771   C     0.28886   0.15849   0.88273   0.00000  Uiso   1.00
C772   C     0.04478   0.15889   0.61719   0.00000  Uiso   1.00
C773   C     0.30203   0.12673   0.94692   0.00000  Uiso   1.00
C774   C     0.03148   0.12785   0.55289   0.00000  Uiso   1.00
C775   C     0.31895   0.13716   0.90223   0.00000  Uiso   1.00
C776   C     0.01438   0.13834   0.59744   0.00000  Uiso   1.00
C777   C     0.24055   0.16673   0.90711   0.00000  Uiso   1.00
C778   C     0.09349   0.16649   0.59302   0.00000  Uiso   1.00
C779   C     0.22356   0.15703   0.95215   0.00000  Uiso   1.00
C780   C     0.11039   0.15725   0.54791   0.00000  Uiso   1.00
C781   C     0.25695   0.14213   0.97298   0.00000  Uiso   1.00
C782   C     0.07672   0.14322   0.52696   0.00000  Uiso   1.00
C783   C     0.17373   0.15842   0.97665   0.00000  Uiso   1.00
C784   C     0.16025   0.15814   0.52343   0.00000  Uiso   1.00
C785   C     0.19650   0.15187   0.54409   0.00000  Uiso   1.00
C786   C     0.13730   0.15324   0.95594   0.00000  Uiso   1.00
C787   C     0.24340   0.14110   0.51906   0.00000  Uiso   1.00
C788   C     0.09012   0.14282   0.98091   0.00000  Uiso   1.00
H789   H     0.26897   0.13269   0.53605   0.00000  Uiso   1.00
H790   H     0.06417   0.13522   0.96396   0.00000  Uiso   1.00
H791   H     0.11764   0.18025   0.60931   0.00000  Uiso   1.00
H792   H     0.21676   0.18126   0.89096   0.00000  Uiso   1.00
H793   H     0.31191   0.12822   0.61720   0.00000  Uiso   1.00
H794   H     0.02102   0.12639   0.88220   0.00000  Uiso   1.00
H795   H     0.18790   0.14979   0.57956   0.00000  Uiso   1.00
H796   H     0.14579   0.15172   0.92047   0.00000  Uiso   1.00
C797   C     0.29844   0.02011   0.73479   0.00000  Uiso   1.00
C798   C     0.03281   0.31288   0.76844   0.00000  Uiso   1.00
C799   C     0.29933   0.31091   0.73626   0.00000  Uiso   1.00
C800   C     0.03260   0.02219   0.76614   0.00000  Uiso   1.00
H801   H     0.27388   0.29370   0.72395   0.00000  Uiso   1.00
H802   H     0.05736   0.03943   0.77916   0.00000  Uiso   1.00
C803   C     0.33294   0.29043   0.75248   0.00000  Uiso   1.00
C804   C     0.33265   0.04272   0.74939   0.00000  Uiso   1.00
C805   C     0.18030   0.14731   0.78269   0.00000  Uiso   1.00
C806   C     0.15297   0.18630   0.71750   0.00000  Uiso   1.00
H807   H     0.18982   0.13146   0.80881   0.00000  Uiso   1.00
H808   H     0.14341   0.20224   0.69145   0.00000  Uiso   1.00
C809   C     0.13089   0.14732   0.78268   0.00000  Uiso   1.00
C810   C     0.20237   0.18630   0.71752   0.00000  Uiso   1.00
H811   H     0.10369   0.13144   0.80878   0.00000  Uiso   1.00
H812   H     0.22956   0.20228   0.69148   0.00000  Uiso   1.00
N813   N     0.11736   0.16668   0.74999   0.00000  Uiso   1.00
N814   N     0.21597   0.16666   0.75001   0.00000  Uiso   1.00
O815   O     0.32512   0.09701   0.96390   0.00000  Uiso   1.00
H816   H     0.01915   0.08536   0.93988   0.00000  Uiso   1.00
O817   O     0.00873   0.09774   0.53609   0.00000  Uiso   1.00
H818   H     0.31550   0.08519   0.56034   0.00000  Uiso   1.00
C819   C     0.26069   0.03924   0.71841   0.00000  Uiso   1.00
C820   C     0.21240   0.04135   0.74616   0.00000  Uiso   1.00
C821   C     0.17621   0.05860   0.73080   0.00000  Uiso   1.00
C822   C     0.18780   0.07350   0.68764   0.00000  Uiso   1.00
C823   C     0.23570   0.07109   0.65970   0.00000  Uiso   1.00
C824   C     0.27225   0.05416   0.67501   0.00000  Uiso   1.00
H825   H     0.20290   0.02979   0.77968   0.00000  Uiso   1.00
H826   H     0.13921   0.06052   0.75243   0.00000  Uiso   1.00
H827   H     0.15967   0.08685   0.67584   0.00000  Uiso   1.00
H828   H     0.24429   0.08224   0.62615   0.00000  Uiso   1.00
H829   H     0.30928   0.05242   0.65311   0.00000  Uiso   1.00
C830   C     0.06687   0.29299   0.78895   0.00000  Uiso   1.00
C831   C     0.04885   0.27094   0.82870   0.00000  Uiso   1.00
C832   C     0.08102   0.25062   0.84688   0.00000  Uiso   1.00
C833   C     0.13128   0.25243   0.82572   0.00000  Uiso   1.00
C834   C     0.14944   0.27458   0.78637   0.00000  Uiso   1.00
C835   C     0.11739   0.29480   0.76798   0.00000  Uiso   1.00
H836   H     0.00996   0.26905   0.84517   0.00000  Uiso   1.00
H837   H     0.06698   0.23330   0.87724   0.00000  Uiso   1.00
H838   H     0.15613   0.23652   0.83969   0.00000  Uiso   1.00
H839   H     0.18831   0.27573   0.76990   0.00000  Uiso   1.00
H840   H     0.13180   0.31111   0.73701   0.00000  Uiso   1.00
O841   O     0.37291   0.10655   0.75000   0.00000  Uiso   1.00
O842   O     0.62709   0.22678   0.75000   0.00000  Uiso   1.00
O843   O     0.62706   0.10654   0.75000   0.00000  Uiso   1.00
O844   O     0.37294   0.22679   0.75000   0.00000  Uiso   1.00
C845   C     0.66663   0.08745   0.74937   0.00000  Uiso   1.00
C846   C     0.66643   0.24580   0.75120   0.00000  Uiso   1.00
O847   O     0.35186   0.16668   0.81492   0.00000  Uiso   1.00
O848   O     0.64814   0.16666   0.68508   0.00000  Uiso   1.00
O849   O     0.60600   0.16667   0.81492   0.00000  Uiso   1.00
O850   O     0.39400   0.16667   0.68508   0.00000  Uiso   1.00
C851   C     0.63864   0.16557   0.83538   0.00000  Uiso   1.00
C852   C     0.36142   0.16566   0.66459   0.00000  Uiso   1.00
Cu853  Cu    0.38022   0.16667   0.75000   0.00000  Uiso   1.00
Cu854  Cu    0.61978   0.16666   0.75000   0.00000  Uiso   1.00
C855   C     0.62219   0.15849   0.88273   0.00000  Uiso   1.00
C856   C     0.37811   0.15889   0.61719   0.00000  Uiso   1.00
C857   C     0.63536   0.12673   0.94692   0.00000  Uiso   1.00
C858   C     0.36482   0.12785   0.55289   0.00000  Uiso   1.00
C859   C     0.65228   0.13716   0.90223   0.00000  Uiso   1.00
C860   C     0.34771   0.13834   0.59744   0.00000  Uiso   1.00
C861   C     0.57389   0.16673   0.90711   0.00000  Uiso   1.00
C862   C     0.42683   0.16649   0.59302   0.00000  Uiso   1.00
C863   C     0.55690   0.15703   0.95215   0.00000  Uiso   1.00
C864   C     0.44372   0.15725   0.54791   0.00000  Uiso   1.00
C865   C     0.59028   0.14213   0.97298   0.00000  Uiso   1.00
C866   C     0.41005   0.14322   0.52696   0.00000  Uiso   1.00
C867   C     0.50706   0.15842   0.97665   0.00000  Uiso   1.00
C868   C     0.49359   0.15814   0.52343   0.00000  Uiso   1.00
C869   C     0.52983   0.15187   0.54409   0.00000  Uiso   1.00
C870   C     0.47063   0.15324   0.95594   0.00000  Uiso   1.00
C871   C     0.57674   0.14110   0.51906   0.00000  Uiso   1.00
C872   C     0.42345   0.14282   0.98091   0.00000  Uiso   1.00
H873   H     0.60230   0.13269   0.53605   0.00000  Uiso   1.00
H874   H     0.39751   0.13522   0.96396   0.00000  Uiso   1.00
H875   H     0.45098   0.18025   0.60931   0.00000  Uiso   1.00
H876   H     0.55009   0.18126   0.89096   0.00000  Uiso   1.00
H877   H     0.64524   0.12822   0.61720   0.00000  Uiso   1.00
H878   H     0.35435   0.12639   0.88220   0.00000  Uiso   1.00
H879   H     0.52123   0.14979   0.57956   0.00000  Uiso   1.00
H880   H     0.47912   0.15172   0.92047   0.00000  Uiso   1.00
C881   C     0.63178   0.02011   0.73479   0.00000  Uiso   1.00
C882   C     0.36614   0.31288   0.76844   0.00000  Uiso   1.00
C883   C     0.63266   0.31091   0.73626   0.00000  Uiso   1.00
C884   C     0.36594   0.02219   0.76614   0.00000  Uiso   1.00
H885   H     0.60722   0.29370   0.72395   0.00000  Uiso   1.00
H886   H     0.39069   0.03943   0.77916   0.00000  Uiso   1.00
C887   C     0.66628   0.29043   0.75248   0.00000  Uiso   1.00
C888   C     0.66598   0.04272   0.74939   0.00000  Uiso   1.00
C889   C     0.51363   0.14731   0.78269   0.00000  Uiso   1.00
C890   C     0.48631   0.18630   0.71750   0.00000  Uiso   1.00
H891   H     0.52316   0.13146   0.80881   0.00000  Uiso   1.00
H892   H     0.47675   0.20224   0.69145   0.00000  Uiso   1.00
C893   C     0.46423   0.14732   0.78268   0.00000  Uiso   1.00
C894   C     0.53571   0.18630   0.71752   0.00000  Uiso   1.00
H895   H     0.43702   0.13144   0.80878   0.00000  Uiso   1.00
H896   H     0.56290   0.20228   0.69148   0.00000  Uiso   1.00
N897   N     0.45069   0.16668   0.74999   0.00000  Uiso   1.00
N898   N     0.54931   0.16666   0.75001   0.00000  Uiso   1.00
O899   O     0.65846   0.09701   0.96390   0.00000  Uiso   1.00
H900   H     0.35248   0.08536   0.93988   0.00000  Uiso   1.00
O901   O     0.34206   0.09774   0.53609   0.00000  Uiso   1.00
H902   H     0.64884   0.08519   0.56034   0.00000  Uiso   1.00
C903   C     0.59402   0.03924   0.71841   0.00000  Uiso   1.00
C904   C     0.54574   0.04135   0.74616   0.00000  Uiso   1.00
C905   C     0.50955   0.05860   0.73080   0.00000  Uiso   1.00
C906   C     0.52114   0.07350   0.68764   0.00000  Uiso   1.00
C907   C     0.56903   0.07109   0.65970   0.00000  Uiso   1.00
C908   C     0.60558   0.05416   0.67501   0.00000  Uiso   1.00
H909   H     0.53623   0.02979   0.77968   0.00000  Uiso   1.00
H910   H     0.47254   0.06052   0.75243   0.00000  Uiso   1.00
H911   H     0.49300   0.08685   0.67584   0.00000  Uiso   1.00
H912   H     0.57762   0.08224   0.62615   0.00000  Uiso   1.00
H913   H     0.64261   0.05242   0.65311   0.00000  Uiso   1.00
C914   C     0.40020   0.29299   0.78895   0.00000  Uiso   1.00
C915   C     0.38219   0.27094   0.82870   0.00000  Uiso   1.00
C916   C     0.41436   0.25062   0.84688   0.00000  Uiso   1.00
C917   C     0.46461   0.25243   0.82572   0.00000  Uiso   1.00
C918   C     0.48277   0.27458   0.78637   0.00000  Uiso   1.00
C919   C     0.45073   0.29480   0.76798   0.00000  Uiso   1.00
H920   H     0.34329   0.26905   0.84517   0.00000  Uiso   1.00
H921   H     0.40031   0.23330   0.87724   0.00000  Uiso   1.00
H922   H     0.48946   0.23652   0.83969   0.00000  Uiso   1.00
H923   H     0.52165   0.27573   0.76990   0.00000  Uiso   1.00
H924   H     0.46513   0.31111   0.73701   0.00000  Uiso   1.00
O925   O     0.70625   0.10655   0.75000   0.00000  Uiso   1.00
O926   O     0.96042   0.22678   0.75000   0.00000  Uiso   1.00
O927   O     0.96039   0.10654   0.75000   0.00000  Uiso   1.00
O928   O     0.70628   0.22679   0.75000   0.00000  Uiso   1.00
C929   C     0.99996   0.08745   0.74937   0.00000  Uiso   1.00
C930   C     0.99977   0.24580   0.75120   0.00000  Uiso   1.00
O931   O     0.68519   0.16668   0.81492   0.00000  Uiso   1.00
O932   O     0.98148   0.16666   0.68508   0.00000  Uiso   1.00
O933   O     0.93933   0.16667   0.81492   0.00000  Uiso   1.00
O934   O     0.72733   0.16667   0.68508   0.00000  Uiso   1.00
C935   C     0.97198   0.16557   0.83538   0.00000  Uiso   1.00
C936   C     0.69475   0.16566   0.66459   0.00000  Uiso   1.00
Cu937  Cu    0.71355   0.16667   0.75000   0.00000  Uiso   1.00
Cu938  Cu    0.95311   0.16666   0.75000   0.00000  Uiso   1.00
C939   C     0.95553   0.15849   0.88273   0.00000  Uiso   1.00
C940   C     0.71145   0.15889   0.61719   0.00000  Uiso   1.00
C941   C     0.96869   0.12673   0.94692   0.00000  Uiso   1.00
C942   C     0.69815   0.12785   0.55289   0.00000  Uiso   1.00
C943   C     0.98562   0.13716   0.90223   0.00000  Uiso   1.00
C944   C     0.68105   0.13834   0.59744   0.00000  Uiso   1.00
C945   C     0.90722   0.16673   0.90711   0.00000  Uiso   1.00
C946   C     0.76016   0.16649   0.59302   0.00000  Uiso   1.00
C947   C     0.89023   0.15703   0.95215   0.00000  Uiso   1.00
C948   C     0.77706   0.15725   0.54791   0.00000  Uiso   1.00
C949   C     0.92362   0.14213   0.97298   0.00000  Uiso   1.00
C950   C     0.74338   0.14322   0.52696   0.00000  Uiso   1.00
C951   C     0.84040   0.15842   0.97665   0.00000  Uiso   1.00
C952   C     0.82692   0.15814   0.52343   0.00000  Uiso   1.00
C953   C     0.86316   0.15187   0.54409   0.00000  Uiso   1.00
C954   C     0.80396   0.15324   0.95594   0.00000  Uiso   1.00
C955   C     0.91007   0.14110   0.51906   0.00000  Uiso   1.00
C956   C     0.75679   0.14282   0.98091   0.00000  Uiso   1.00
H957   H     0.93563   0.13269   0.53605   0.00000  Uiso   1.00
H958   H     0.73084   0.13522   0.96396   0.00000  Uiso   1.00
H959   H     0.78431   0.18025   0.60931   0.00000  Uiso   1.00
H960   H     0.88343   0.18126   0.89096   0.00000  Uiso   1.00
H961   H     0.97857   0.12822   0.61720   0.00000  Uiso   1.00
H962   H     0.68769   0.12639   0.88220   0.00000  Uiso   1.00
H963   H     0.85457   0.14979   0.57956   0.00000  Uiso   1.00
H964   H     0.81245   0.15172   0.92047   0.00000  Uiso   1.00
C965   C     0.96511   0.02011   0.73479   0.00000  Uiso   1.00
C966   C     0.69947   0.31288   0.76844   0.00000  Uiso   1.00
C967   C     0.96599   0.31091   0.73626   0.00000  Uiso   1.00
C968   C     0.69927   0.02219   0.76614   0.00000  Uiso   1.00
H969   H     0.94055   0.29370   0.72395   0.00000  Uiso   1.00
H970   H     0.72403   0.03943   0.77916   0.00000  Uiso   1.00
C971   C     0.99961   0.29043   0.75248   0.00000  Uiso   1.00
C972   C     0.99931   0.04272   0.74939   0.00000  Uiso   1.00
C973   C     0.84696   0.14731   0.78269   0.00000  Uiso   1.00
C974   C     0.81964   0.18630   0.71750   0.00000  Uiso   1.00
H975   H     0.85649   0.13146   0.80881   0.00000  Uiso   1.00
H976   H     0.81008   0.20224   0.69145   0.00000  Uiso   1.00
C977   C     0.79756   0.14732   0.78268   0.00000  Uiso   1.00
C978   C     0.86904   0.18630   0.71752   0.00000  Uiso   1.00
H979   H     0.77035   0.13144   0.80878   0.00000  Uiso   1.00
H980   H     0.89623   0.20228   0.69148   0.00000  Uiso   1.00
N981   N     0.78403   0.16668   0.74999   0.00000  Uiso   1.00
N982   N     0.88264   0.16666   0.75001   0.00000  Uiso   1.00
O983   O     0.99179   0.09701   0.96390   0.00000  Uiso   1.00
H984   H     0.68582   0.08536   0.93988   0.00000  Uiso   1.00
O985   O     0.67540   0.09774   0.53609   0.00000  Uiso   1.00
H986   H     0.98217   0.08519   0.56034   0.00000  Uiso   1.00
C987   C     0.92736   0.03924   0.71841   0.00000  Uiso   1.00
C988   C     0.87907   0.04135   0.74616   0.00000  Uiso   1.00
C989   C     0.84288   0.05860   0.73080   0.00000  Uiso   1.00
C990   C     0.85447   0.07350   0.68764   0.00000  Uiso   1.00
C991   C     0.90237   0.07109   0.65970   0.00000  Uiso   1.00
C992   C     0.93891   0.05416   0.67501   0.00000  Uiso   1.00
H993   H     0.86956   0.02979   0.77968   0.00000  Uiso   1.00
H994   H     0.80587   0.06052   0.75243   0.00000  Uiso   1.00
H995   H     0.82633   0.08685   0.67584   0.00000  Uiso   1.00
H996   H     0.91096   0.08224   0.62615   0.00000  Uiso   1.00
H997   H     0.97595   0.05242   0.65311   0.00000  Uiso   1.00
C998   C     0.73353   0.29299   0.78895   0.00000  Uiso   1.00
C999   C     0.71552   0.27094   0.82870   0.00000  Uiso   1.00
C1000  C     0.74769   0.25062   0.84688   0.00000  Uiso   1.00
C1001  C     0.79794   0.25243   0.82572   0.00000  Uiso   1.00
C1002  C     0.81610   0.27458   0.78637   0.00000  Uiso   1.00
C1003  C     0.78406   0.29480   0.76798   0.00000  Uiso   1.00
H1004  H     0.67663   0.26905   0.84517   0.00000  Uiso   1.00
H1005  H     0.73364   0.23330   0.87724   0.00000  Uiso   1.00
H1006  H     0.82279   0.23652   0.83969   0.00000  Uiso   1.00
H1007  H     0.85498   0.27573   0.76990   0.00000  Uiso   1.00
H1008  H     0.79846   0.31111   0.73701   0.00000  Uiso   1.00
O1009  O     0.03958   0.43989   0.75000   0.00000  Uiso   1.00
O1010  O     0.29375   0.56011   0.75000   0.00000  Uiso   1.00
O1011  O     0.29372   0.43988   0.75000   0.00000  Uiso   1.00
O1012  O     0.03961   0.56012   0.75000   0.00000  Uiso   1.00
C1013  C     0.33329   0.42079   0.74937   0.00000  Uiso   1.00
C1014  C     0.33310   0.57914   0.75120   0.00000  Uiso   1.00
O1015  O     0.01852   0.50001   0.81492   0.00000  Uiso   1.00
O1016  O     0.31481   0.49999   0.68508   0.00000  Uiso   1.00
O1017  O     0.27267   0.50000   0.81492   0.00000  Uiso   1.00
O1018  O     0.06067   0.50000   0.68508   0.00000  Uiso   1.00
C1019  C     0.30531   0.49890   0.83538   0.00000  Uiso   1.00
C1020  C     0.02808   0.49899   0.66459   0.00000  Uiso   1.00
Cu1021 Cu    0.04689   0.50001   0.75000   0.00000  Uiso   1.00
Cu1022 Cu    0.28645   0.49999   0.75000   0.00000  Uiso   1.00
C1023  C     0.28886   0.49182   0.88273   0.00000  Uiso   1.00
C1024  C     0.04478   0.49223   0.61719   0.00000  Uiso   1.00
C1025  C     0.30203   0.46006   0.94692   0.00000  Uiso   1.00
C1026  C     0.03148   0.46118   0.55289   0.00000  Uiso   1.00
C1027  C     0.31895   0.47049   0.90223   0.00000  Uiso   1.00
C1028  C     0.01438   0.47168   0.59744   0.00000  Uiso   1.00
C1029  C     0.24055   0.50006   0.90711   0.00000  Uiso   1.00
C1030  C     0.09349   0.49983   0.59302   0.00000  Uiso   1.00
C1031  C     0.22356   0.49036   0.95215   0.00000  Uiso   1.00
C1032  C     0.11039   0.49058   0.54791   0.00000  Uiso   1.00
C1033  C     0.25695   0.47546   0.97298   0.00000  Uiso   1.00
C1034  C     0.07672   0.47655   0.52696   0.00000  Uiso   1.00
C1035  C     0.17373   0.49175   0.97665   0.00000  Uiso   1.00
C1036  C     0.16025   0.49147   0.52343   0.00000  Uiso   1.00
C1037  C     0.19650   0.48520   0.54409   0.00000  Uiso   1.00
C1038  C     0.13730   0.48657   0.95594   0.00000  Uiso   1.00
C1039  C     0.24340   0.47443   0.51906   0.00000  Uiso   1.00
C1040  C     0.09012   0.47615   0.98091   0.00000  Uiso   1.00
H1041  H     0.26897   0.46603   0.53605   0.00000  Uiso   1.00
H1042  H     0.06417   0.46855   0.96396   0.00000  Uiso   1.00
H1043  H     0.11764   0.51358   0.60931   0.00000  Uiso   1.00
H1044  H     0.21676   0.51460   0.89096   0.00000  Uiso   1.00
H1045  H     0.31191   0.46155   0.61720   0.00000  Uiso   1.00
H1046  H     0.02102   0.45972   0.88220   0.00000  Uiso   1.00
H1047  H     0.18790   0.48312   0.57956   0.00000  Uiso   1.00
H1048  H     0.14579   0.48505   0.92047   0.00000  Uiso   1.00
C1049  C     0.29844   0.35345   0.73479   0.00000  Uiso   1.00
C1050  C     0.03281   0.64621   0.76844   0.00000  Uiso   1.00
C1051  C     0.29933   0.64424   0.73626   0.00000  Uiso   1.00
C1052  C     0.03260   0.35552   0.76614   0.00000  Uiso   1.00
H1053  H     0.27388   0.62704   0.72395   0.00000  Uiso   1.00
H1054  H     0.05736   0.37276   0.77916   0.00000  Uiso   1.00
C1055  C     0.33294   0.62376   0.75248   0.00000  Uiso   1.00
C1056  C     0.33265   0.37606   0.74939   0.00000  Uiso   1.00
C1057  C     0.18030   0.48065   0.78269   0.00000  Uiso   1.00
C1058  C     0.15297   0.51963   0.71750   0.00000  Uiso   1.00
H1059  H     0.18982   0.46479   0.80881   0.00000  Uiso   1.00
H1060  H     0.14341   0.53557   0.69145   0.00000  Uiso   1.00
C1061  C     0.13089   0.48065   0.78268   0.00000  Uiso   1.00
C1062  C     0.20237   0.51963   0.71752   0.00000  Uiso   1.00
H1063  H     0.10369   0.46477   0.80878   0.00000  Uiso   1.00
H1064  H     0.22956   0.53561   0.69148   0.00000  Uiso   1.00
N1065  N     0.11736   0.50001   0.74999   0.00000  Uiso   1.00
N1066  N     0.21597   0.49999   0.75001   0.00000  Uiso   1.00
O1067  O     0.32512   0.43035   0.96390   0.00000  Uiso   1.00
H1068  H     0.01915   0.41870   0.93988   0.00000  Uiso   1.00
O1069  O     0.00873   0.43108   0.53609   0.00000  Uiso   1.00
H1070  H     0.31550   0.41852   0.56034   0.00000  Uiso   1.00
C1071  C     0.26069   0.37257   0.71841   0.00000  Uiso   1.00
C1072  C     0.21240   0.37468   0.74616   0.00000  Uiso   1.00
C1073  C     0.17621   0.39194   0.73080   0.00000  Uiso   1.00
C1074  C     0.18780   0.40683   0.68764   0.00000  Uiso   1.00
C1075  C     0.23570   0.40442   0.65970   0.00000  Uiso   1.00
C1076  C     0.27225   0.38750   0.67501   0.00000  Uiso   1.00
H1077  H     0.20290   0.36313   0.77968   0.00000  Uiso   1.00
H1078  H     0.13921   0.39385   0.75243   0.00000  Uiso   1.00
H1079  H     0.15967   0.42018   0.67584   0.00000  Uiso   1.00
H1080  H     0.24429   0.41557   0.62615   0.00000  Uiso   1.00
H1081  H     0.30928   0.38575   0.65311   0.00000  Uiso   1.00
C1082  C     0.06687   0.62632   0.78895   0.00000  Uiso   1.00
C1083  C     0.04885   0.60427   0.82870   0.00000  Uiso   1.00
C1084  C     0.08102   0.58396   0.84688   0.00000  Uiso   1.00
C1085  C     0.13128   0.58577   0.82572   0.00000  Uiso   1.00
C1086  C     0.14944   0.60792   0.78637   0.00000  Uiso   1.00
C1087  C     0.11739   0.62813   0.76798   0.00000  Uiso   1.00
H1088  H     0.00996   0.60238   0.84517   0.00000  Uiso   1.00
H1089  H     0.06698   0.56663   0.87724   0.00000  Uiso   1.00
H1090  H     0.15613   0.56985   0.83969   0.00000  Uiso   1.00
H1091  H     0.18831   0.60907   0.76990   0.00000  Uiso   1.00
H1092  H     0.13180   0.64445   0.73701   0.00000  Uiso   1.00
O1093  O     0.37291   0.43989   0.75000   0.00000  Uiso   1.00
O1094  O     0.62709   0.56011   0.75000   0.00000  Uiso   1.00
O1095  O     0.62706   0.43988   0.75000   0.00000  Uiso   1.00
O1096  O     0.37294   0.56012   0.75000   0.00000  Uiso   1.00
C1097  C     0.66663   0.42079   0.74937   0.00000  Uiso   1.00
C1098  C     0.66643   0.57914   0.75120   0.00000  Uiso   1.00
O1099  O     0.35186   0.50001   0.81492   0.00000  Uiso   1.00
O1100  O     0.64814   0.49999   0.68508   0.00000  Uiso   1.00
O1101  O     0.60600   0.50000   0.81492   0.00000  Uiso   1.00
O1102  O     0.39400   0.50000   0.68508   0.00000  Uiso   1.00
C1103  C     0.63864   0.49890   0.83538   0.00000  Uiso   1.00
C1104  C     0.36142   0.49899   0.66459   0.00000  Uiso   1.00
Cu1105 Cu    0.38022   0.50001   0.75000   0.00000  Uiso   1.00
Cu1106 Cu    0.61978   0.49999   0.75000   0.00000  Uiso   1.00
C1107  C     0.62219   0.49182   0.88273   0.00000  Uiso   1.00
C1108  C     0.37811   0.49223   0.61719   0.00000  Uiso   1.00
C1109  C     0.63536   0.46006   0.94692   0.00000  Uiso   1.00
C1110  C     0.36482   0.46118   0.55289   0.00000  Uiso   1.00
C1111  C     0.65228   0.47049   0.90223   0.00000  Uiso   1.00
C1112  C     0.34771   0.47168   0.59744   0.00000  Uiso   1.00
C1113  C     0.57389   0.50006   0.90711   0.00000  Uiso   1.00
C1114  C     0.42683   0.49983   0.59302   0.00000  Uiso   1.00
C1115  C     0.55690   0.49036   0.95215   0.00000  Uiso   1.00
C1116  C     0.44372   0.49058   0.54791   0.00000  Uiso   1.00
C1117  C     0.59028   0.47546   0.97298   0.00000  Uiso   1.00
C1118  C     0.41005   0.47655   0.52696   0.00000  Uiso   1.00
C1119  C     0.50706   0.49175   0.97665   0.00000  Uiso   1.00
C1120  C     0.49359   0.49147   0.52343   0.00000  Uiso   1.00
C1121  C     0.52983   0.48520   0.54409   0.00000  Uiso   1.00
C1122  C     0.47063   0.48657   0.95594   0.00000  Uiso   1.00
C1123  C     0.57674   0.47443   0.51906   0.00000  Uiso   1.00
C1124  C     0.42345   0.47615   0.98091   0.00000  Uiso   1.00
H1125  H     0.60230   0.46603   0.53605   0.00000  Uiso   1.00
H1126  H     0.39751   0.46855   0.96396   0.00000  Uiso   1.00
H1127  H     0.45098   0.51358   0.60931   0.00000  Uiso   1.00
H1128  H     0.55009   0.51460   0.89096   0.00000  Uiso   1.00
H1129  H     0.64524   0.46155   0.61720   0.00000  Uiso   1.00
H1130  H     0.35435   0.45972   0.88220   0.00000  Uiso   1.00
H1131  H     0.52123   0.48312   0.57956   0.00000  Uiso   1.00
H1132  H     0.47912   0.48505   0.92047   0.00000  Uiso   1.00
C1133  C     0.63178   0.35345   0.73479   0.00000  Uiso   1.00
C1134  C     0.36614   0.64621   0.76844   0.00000  Uiso   1.00
C1135  C     0.63266   0.64424   0.73626   0.00000  Uiso   1.00
C1136  C     0.36594   0.35552   0.76614   0.00000  Uiso   1.00
H1137  H     0.60722   0.62704   0.72395   0.00000  Uiso   1.00
H1138  H     0.39069   0.37276   0.77916   0.00000  Uiso   1.00
C1139  C     0.66628   0.62376   0.75248   0.00000  Uiso   1.00
C1140  C     0.66598   0.37606   0.74939   0.00000  Uiso   1.00
C1141  C     0.51363   0.48065   0.78269   0.00000  Uiso   1.00
C1142  C     0.48631   0.51963   0.71750   0.00000  Uiso   1.00
H1143  H     0.52316   0.46479   0.80881   0.00000  Uiso   1.00
H1144  H     0.47675   0.53557   0.69145   0.00000  Uiso   1.00
C1145  C     0.46423   0.48065   0.78268   0.00000  Uiso   1.00
C1146  C     0.53571   0.51963   0.71752   0.00000  Uiso   1.00
H1147  H     0.43702   0.46477   0.80878   0.00000  Uiso   1.00
H1148  H     0.56290   0.53561   0.69148   0.00000  Uiso   1.00
N1149  N     0.45069   0.50001   0.74999   0.00000  Uiso   1.00
N1150  N     0.54931   0.49999   0.75001   0.00000  Uiso   1.00
O1151  O     0.65846   0.43035   0.96390   0.00000  Uiso   1.00
H1152  H     0.35248   0.41870   0.93988   0.00000  Uiso   1.00
O1153  O     0.34206   0.43108   0.53609   0.00000  Uiso   1.00
H1154  H     0.64884   0.41852   0.56034   0.00000  Uiso   1.00
C1155  C     0.59402   0.37257   0.71841   0.00000  Uiso   1.00
C1156  C     0.54574   0.37468   0.74616   0.00000  Uiso   1.00
C1157  C     0.50955   0.39194   0.73080   0.00000  Uiso   1.00
C1158  C     0.52114   0.40683   0.68764   0.00000  Uiso   1.00
C1159  C     0.56903   0.40442   0.65970   0.00000  Uiso   1.00
C1160  C     0.60558   0.38750   0.67501   0.00000  Uiso   1.00
H1161  H     0.53623   0.36313   0.77968   0.00000  Uiso   1.00
H1162  H     0.47254   0.39385   0.75243   0.00000  Uiso   1.00
H1163  H     0.49300   0.42018   0.67584   0.00000  Uiso   1.00
H1164  H     0.57762   0.41557   0.62615   0.00000  Uiso   1.00
H1165  H     0.64261   0.38575   0.65311   0.00000  Uiso   1.00
C1166  C     0.40020   0.62632   0.78895   0.00000  Uiso   1.00
C1167  C     0.38219   0.60427   0.82870   0.00000  Uiso   1.00
C1168  C     0.41436   0.58396   0.84688   0.00000  Uiso   1.00
C1169  C     0.46461   0.58577   0.82572   0.00000  Uiso   1.00
C1170  C     0.48277   0.60792   0.78637   0.00000  Uiso   1.00
C1171  C     0.45073   0.62813   0.76798   0.00000  Uiso   1.00
H1172  H     0.34329   0.60238   0.84517   0.00000  Uiso   1.00
H1173  H     0.40031   0.56663   0.87724   0.00000  Uiso   1.00
H1174  H     0.48946   0.56985   0.83969   0.00000  Uiso   1.00
H1175  H     0.52165   0.60907   0.76990   0.00000  Uiso   1.00
H1176  H     0.46513   0.64445   0.73701   0.00000  Uiso   1.00
O1177  O     0.70625   0.43989   0.75000   0.00000  Uiso   1.00
O1178  O     0.96042   0.56011   0.75000   0.00000  Uiso   1.00
O1179  O     0.96039   0.43988   0.75000   0.00000  Uiso   1.00
O1180  O     0.70628   0.56012   0.75000   0.00000  Uiso   1.00
C1181  C     0.99996   0.42079   0.74937   0.00000  Uiso   1.00
C1182  C     0.99977   0.57914   0.75120   0.00000  Uiso   1.00
O1183  O     0.68519   0.50001   0.81492   0.00000  Uiso   1.00
O1184  O     0.98148   0.49999   0.68508   0.00000  Uiso   1.00
O1185  O     0.93933   0.50000   0.81492   0.00000  Uiso   1.00
O1186  O     0.72733   0.50000   0.68508   0.00000  Uiso   1.00
C1187  C     0.97198   0.49890   0.83538   0.00000  Uiso   1.00
C1188  C     0.69475   0.49899   0.66459   0.00000  Uiso   1.00
Cu1189 Cu    0.71355   0.50001   0.75000   0.00000  Uiso   1.00
Cu1190 Cu    0.95311   0.49999   0.75000   0.00000  Uiso   1.00
C1191  C     0.95553   0.49182   0.88273   0.00000  Uiso   1.00
C1192  C     0.71145   0.49223   0.61719   0.00000  Uiso   1.00
C1193  C     0.96869   0.46006   0.94692   0.00000  Uiso   1.00
C1194  C     0.69815   0.46118   0.55289   0.00000  Uiso   1.00
C1195  C     0.98562   0.47049   0.90223   0.00000  Uiso   1.00
C1196  C     0.68105   0.47168   0.59744   0.00000  Uiso   1.00
C1197  C     0.90722   0.50006   0.90711   0.00000  Uiso   1.00
C1198  C     0.76016   0.49983   0.59302   0.00000  Uiso   1.00
C1199  C     0.89023   0.49036   0.95215   0.00000  Uiso   1.00
C1200  C     0.77706   0.49058   0.54791   0.00000  Uiso   1.00
C1201  C     0.92362   0.47546   0.97298   0.00000  Uiso   1.00
C1202  C     0.74338   0.47655   0.52696   0.00000  Uiso   1.00
C1203  C     0.84040   0.49175   0.97665   0.00000  Uiso   1.00
C1204  C     0.82692   0.49147   0.52343   0.00000  Uiso   1.00
C1205  C     0.86316   0.48520   0.54409   0.00000  Uiso   1.00
C1206  C     0.80396   0.48657   0.95594   0.00000  Uiso   1.00
C1207  C     0.91007   0.47443   0.51906   0.00000  Uiso   1.00
C1208  C     0.75679   0.47615   0.98091   0.00000  Uiso   1.00
H1209  H     0.93563   0.46603   0.53605   0.00000  Uiso   1.00
H1210  H     0.73084   0.46855   0.96396   0.00000  Uiso   1.00
H1211  H     0.78431   0.51358   0.60931   0.00000  Uiso   1.00
H1212  H     0.88343   0.51460   0.89096   0.00000  Uiso   1.00
H1213  H     0.97857   0.46155   0.61720   0.00000  Uiso   1.00
H1214  H     0.68769   0.45972   0.88220   0.00000  Uiso   1.00
H1215  H     0.85457   0.48312   0.57956   0.00000  Uiso   1.00
H1216  H     0.81245   0.48505   0.92047   0.00000  Uiso   1.00
C1217  C     0.96511   0.35345   0.73479   0.00000  Uiso   1.00
C1218  C     0.69947   0.64621   0.76844   0.00000  Uiso   1.00
C1219  C     0.96599   0.64424   0.73626   0.00000  Uiso   1.00
C1220  C     0.69927   0.35552   0.76614   0.00000  Uiso   1.00
H1221  H     0.94055   0.62704   0.72395   0.00000  Uiso   1.00
H1222  H     0.72403   0.37276   0.77916   0.00000  Uiso   1.00
C1223  C     0.99961   0.62376   0.75248   0.00000  Uiso   1.00
C1224  C     0.99931   0.37606   0.74939   0.00000  Uiso   1.00
C1225  C     0.84696   0.48065   0.78269   0.00000  Uiso   1.00
C1226  C     0.81964   0.51963   0.71750   0.00000  Uiso   1.00
H1227  H     0.85649   0.46479   0.80881   0.00000  Uiso   1.00
H1228  H     0.81008   0.53557   0.69145   0.00000  Uiso   1.00
C1229  C     0.79756   0.48065   0.78268   0.00000  Uiso   1.00
C1230  C     0.86904   0.51963   0.71752   0.00000  Uiso   1.00
H1231  H     0.77035   0.46477   0.80878   0.00000  Uiso   1.00
H1232  H     0.89623   0.53561   0.69148   0.00000  Uiso   1.00
N1233  N     0.78403   0.50001   0.74999   0.00000  Uiso   1.00
N1234  N     0.88264   0.49999   0.75001   0.00000  Uiso   1.00
O1235  O     0.99179   0.43035   0.96390   0.00000  Uiso   1.00
H1236  H     0.68582   0.41870   0.93988   0.00000  Uiso   1.00
O1237  O     0.67540   0.43108   0.53609   0.00000  Uiso   1.00
H1238  H     0.98217   0.41852   0.56034   0.00000  Uiso   1.00
C1239  C     0.92736   0.37257   0.71841   0.00000  Uiso   1.00
C1240  C     0.87907   0.37468   0.74616   0.00000  Uiso   1.00
C1241  C     0.84288   0.39194   0.73080   0.00000  Uiso   1.00
C1242  C     0.85447   0.40683   0.68764   0.00000  Uiso   1.00
C1243  C     0.90237   0.40442   0.65970   0.00000  Uiso   1.00
C1244  C     0.93891   0.38750   0.67501   0.00000  Uiso   1.00
H1245  H     0.86956   0.36313   0.77968   0.00000  Uiso   1.00
H1246  H     0.80587   0.39385   0.75243   0.00000  Uiso   1.00
H1247  H     0.82633   0.42018   0.67584   0.00000  Uiso   1.00
H1248  H     0.91096   0.41557   0.62615   0.00000  Uiso   1.00
H1249  H     0.97595   0.38575   0.65311   0.00000  Uiso   1.00
C1250  C     0.73353   0.62632   0.78895   0.00000  Uiso   1.00
C1251  C     0.71552   0.60427   0.82870   0.00000  Uiso   1.00
C1252  C     0.74769   0.58396   0.84688   0.00000  Uiso   1.00
C1253  C     0.79794   0.58577   0.82572   0.00000  Uiso   1.00
C1254  C     0.81610   0.60792   0.78637   0.00000  Uiso   1.00
C1255  C     0.78406   0.62813   0.76798   0.00000  Uiso   1.00
H1256  H     0.67663   0.60238   0.84517   0.00000  Uiso   1.00
H1257  H     0.73364   0.56663   0.87724   0.00000  Uiso   1.00
H1258  H     0.82279   0.56985   0.83969   0.00000  Uiso   1.00
H1259  H     0.85498   0.60907   0.76990   0.00000  Uiso   1.00
H1260  H     0.79846   0.64445   0.73701   0.00000  Uiso   1.00
O1261  O     0.03958   0.77322   0.75000   0.00000  Uiso   1.00
O1262  O     0.29375   0.89345   0.75000   0.00000  Uiso   1.00
O1263  O     0.29372   0.77321   0.75000   0.00000  Uiso   1.00
O1264  O     0.03961   0.89346   0.75000   0.00000  Uiso   1.00
C1265  C     0.33329   0.75412   0.74937   0.00000  Uiso   1.00
C1266  C     0.33310   0.91247   0.75120   0.00000  Uiso   1.00
O1267  O     0.01852   0.83334   0.81492   0.00000  Uiso   1.00
O1268  O     0.31481   0.83332   0.68508   0.00000  Uiso   1.00
O1269  O     0.27267   0.83333   0.81492   0.00000  Uiso   1.00
O1270  O     0.06067   0.83333   0.68508   0.00000  Uiso   1.00
C1271  C     0.30531   0.83223   0.83538   0.00000  Uiso   1.00
C1272  C     0.02808   0.83233   0.66459   0.00000  Uiso   1.00
Cu1273 Cu    0.04689   0.83334   0.75000   0.00000  Uiso   1.00
Cu1274 Cu    0.28645   0.83333   0.75000   0.00000  Uiso   1.00
C1275  C     0.28886   0.82515   0.88273   0.00000  Uiso   1.00
C1276  C     0.04478   0.82556   0.61719   0.00000  Uiso   1.00
C1277  C     0.30203   0.79339   0.94692   0.00000  Uiso   1.00
C1278  C     0.03148   0.79451   0.55289   0.00000  Uiso   1.00
C1279  C     0.31895   0.80382   0.90223   0.00000  Uiso   1.00
C1280  C     0.01438   0.80501   0.59744   0.00000  Uiso   1.00
C1281  C     0.24055   0.83340   0.90711   0.00000  Uiso   1.00
C1282  C     0.09349   0.83316   0.59302   0.00000  Uiso   1.00
C1283  C     0.22356   0.82369   0.95215   0.00000  Uiso   1.00
C1284  C     0.11039   0.82392   0.54791   0.00000  Uiso   1.00
C1285  C     0.25695   0.80879   0.97298   0.00000  Uiso   1.00
C1286  C     0.07672   0.80988   0.52696   0.00000  Uiso   1.00
C1287  C     0.17373   0.82508   0.97665   0.00000  Uiso   1.00
C1288  C     0.16025   0.82480   0.52343   0.00000  Uiso   1.00
C1289  C     0.19650   0.81853   0.54409   0.00000  Uiso   1.00
C1290  C     0.13730   0.81991   0.95594   0.00000  Uiso   1.00
C1291  C     0.24340   0.80776   0.51906   0.00000  Uiso   1.00
C1292  C     0.09012   0.80948   0.98091   0.00000  Uiso   1.00
H1293  H     0.26897   0.79936   0.53605   0.00000  Uiso   1.00
H1294  H     0.06417   0.80188   0.96396   0.00000  Uiso   1.00
H1295  H     0.11764   0.84692   0.60931   0.00000  Uiso   1.00
H1296  H     0.21676   0.84793   0.89096   0.00000  Uiso   1.00
H1297  H     0.31191   0.79489   0.61720   0.00000  Uiso   1.00
H1298  H     0.02102   0.79306   0.88220   0.00000  Uiso   1.00
H1299  H     0.18790   0.81645   0.57956   0.00000  Uiso   1.00
H1300  H     0.14579   0.81838   0.92047   0.00000  Uiso   1.00
C1301  C     0.29844   0.68678   0.73479   0.00000  Uiso   1.00
C1302  C     0.03281   0.97954   0.76844   0.00000  Uiso   1.00
C1303  C     0.29933   0.97757   0.73626   0.00000  Uiso   1.00
C1304  C     0.03260   0.68885   0.76614   0.00000  Uiso   1.00
H1305  H     0.27388   0.96037   0.72395   0.00000  Uiso   1.00
H1306  H     0.05736   0.70610   0.77916   0.00000  Uiso   1.00
C1307  C     0.33294   0.95709   0.75248   0.00000  Uiso   1.00
C1308  C     0.33265   0.70939   0.74939   0.00000  Uiso   1.00
C1309  C     0.18030   0.81398   0.78269   0.00000  Uiso   1.00
C1310  C     0.15297   0.85296   0.71750   0.00000  Uiso   1.00
H1311  H     0.18982   0.79812   0.80881   0.00000  Uiso   1.00
H1312  H     0.14341   0.86891   0.69145   0.00000  Uiso   1.00
C1313  C     0.13089   0.81399   0.78268   0.00000  Uiso   1.00
C1314  C     0.20237   0.85297   0.71752   0.00000  Uiso   1.00
H1315  H     0.10369   0.79810   0.80878   0.00000  Uiso   1.00
H1316  H     0.22956   0.86894   0.69148   0.00000  Uiso   1.00
N1317  N     0.11736   0.83334   0.74999   0.00000  Uiso   1.00
N1318  N     0.21597   0.83332   0.75001   0.00000  Uiso   1.00
O1319  O     0.32512   0.76368   0.96390   0.00000  Uiso   1.00
H1320  H     0.01915   0.75203   0.93988   0.00000  Uiso   1.00
O1321  O     0.00873   0.76441   0.53609   0.00000  Uiso   1.00
H1322  H     0.31550   0.75186   0.56034   0.00000  Uiso   1.00
C1323  C     0.26069   0.70590   0.71841   0.00000  Uiso   1.00
C1324  C     0.21240   0.70802   0.74616   0.00000  Uiso   1.00
C1325  C     0.17621   0.72527   0.73080   0.00000  Uiso   1.00
C1326  C     0.18780   0.74017   0.68764   0.00000  Uiso   1.00
C1327  C     0.23570   0.73776   0.65970   0.00000  Uiso   1.00
C1328  C     0.27225   0.72083   0.67501   0.00000  Uiso   1.00
H1329  H     0.20290   0.69646   0.77968   0.00000  Uiso   1.00
H1330  H     0.13921   0.72719   0.75243   0.00000  Uiso   1.00
H1331  H     0.15967   0.75351   0.67584   0.00000  Uiso   1.00
H1332  H     0.24429   0.74890   0.62615   0.00000  Uiso   1.00
H1333  H     0.30928   0.71908   0.65311   0.00000  Uiso   1.00
C1334  C     0.06687   0.95965   0.78895   0.00000  Uiso   1.00
C1335  C     0.04885   0.93761   0.82870   0.00000  Uiso   1.00
C1336  C     0.08102   0.91729   0.84688   0.00000  Uiso   1.00
C1337  C     0.13128   0.91910   0.82572   0.00000  Uiso   1.00
C1338  C     0.14944   0.94125   0.78637   0.00000  Uiso   1.00
C1339  C     0.11739   0.96146   0.76798   0.00000  Uiso   1.00
H1340  H     0.00996   0.93571   0.84517   0.00000  Uiso   1.00
H1341  H     0.06698   0.89996   0.87724   0.00000  Uiso   1.00
H1342  H     0.15613   0.90318   0.83969   0.00000  Uiso   1.00
H1343  H     0.18831   0.94240   0.76990   0.00000  Uiso   1.00
H1344  H     0.13180   0.97778   0.73701   0.00000  Uiso   1.00
O1345  O     0.37291   0.77322   0.75000   0.00000  Uiso   1.00
O1346  O     0.62709   0.89345   0.75000   0.00000  Uiso   1.00
O1347  O     0.62706   0.77321   0.75000   0.00000  Uiso   1.00
O1348  O     0.37294   0.89346   0.75000   0.00000  Uiso   1.00
C1349  C     0.66663   0.75412   0.74937   0.00000  Uiso   1.00
C1350  C     0.66643   0.91247   0.75120   0.00000  Uiso   1.00
O1351  O     0.35186   0.83334   0.81492   0.00000  Uiso   1.00
O1352  O     0.64814   0.83332   0.68508   0.00000  Uiso   1.00
O1353  O     0.60600   0.83333   0.81492   0.00000  Uiso   1.00
O1354  O     0.39400   0.83333   0.68508   0.00000  Uiso   1.00
C1355  C     0.63864   0.83223   0.83538   0.00000  Uiso   1.00
C1356  C     0.36142   0.83233   0.66459   0.00000  Uiso   1.00
Cu1357 Cu    0.38022   0.83334   0.75000   0.00000  Uiso   1.00
Cu1358 Cu    0.61978   0.83333   0.75000   0.00000  Uiso   1.00
C1359  C     0.62219   0.82515   0.88273   0.00000  Uiso   1.00
C1360  C     0.37811   0.82556   0.61719   0.00000  Uiso   1.00
C1361  C     0.63536   0.79339   0.94692   0.00000  Uiso   1.00
C1362  C     0.36482   0.79451   0.55289   0.00000  Uiso   1.00
C1363  C     0.65228   0.80382   0.90223   0.00000  Uiso   1.00
C1364  C     0.34771   0.80501   0.59744   0.00000  Uiso   1.00
C1365  C     0.57389   0.83340   0.90711   0.00000  Uiso   1.00
C1366  C     0.42683   0.83316   0.59302   0.00000  Uiso   1.00
C1367  C     0.55690   0.82369   0.95215   0.00000  Uiso   1.00
C1368  C     0.44372   0.82392   0.54791   0.00000  Uiso   1.00
C1369  C     0.59028   0.80879   0.97298   0.00000  Uiso   1.00
C1370  C     0.41005   0.80988   0.52696   0.00000  Uiso   1.00
C1371  C     0.50706   0.82508   0.97665   0.00000  Uiso   1.00
C1372  C     0.49359   0.82480   0.52343   0.00000  Uiso   1.00
C1373  C     0.52983   0.81853   0.54409   0.00000  Uiso   1.00
C1374  C     0.47063   0.81991   0.95594   0.00000  Uiso   1.00
C1375  C     0.57674   0.80776   0.51906   0.00000  Uiso   1.00
C1376  C     0.42345   0.80948   0.98091   0.00000  Uiso   1.00
H1377  H     0.60230   0.79936   0.53605   0.00000  Uiso   1.00
H1378  H     0.39751   0.80188   0.96396   0.00000  Uiso   1.00
H1379  H     0.45098   0.84692   0.60931   0.00000  Uiso   1.00
H1380  H     0.55009   0.84793   0.89096   0.00000  Uiso   1.00
H1381  H     0.64524   0.79489   0.61720   0.00000  Uiso   1.00
H1382  H     0.35435   0.79306   0.88220   0.00000  Uiso   1.00
H1383  H     0.52123   0.81645   0.57956   0.00000  Uiso   1.00
H1384  H     0.47912   0.81838   0.92047   0.00000  Uiso   1.00
C1385  C     0.63178   0.68678   0.73479   0.00000  Uiso   1.00
C1386  C     0.36614   0.97954   0.76844   0.00000  Uiso   1.00
C1387  C     0.63266   0.97757   0.73626   0.00000  Uiso   1.00
C1388  C     0.36594   0.68885   0.76614   0.00000  Uiso   1.00
H1389  H     0.60722   0.96037   0.72395   0.00000  Uiso   1.00
H1390  H     0.39069   0.70610   0.77916   0.00000  Uiso   1.00
C1391  C     0.66628   0.95709   0.75248   0.00000  Uiso   1.00
C1392  C     0.66598   0.70939   0.74939   0.00000  Uiso   1.00
C1393  C     0.51363   0.81398   0.78269   0.00000  Uiso   1.00
C1394  C     0.48631   0.85296   0.71750   0.00000  Uiso   1.00
H1395  H     0.52316   0.79812   0.80881   0.00000  Uiso   1.00
H1396  H     0.47675   0.86891   0.69145   0.00000  Uiso   1.00
C1397  C     0.46423   0.81399   0.78268   0.00000  Uiso   1.00
C1398  C     0.53571   0.85297   0.71752   0.00000  Uiso   1.00
H1399  H     0.43702   0.79810   0.80878   0.00000  Uiso   1.00
H1400  H     0.56290   0.86894   0.69148   0.00000  Uiso   1.00
N1401  N     0.45069   0.83334   0.74999   0.00000  Uiso   1.00
N1402  N     0.54931   0.83332   0.75001   0.00000  Uiso   1.00
O1403  O     0.65846   0.76368   0.96390   0.00000  Uiso   1.00
H1404  H     0.35248   0.75203   0.93988   0.00000  Uiso   1.00
O1405  O     0.34206   0.76441   0.53609   0.00000  Uiso   1.00
H1406  H     0.64884   0.75186   0.56034   0.00000  Uiso   1.00
C1407  C     0.59402   0.70590   0.71841   0.00000  Uiso   1.00
C1408  C     0.54574   0.70802   0.74616   0.00000  Uiso   1.00
C1409  C     0.50955   0.72527   0.73080   0.00000  Uiso   1.00
C1410  C     0.52114   0.74017   0.68764   0.00000  Uiso   1.00
C1411  C     0.56903   0.73776   0.65970   0.00000  Uiso   1.00
C1412  C     0.60558   0.72083   0.67501   0.00000  Uiso   1.00
H1413  H     0.53623   0.69646   0.77968   0.00000  Uiso   1.00
H1414  H     0.47254   0.72719   0.75243   0.00000  Uiso   1.00
H1415  H     0.49300   0.75351   0.67584   0.00000  Uiso   1.00
H1416  H     0.57762   0.74890   0.62615   0.00000  Uiso   1.00
H1417  H     0.64261   0.71908   0.65311   0.00000  Uiso   1.00
C1418  C     0.40020   0.95965   0.78895   0.00000  Uiso   1.00
C1419  C     0.38219   0.93761   0.82870   0.00000  Uiso   1.00
C1420  C     0.41436   0.91729   0.84688   0.00000  Uiso   1.00
C1421  C     0.46461   0.91910   0.82572   0.00000  Uiso   1.00
C1422  C     0.48277   0.94125   0.78637   0.00000  Uiso   1.00
C1423  C     0.45073   0.96146   0.76798   0.00000  Uiso   1.00
H1424  H     0.34329   0.93571   0.84517   0.00000  Uiso   1.00
H1425  H     0.40031   0.89996   0.87724   0.00000  Uiso   1.00
H1426  H     0.48946   0.90318   0.83969   0.00000  Uiso   1.00
H1427  H     0.52165   0.94240   0.76990   0.00000  Uiso   1.00
H1428  H     0.46513   0.97778   0.73701   0.00000  Uiso   1.00
O1429  O     0.70625   0.77322   0.75000   0.00000  Uiso   1.00
O1430  O     0.96042   0.89345   0.75000   0.00000  Uiso   1.00
O1431  O     0.96039   0.77321   0.75000   0.00000  Uiso   1.00
O1432  O     0.70628   0.89346   0.75000   0.00000  Uiso   1.00
C1433  C     0.99996   0.75412   0.74937   0.00000  Uiso   1.00
C1434  C     0.99977   0.91247   0.75120   0.00000  Uiso   1.00
O1435  O     0.68519   0.83334   0.81492   0.00000  Uiso   1.00
O1436  O     0.98148   0.83332   0.68508   0.00000  Uiso   1.00
O1437  O     0.93933   0.83333   0.81492   0.00000  Uiso   1.00
O1438  O     0.72733   0.83333   0.68508   0.00000  Uiso   1.00
C1439  C     0.97198   0.83223   0.83538   0.00000  Uiso   1.00
C1440  C     0.69475   0.83233   0.66459   0.00000  Uiso   1.00
Cu1441 Cu    0.71355   0.83334   0.75000   0.00000  Uiso   1.00
Cu1442 Cu    0.95311   0.83333   0.75000   0.00000  Uiso   1.00
C1443  C     0.95553   0.82515   0.88273   0.00000  Uiso   1.00
C1444  C     0.71145   0.82556   0.61719   0.00000  Uiso   1.00
C1445  C     0.96869   0.79339   0.94692   0.00000  Uiso   1.00
C1446  C     0.69815   0.79451   0.55289   0.00000  Uiso   1.00
C1447  C     0.98562   0.80382   0.90223   0.00000  Uiso   1.00
C1448  C     0.68105   0.80501   0.59744   0.00000  Uiso   1.00
C1449  C     0.90722   0.83340   0.90711   0.00000  Uiso   1.00
C1450  C     0.76016   0.83316   0.59302   0.00000  Uiso   1.00
C1451  C     0.89023   0.82369   0.95215   0.00000  Uiso   1.00
C1452  C     0.77706   0.82392   0.54791   0.00000  Uiso   1.00
C1453  C     0.92362   0.80879   0.97298   0.00000  Uiso   1.00
C1454  C     0.74338   0.80988   0.52696   0.00000  Uiso   1.00
C1455  C     0.84040   0.82508   0.97665   0.00000  Uiso   1.00
C1456  C     0.82692   0.82480   0.52343   0.00000  Uiso   1.00
C1457  C     0.86316   0.81853   0.54409   0.00000  Uiso   1.00
C1458  C     0.80396   0.81991   0.95594   0.00000  Uiso   1.00
C1459  C     0.91007   0.80776   0.51906   0.00000  Uiso   1.00
C1460  C     0.75679   0.80948   0.98091   0.00000  Uiso   1.00
H1461  H     0.93563   0.79936   0.53605   0.00000  Uiso   1.00
H1462  H     0.73084   0.80188   0.96396   0.00000  Uiso   1.00
H1463  H     0.78431   0.84692   0.60931   0.00000  Uiso   1.00
H1464  H     0.88343   0.84793   0.89096   0.00000  Uiso   1.00
H1465  H     0.97857   0.79489   0.61720   0.00000  Uiso   1.00
H1466  H     0.68769   0.79306   0.88220   0.00000  Uiso   1.00
H1467  H     0.85457   0.81645   0.57956   0.00000  Uiso   1.00
H1468  H     0.81245   0.81838   0.92047   0.00000  Uiso   1.00
C1469  C     0.96511   0.68678   0.73479   0.00000  Uiso   1.00
C1470  C     0.69947   0.97954   0.76844   0.00000  Uiso   1.00
C1471  C     0.96599   0.97757   0.73626   0.00000  Uiso   1.00
C1472  C     0.69927   0.68885   0.76614   0.00000  Uiso   1.00
H1473  H     0.94055   0.96037   0.72395   0.00000  Uiso   1.00
H1474  H     0.72403   0.70610   0.77916   0.00000  Uiso   1.00
C1475  C     0.99961   0.95709   0.75248   0.00000  Uiso   1.00
C1476  C     0.99931   0.70939   0.74939   0.00000  Uiso   1.00
C1477  C     0.84696   0.81398   0.78269   0.00000  Uiso   1.00
C1478  C     0.81964   0.85296   0.71750   0.00000  Uiso   1.00
H1479  H     0.85649   0.79812   0.80881   0.00000  Uiso   1.00
H1480  H     0.81008   0.86891   0.69145   0.00000  Uiso   1.00
C1481  C     0.79756   0.81399   0.78268   0.00000  Uiso   1.00
C1482  C     0.86904   0.85297   0.71752   0.00000  Uiso   1.00
H1483  H     0.77035   0.79810   0.80878   0.00000  Uiso   1.00
H1484  H     0.89623   0.86894   0.69148   0.00000  Uiso   1.00
N1485  N     0.78403   0.83334   0.74999   0.00000  Uiso   1.00
N1486  N     0.88264   0.83332   0.75001   0.00000  Uiso   1.00
O1487  O     0.99179   0.76368   0.96390   0.00000  Uiso   1.00
H1488  H     0.68582   0.75203   0.93988   0.00000  Uiso   1.00
O1489  O     0.67540   0.76441   0.53609   0.00000  Uiso   1.00
H1490  H     0.98217   0.75186   0.56034   0.00000  Uiso   1.00
C1491  C     0.92736   0.70590   0.71841   0.00000  Uiso   1.00
C1492  C     0.87907   0.70802   0.74616   0.00000  Uiso   1.00
C1493  C     0.84288   0.72527   0.73080   0.00000  Uiso   1.00
C1494  C     0.85447   0.74017   0.68764   0.00000  Uiso   1.00
C1495  C     0.90237   0.73776   0.65970   0.00000  Uiso   1.00
C1496  C     0.93891   0.72083   0.67501   0.00000  Uiso   1.00
H1497  H     0.86956   0.69646   0.77968   0.00000  Uiso   1.00
H1498  H     0.80587   0.72719   0.75243   0.00000  Uiso   1.00
H1499  H     0.82633   0.75351   0.67584   0.00000  Uiso   1.00
H1500  H     0.91096   0.74890   0.62615   0.00000  Uiso   1.00
H1501  H     0.97595   0.71908   0.65311   0.00000  Uiso   1.00
C1502  C     0.73353   0.95965   0.78895   0.00000  Uiso   1.00
C1503  C     0.71552   0.93761   0.82870   0.00000  Uiso   1.00
C1504  C     0.74769   0.91729   0.84688   0.00000  Uiso   1.00
C1505  C     0.79794   0.91910   0.82572   0.00000  Uiso   1.00
C1506  C     0.81610   0.94125   0.78637   0.00000  Uiso   1.00
C1507  C     0.78406   0.96146   0.76798   0.00000  Uiso   1.00
H1508  H     0.67663   0.93571   0.84517   0.00000  Uiso   1.00
H1509  H     0.73364   0.89996   0.87724   0.00000  Uiso   1.00
H1510  H     0.82279   0.90318   0.83969   0.00000  Uiso   1.00
H1511  H     0.85498   0.94240   0.76990   0.00000  Uiso   1.00
H1512  H     0.79846   0.97778   0.73701   0.00000  Uiso   1.00
loop_
_geom_bond_atom_site_label_1
_geom_bond_atom_site_label_2
_geom_bond_distance
_geom_bond_site_symmetry_2
_ccdc_geom_bond_type
O1     Cu13    1.966   .     S
O1     C173    1.303   1_455 S
O2     C6      1.300   .     A
O2     Cu14    1.966   .     S
O3     Cu14    1.967   .     S
O3     C5      1.294   .     A
O4     Cu13    1.967   .     S
O4     C174    1.295   1_455 S
C5     C48     1.455   .     S
C5     O85     1.303   .     S
C6     C47     1.452   .     S
C6     O88     1.295   .     S
O7     Cu13    1.977   .     S
O7     C179    1.299   1_455 S
O8     Cu14    1.977   .     S
O8     C96     1.301   .     S
O9     Cu14    1.982   .     S
O9     C11     1.297   .     A
O10    C12     1.296   .     A
O10    Cu13    1.982   .     S
C11    C15     1.453   .     S
C11    O91     1.299   .     S
C12    C16     1.454   .     S
C12    O176    1.301   1_455 S
Cu13   N57     2.028   .     S
Cu13   Cu182   2.699   1_455 S
Cu14   N58     2.028   .     S
Cu14   Cu97    2.699   .     S
C15    C19     1.395   .     A
C15    C21     1.398   .     A
C16    C20     1.393   .     A
C16    C22     1.400   .     A
C17    O59     1.374   .     S
C17    C25     1.404   .     A
C17    C19     1.396   .     A
C18    C26     1.402   .     A
C18    O61     1.373   .     S
C18    C20     1.396   .     A
C19    H122    1.084   .     S
C20    H205    1.081   1_455 S
C21    H36     1.082   .     S
C21    C23     1.401   .     A
C22    H35     1.082   .     S
C22    C24     1.402   .     A
C23    C27     1.409   .     A
C23    C25     1.410   .     A
C24    C26     1.409   .     A
C24    C28     1.409   .     A
C25    C787    1.398   .     S
C26    C788    1.398   1_554 S
C27    C30     1.408   .     A
C27    C784    1.420   .     S
C28    C29     1.408   .     A
C28    C783    1.420   1_554 S
C29    H39     1.081   .     S
C29    C31     1.389   .     A
C30    H40     1.081   .     S
C30    C32     1.389   .     A
C31    H33     1.073   .     S
C31    C781    1.398   1_554 S
C32    H34     1.075   .     S
C32    C782    1.398   .     S
H37    C104    1.081   .     S
H38    C187    1.084   1_455 S
C41    C63     1.479   .     S
C41    C48     1.415   .     A
C41    C547    1.385   1_545 S
C42    C74     1.482   .     S
C42    C296    1.389   .     S
C42    C215    1.413   1_455 S
C43    H45     1.085   .     S
C43    C47     1.397   .     A
C43    C293    1.385   .     S
C44    H46     1.083   .     S
C44    C546    1.389   1_545 S
C44    C216    1.401   1_455 S
C47    C126    1.413   .     S
C48    C128    1.401   .     S
C49    H51     1.082   .     S
C49    N58     1.369   .     A
C49    C53     1.422   .     A
C50    C54     1.422   .     A
C50    H52     1.081   .     S
C50    N57     1.369   .     A
C53    H55     1.081   .     S
C53    N57     1.369   .     A
C54    H56     1.081   .     S
C54    N58     1.369   .     A
O59    H144    0.992   .     S
H60    O227    0.992   1_455 S
O61    H230    0.992   1_455 S
H62    O145    0.992   .     S
C63    C68     1.404   .     A
C63    C64     1.403   .     A
C64    H69     1.083   .     S
C64    C65     1.397   .     A
C65    H70     1.080   .     S
C65    C66     1.396   .     A
C66    C67     1.397   .     A
C66    H71     1.083   .     S
C67    H72     1.081   .     S
C67    C68     1.401   .     A
C68    H73     1.083   .     S
C74    C75     1.406   .     A
C74    C79     1.404   .     A
C75    H80     1.083   .     S
C75    C76     1.399   .     A
C76    C77     1.398   .     A
C76    H81     1.083   .     S
C77    C78     1.398   .     A
C77    H82     1.083   .     S
C78    H83     1.082   .     S
C78    C79     1.399   .     A
C79    H84     1.083   .     S
O85    Cu97    1.966   .     S
O86    C90     1.300   .     A
O86    Cu98    1.966   .     S
O87    Cu98    1.967   .     S
O87    C89     1.294   .     A
O88    Cu97    1.967   .     S
C89    C132    1.455   .     S
C89    O169    1.303   .     S
C90    C131    1.452   .     S
C90    O172    1.295   .     S
O91    Cu97    1.977   .     S
O92    Cu98    1.977   .     S
O92    C180    1.301   .     S
O93    Cu98    1.982   .     S
O93    C95     1.297   .     A
O94    C96     1.296   .     A
O94    Cu97    1.982   .     S
C95    C99     1.453   .     S
C95    O175    1.299   .     S
C96    C100    1.454   .     S
Cu97   N141    2.028   .     S
Cu98   N142    2.028   .     S
Cu98   Cu181   2.699   .     S
C99    C103    1.395   .     A
C99    C105    1.398   .     A
C100   C104    1.393   .     A
C100   C106    1.400   .     A
C101   O143    1.374   .     S
C101   C109    1.404   .     A
C101   C103    1.396   .     A
C102   C110    1.402   .     A
C102   O145    1.373   .     S
C102   C104    1.396   .     A
C103   H206    1.084   .     S
C105   H120    1.082   .     S
C105   C107    1.401   .     A
C106   H119    1.082   .     S
C106   C108    1.402   .     A
C107   C111    1.409   .     A
C107   C109    1.410   .     A
C108   C110    1.409   .     A
C108   C112    1.409   .     A
C109   C871    1.398   .     S
C110   C872    1.398   1_554 S
C111   C114    1.408   .     A
C111   C868    1.420   .     S
C112   C113    1.408   .     A
C112   C867    1.420   1_554 S
C113   H123    1.081   .     S
C113   C115    1.389   .     A
C114   H124    1.081   .     S
C114   C116    1.389   .     A
C115   H117    1.073   .     S
C115   C865    1.398   1_554 S
C116   H118    1.075   .     S
C116   C866    1.398   .     S
H121   C188    1.081   .     S
C125   C147    1.479   .     S
C125   C132    1.415   .     A
C125   C631    1.385   1_545 S
C126   C158    1.482   .     S
C126   C380    1.389   .     S
C127   H129    1.085   .     S
C127   C131    1.397   .     A
C127   C377    1.385   .     S
C128   H130    1.083   .     S
C128   C630    1.389   1_545 S
C131   C210    1.413   .     S
C132   C212    1.401   .     S
C133   H135    1.082   .     S
C133   N142    1.369   .     A
C133   C137    1.422   .     A
C134   C138    1.422   .     A
C134   H136    1.081   .     S
C134   N141    1.369   .     A
C137   H139    1.081   .     S
C137   N141    1.369   .     A
C138   H140    1.081   .     S
C138   N142    1.369   .     A
O143   H228    0.992   .     S
H146   O229    0.992   .     S
C147   C152    1.404   .     A
C147   C148    1.403   .     A
C148   H153    1.083   .     S
C148   C149    1.397   .     A
C149   H154    1.080   .     S
C149   C150    1.396   .     A
C150   C151    1.397   .     A
C150   H155    1.083   .     S
C151   H156    1.081   .     S
C151   C152    1.401   .     A
C152   H157    1.083   .     S
C158   C159    1.406   .     A
C158   C163    1.404   .     A
C159   H164    1.083   .     S
C159   C160    1.399   .     A
C160   C161    1.398   .     A
C160   H165    1.083   .     S
C161   C162    1.398   .     A
C161   H166    1.083   .     S
C162   H167    1.082   .     S
C162   C163    1.399   .     A
C163   H168    1.083   .     S
O169   Cu181   1.966   .     S
O170   C174    1.300   .     A
O170   Cu182   1.966   .     S
O171   Cu182   1.967   .     S
O171   C173    1.294   .     A
O172   Cu181   1.967   .     S
C173   C216    1.455   .     S
C173   O1      1.303   1_655 S
C174   C215    1.452   .     S
C174   O4      1.295   1_655 S
O175   Cu181   1.977   .     S
O176   Cu182   1.977   .     S
O176   C12     1.301   1_655 S
O177   Cu182   1.982   .     S
O177   C179    1.297   .     A
O178   C180    1.296   .     A
O178   Cu181   1.982   .     S
C179   C183    1.453   .     S
C179   O7      1.299   1_655 S
C180   C184    1.454   .     S
Cu181  N225    2.028   .     S
Cu182  N226    2.028   .     S
Cu182  Cu13    2.699   1_655 S
C183   C187    1.395   .     A
C183   C189    1.398   .     A
C184   C188    1.393   .     A
C184   C190    1.400   .     A
C185   O227    1.374   .     S
C185   C193    1.404   .     A
C185   C187    1.396   .     A
C186   C194    1.402   .     A
C186   O229    1.373   .     S
C186   C188    1.396   .     A
C187   H38     1.084   1_655 S
C189   H204    1.082   .     S
C189   C191    1.401   .     A
C190   H203    1.082   .     S
C190   C192    1.402   .     A
C191   C195    1.409   .     A
C191   C193    1.410   .     A
C192   C194    1.409   .     A
C192   C196    1.409   .     A
C193   C955    1.398   .     S
C194   C956    1.398   1_554 S
C195   C198    1.408   .     A
C195   C952    1.420   .     S
C196   C197    1.408   .     A
C196   C951    1.420   1_554 S
C197   H207    1.081   .     S
C197   C199    1.389   .     A
C198   H208    1.081   .     S
C198   C200    1.389   .     A
C199   H201    1.073   .     S
C199   C949    1.398   1_554 S
C200   H202    1.075   .     S
C200   C950    1.398   .     S
H205   C20     1.081   1_655 S
C209   C231    1.479   .     S
C209   C216    1.415   .     A
C209   C715    1.385   1_545 S
C210   C242    1.482   .     S
C210   C464    1.389   .     S
C211   H213    1.085   .     S
C211   C215    1.397   .     A
C211   C461    1.385   .     S
C212   H214    1.083   .     S
C212   C714    1.389   1_545 S
C215   C42     1.413   1_655 S
C216   C44     1.401   1_655 S
C217   H219    1.082   .     S
C217   N226    1.369   .     A
C217   C221    1.422   .     A
C218   C222    1.422   .     A
C218   H220    1.081   .     S
C218   N225    1.369   .     A
C221   H223    1.081   .     S
C221   N225    1.369   .     A
C222   H224    1.081   .     S
C222   N226    1.369   .     A
O227   H60     0.992   1_655 S
H230   O61     0.992   1_655 S
C231   C236    1.404   .     A
C231   C232    1.403   .     A
C232   H237    1.083   .     S
C232   C233    1.397   .     A
C233   H238    1.080   .     S
C233   C234    1.396   .     A
C234   C235    1.397   .     A
C234   H239    1.083   .     S
C235   H240    1.081   .     S
C235   C236    1.401   .     A
C236   H241    1.083   .     S
C242   C243    1.406   .     A
C242   C247    1.404   .     A
C243   H248    1.083   .     S
C243   C244    1.399   .     A
C244   C245    1.398   .     A
C244   H249    1.083   .     S
C245   C246    1.398   .     A
C245   H250    1.083   .     S
C246   H251    1.082   .     S
C246   C247    1.399   .     A
C247   H252    1.083   .     S
O253   Cu265   1.966   .     S
O253   C425    1.303   1_455 S
O254   C258    1.300   .     A
O254   Cu266   1.966   .     S
O255   Cu266   1.967   .     S
O255   C257    1.294   .     A
O256   Cu265   1.967   .     S
O256   C426    1.295   1_455 S
C257   C300    1.455   .     S
C257   O337    1.303   .     S
C258   C299    1.452   .     S
C258   O340    1.295   .     S
O259   Cu265   1.977   .     S
O259   C431    1.299   1_455 S
O260   Cu266   1.977   .     S
O260   C348    1.301   .     S
O261   Cu266   1.982   .     S
O261   C263    1.297   .     A
O262   C264    1.296   .     A
O262   Cu265   1.982   .     S
C263   C267    1.453   .     S
C263   O343    1.299   .     S
C264   C268    1.454   .     S
C264   O428    1.301   1_455 S
Cu265  N309    2.028   .     S
Cu265  Cu434   2.699   1_455 S
Cu266  N310    2.028   .     S
Cu266  Cu349   2.699   .     S
C267   C271    1.395   .     A
C267   C273    1.398   .     A
C268   C272    1.393   .     A
C268   C274    1.400   .     A
C269   O311    1.374   .     S
C269   C277    1.404   .     A
C269   C271    1.396   .     A
C270   C278    1.402   .     A
C270   O313    1.373   .     S
C270   C272    1.396   .     A
C271   H374    1.084   .     S
C272   H457    1.081   1_455 S
C273   H288    1.082   .     S
C273   C275    1.401   .     A
C274   H287    1.082   .     S
C274   C276    1.402   .     A
C275   C279    1.409   .     A
C275   C277    1.410   .     A
C276   C278    1.409   .     A
C276   C280    1.409   .     A
C277   C1039   1.398   .     S
C278   C1040   1.398   1_554 S
C279   C282    1.408   .     A
C279   C1036   1.420   .     S
C280   C281    1.408   .     A
C280   C1035   1.420   1_554 S
C281   H291    1.081   .     S
C281   C283    1.389   .     A
C282   H292    1.081   .     S
C282   C284    1.389   .     A
C283   H285    1.073   .     S
C283   C1033   1.398   1_554 S
C284   H286    1.075   .     S
C284   C1034   1.398   .     S
H289   C356    1.081   .     S
H290   C439    1.084   1_455 S
C293   C315    1.479   .     S
C293   C300    1.415   .     A
C294   C326    1.482   .     S
C294   C548    1.389   .     S
C294   C467    1.413   1_455 S
C295   H297    1.085   .     S
C295   C299    1.397   .     A
C295   C545    1.385   .     S
C296   H298    1.083   .     S
C296   C468    1.401   1_455 S
C299   C378    1.413   .     S
C300   C380    1.401   .     S
C301   H303    1.082   .     S
C301   N310    1.369   .     A
C301   C305    1.422   .     A
C302   C306    1.422   .     A
C302   H304    1.081   .     S
C302   N309    1.369   .     A
C305   H307    1.081   .     S
C305   N309    1.369   .     A
C306   H308    1.081   .     S
C306   N310    1.369   .     A
O311   H396    0.992   .     S
H312   O479    0.992   1_455 S
O313   H482    0.992   1_455 S
H314   O397    0.992   .     S
C315   C320    1.404   .     A
C315   C316    1.403   .     A
C316   H321    1.083   .     S
C316   C317    1.397   .     A
C317   H322    1.080   .     S
C317   C318    1.396   .     A
C318   C319    1.397   .     A
C318   H323    1.083   .     S
C319   H324    1.081   .     S
C319   C320    1.401   .     A
C320   H325    1.083   .     S
C326   C327    1.406   .     A
C326   C331    1.404   .     A
C327   H332    1.083   .     S
C327   C328    1.399   .     A
C328   C329    1.398   .     A
C328   H333    1.083   .     S
C329   C330    1.398   .     A
C329   H334    1.083   .     S
C330   H335    1.082   .     S
C330   C331    1.399   .     A
C331   H336    1.083   .     S
O337   Cu349   1.966   .     S
O338   C342    1.300   .     A
O338   Cu350   1.966   .     S
O339   Cu350   1.967   .     S
O339   C341    1.294   .     A
O340   Cu349   1.967   .     S
C341   C384    1.455   .     S
C341   O421    1.303   .     S
C342   C383    1.452   .     S
C342   O424    1.295   .     S
O343   Cu349   1.977   .     S
O344   Cu350   1.977   .     S
O344   C432    1.301   .     S
O345   Cu350   1.982   .     S
O345   C347    1.297   .     A
O346   C348    1.296   .     A
O346   Cu349   1.982   .     S
C347   C351    1.453   .     S
C347   O427    1.299   .     S
C348   C352    1.454   .     S
Cu349  N393    2.028   .     S
Cu350  N394    2.028   .     S
Cu350  Cu433   2.699   .     S
C351   C355    1.395   .     A
C351   C357    1.398   .     A
C352   C356    1.393   .     A
C352   C358    1.400   .     A
C353   O395    1.374   .     S
C353   C361    1.404   .     A
C353   C355    1.396   .     A
C354   C362    1.402   .     A
C354   O397    1.373   .     S
C354   C356    1.396   .     A
C355   H458    1.084   .     S
C357   H372    1.082   .     S
C357   C359    1.401   .     A
C358   H371    1.082   .     S
C358   C360    1.402   .     A
C359   C363    1.409   .     A
C359   C361    1.410   .     A
C360   C362    1.409   .     A
C360   C364    1.409   .     A
C361   C1123   1.398   .     S
C362   C1124   1.398   1_554 S
C363   C366    1.408   .     A
C363   C1120   1.420   .     S
C364   C365    1.408   .     A
C364   C1119   1.420   1_554 S
C365   H375    1.081   .     S
C365   C367    1.389   .     A
C366   H376    1.081   .     S
C366   C368    1.389   .     A
C367   H369    1.073   .     S
C367   C1117   1.398   1_554 S
C368   H370    1.075   .     S
C368   C1118   1.398   .     S
H373   C440    1.081   .     S
C377   C399    1.479   .     S
C377   C384    1.415   .     A
C378   C410    1.482   .     S
C378   C632    1.389   .     S
C379   H381    1.085   .     S
C379   C383    1.397   .     A
C379   C629    1.385   .     S
C380   H382    1.083   .     S
C383   C462    1.413   .     S
C384   C464    1.401   .     S
C385   H387    1.082   .     S
C385   N394    1.369   .     A
C385   C389    1.422   .     A
C386   C390    1.422   .     A
C386   H388    1.081   .     S
C386   N393    1.369   .     A
C389   H391    1.081   .     S
C389   N393    1.369   .     A
C390   H392    1.081   .     S
C390   N394    1.369   .     A
O395   H480    0.992   .     S
H398   O481    0.992   .     S
C399   C404    1.404   .     A
C399   C400    1.403   .     A
C400   H405    1.083   .     S
C400   C401    1.397   .     A
C401   H406    1.080   .     S
C401   C402    1.396   .     A
C402   C403    1.397   .     A
C402   H407    1.083   .     S
C403   H408    1.081   .     S
C403   C404    1.401   .     A
C404   H409    1.083   .     S
C410   C411    1.406   .     A
C410   C415    1.404   .     A
C411   H416    1.083   .     S
C411   C412    1.399   .     A
C412   C413    1.398   .     A
C412   H417    1.083   .     S
C413   C414    1.398   .     A
C413   H418    1.083   .     S
C414   H419    1.082   .     S
C414   C415    1.399   .     A
C415   H420    1.083   .     S
O421   Cu433   1.966   .     S
O422   C426    1.300   .     A
O422   Cu434   1.966   .     S
O423   Cu434   1.967   .     S
O423   C425    1.294   .     A
O424   Cu433   1.967   .     S
C425   C468    1.455   .     S
C425   O253    1.303   1_655 S
C426   C467    1.452   .     S
C426   O256    1.295   1_655 S
O427   Cu433   1.977   .     S
O428   Cu434   1.977   .     S
O428   C264    1.301   1_655 S
O429   Cu434   1.982   .     S
O429   C431    1.297   .     A
O430   C432    1.296   .     A
O430   Cu433   1.982   .     S
C431   C435    1.453   .     S
C431   O259    1.299   1_655 S
C432   C436    1.454   .     S
Cu433  N477    2.028   .     S
Cu434  N478    2.028   .     S
Cu434  Cu265   2.699   1_655 S
C435   C439    1.395   .     A
C435   C441    1.398   .     A
C436   C440    1.393   .     A
C436   C442    1.400   .     A
C437   O479    1.374   .     S
C437   C445    1.404   .     A
C437   C439    1.396   .     A
C438   C446    1.402   .     A
C438   O481    1.373   .     S
C438   C440    1.396   .     A
C439   H290    1.084   1_655 S
C441   H456    1.082   .     S
C441   C443    1.401   .     A
C442   H455    1.082   .     S
C442   C444    1.402   .     A
C443   C447    1.409   .     A
C443   C445    1.410   .     A
C444   C446    1.409   .     A
C444   C448    1.409   .     A
C445   C1207   1.398   .     S
C446   C1208   1.398   1_554 S
C447   C450    1.408   .     A
C447   C1204   1.420   .     S
C448   C449    1.408   .     A
C448   C1203   1.420   1_554 S
C449   H459    1.081   .     S
C449   C451    1.389   .     A
C450   H460    1.081   .     S
C450   C452    1.389   .     A
C451   H453    1.073   .     S
C451   C1201   1.398   1_554 S
C452   H454    1.075   .     S
C452   C1202   1.398   .     S
H457   C272    1.081   1_655 S
C461   C483    1.479   .     S
C461   C468    1.415   .     A
C462   C494    1.482   .     S
C462   C716    1.389   .     S
C463   H465    1.085   .     S
C463   C467    1.397   .     A
C463   C713    1.385   .     S
C464   H466    1.083   .     S
C467   C294    1.413   1_655 S
C468   C296    1.401   1_655 S
C469   H471    1.082   .     S
C469   N478    1.369   .     A
C469   C473    1.422   .     A
C470   C474    1.422   .     A
C470   H472    1.081   .     S
C470   N477    1.369   .     A
C473   H475    1.081   .     S
C473   N477    1.369   .     A
C474   H476    1.081   .     S
C474   N478    1.369   .     A
O479   H312    0.992   1_655 S
H482   O313    0.992   1_655 S
C483   C488    1.404   .     A
C483   C484    1.403   .     A
C484   H489    1.083   .     S
C484   C485    1.397   .     A
C485   H490    1.080   .     S
C485   C486    1.396   .     A
C486   C487    1.397   .     A
C486   H491    1.083   .     S
C487   H492    1.081   .     S
C487   C488    1.401   .     A
C488   H493    1.083   .     S
C494   C495    1.406   .     A
C494   C499    1.404   .     A
C495   H500    1.083   .     S
C495   C496    1.399   .     A
C496   C497    1.398   .     A
C496   H501    1.083   .     S
C497   C498    1.398   .     A
C497   H502    1.083   .     S
C498   H503    1.082   .     S
C498   C499    1.399   .     A
C499   H504    1.083   .     S
O505   Cu517   1.966   .     S
O505   C677    1.303   1_455 S
O506   C510    1.300   .     A
O506   Cu518   1.966   .     S
O507   Cu518   1.967   .     S
O507   C509    1.294   .     A
O508   Cu517   1.967   .     S
O508   C678    1.295   1_455 S
C509   C552    1.455   .     S
C509   O589    1.303   .     S
C510   C551    1.452   .     S
C510   O592    1.295   .     S
O511   Cu517   1.977   .     S
O511   C683    1.299   1_455 S
O512   Cu518   1.977   .     S
O512   C600    1.301   .     S
O513   Cu518   1.982   .     S
O513   C515    1.297   .     A
O514   C516    1.296   .     A
O514   Cu517   1.982   .     S
C515   C519    1.453   .     S
C515   O595    1.299   .     S
C516   C520    1.454   .     S
C516   O680    1.301   1_455 S
Cu517  N561    2.028   .     S
Cu517  Cu686   2.699   1_455 S
Cu518  N562    2.028   .     S
Cu518  Cu601   2.699   .     S
C519   C523    1.395   .     A
C519   C525    1.398   .     A
C520   C524    1.393   .     A
C520   C526    1.400   .     A
C521   O563    1.374   .     S
C521   C529    1.404   .     A
C521   C523    1.396   .     A
C522   C530    1.402   .     A
C522   O565    1.373   .     S
C522   C524    1.396   .     A
C523   H626    1.084   .     S
C524   H709    1.081   1_455 S
C525   H540    1.082   .     S
C525   C527    1.401   .     A
C526   H539    1.082   .     S
C526   C528    1.402   .     A
C527   C531    1.409   .     A
C527   C529    1.410   .     A
C528   C530    1.409   .     A
C528   C532    1.409   .     A
C529   C1291   1.398   .     S
C530   C1292   1.398   1_554 S
C531   C534    1.408   .     A
C531   C1288   1.420   .     S
C532   C533    1.408   .     A
C532   C1287   1.420   1_554 S
C533   H543    1.081   .     S
C533   C535    1.389   .     A
C534   H544    1.081   .     S
C534   C536    1.389   .     A
C535   H537    1.073   .     S
C535   C1285   1.398   1_554 S
C536   H538    1.075   .     S
C536   C1286   1.398   .     S
H541   C608    1.081   .     S
H542   C691    1.084   1_455 S
C545   C567    1.479   .     S
C545   C552    1.415   .     A
C546   C578    1.482   .     S
C546   C44     1.389   1_565 S
C546   C719    1.413   1_455 S
C547   H549    1.085   .     S
C547   C551    1.397   .     A
C547   C41     1.385   1_565 S
C548   H550    1.083   .     S
C548   C720    1.401   1_455 S
C551   C630    1.413   .     S
C552   C632    1.401   .     S
C553   H555    1.082   .     S
C553   N562    1.369   .     A
C553   C557    1.422   .     A
C554   C558    1.422   .     A
C554   H556    1.081   .     S
C554   N561    1.369   .     A
C557   H559    1.081   .     S
C557   N561    1.369   .     A
C558   H560    1.081   .     S
C558   N562    1.369   .     A
O563   H648    0.992   .     S
H564   O731    0.992   1_455 S
O565   H734    0.992   1_455 S
H566   O649    0.992   .     S
C567   C572    1.404   .     A
C567   C568    1.403   .     A
C568   H573    1.083   .     S
C568   C569    1.397   .     A
C569   H574    1.080   .     S
C569   C570    1.396   .     A
C570   C571    1.397   .     A
C570   H575    1.083   .     S
C571   H576    1.081   .     S
C571   C572    1.401   .     A
C572   H577    1.083   .     S
C578   C579    1.406   .     A
C578   C583    1.404   .     A
C579   H584    1.083   .     S
C579   C580    1.399   .     A
C580   C581    1.398   .     A
C580   H585    1.083   .     S
C581   C582    1.398   .     A
C581   H586    1.083   .     S
C582   H587    1.082   .     S
C582   C583    1.399   .     A
C583   H588    1.083   .     S
O589   Cu601   1.966   .     S
O590   C594    1.300   .     A
O590   Cu602   1.966   .     S
O591   Cu602   1.967   .     S
O591   C593    1.294   .     A
O592   Cu601   1.967   .     S
C593   C636    1.455   .     S
C593   O673    1.303   .     S
C594   C635    1.452   .     S
C594   O676    1.295   .     S
O595   Cu601   1.977   .     S
O596   Cu602   1.977   .     S
O596   C684    1.301   .     S
O597   Cu602   1.982   .     S
O597   C599    1.297   .     A
O598   C600    1.296   .     A
O598   Cu601   1.982   .     S
C599   C603    1.453   .     S
C599   O679    1.299   .     S
C600   C604    1.454   .     S
Cu601  N645    2.028   .     S
Cu602  N646    2.028   .     S
Cu602  Cu685   2.699   .     S
C603   C607    1.395   .     A
C603   C609    1.398   .     A
C604   C608    1.393   .     A
C604   C610    1.400   .     A
C605   O647    1.374   .     S
C605   C613    1.404   .     A
C605   C607    1.396   .     A
C606   C614    1.402   .     A
C606   O649    1.373   .     S
C606   C608    1.396   .     A
C607   H710    1.084   .     S
C609   H624    1.082   .     S
C609   C611    1.401   .     A
C610   H623    1.082   .     S
C610   C612    1.402   .     A
C611   C615    1.409   .     A
C611   C613    1.410   .     A
C612   C614    1.409   .     A
C612   C616    1.409   .     A
C613   C1375   1.398   .     S
C614   C1376   1.398   1_554 S
C615   C618    1.408   .     A
C615   C1372   1.420   .     S
C616   C617    1.408   .     A
C616   C1371   1.420   1_554 S
C617   H627    1.081   .     S
C617   C619    1.389   .     A
C618   H628    1.081   .     S
C618   C620    1.389   .     A
C619   H621    1.073   .     S
C619   C1369   1.398   1_554 S
C620   H622    1.075   .     S
C620   C1370   1.398   .     S
H625   C692    1.081   .     S
C629   C651    1.479   .     S
C629   C636    1.415   .     A
C630   C662    1.482   .     S
C630   C128    1.389   1_565 S
C631   H633    1.085   .     S
C631   C635    1.397   .     A
C631   C125    1.385   1_565 S
C632   H634    1.083   .     S
C635   C714    1.413   .     S
C636   C716    1.401   .     S
C637   H639    1.082   .     S
C637   N646    1.369   .     A
C637   C641    1.422   .     A
C638   C642    1.422   .     A
C638   H640    1.081   .     S
C638   N645    1.369   .     A
C641   H643    1.081   .     S
C641   N645    1.369   .     A
C642   H644    1.081   .     S
C642   N646    1.369   .     A
O647   H732    0.992   .     S
H650   O733    0.992   .     S
C651   C656    1.404   .     A
C651   C652    1.403   .     A
C652   H657    1.083   .     S
C652   C653    1.397   .     A
C653   H658    1.080   .     S
C653   C654    1.396   .     A
C654   C655    1.397   .     A
C654   H659    1.083   .     S
C655   H660    1.081   .     S
C655   C656    1.401   .     A
C656   H661    1.083   .     S
C662   C663    1.406   .     A
C662   C667    1.404   .     A
C663   H668    1.083   .     S
C663   C664    1.399   .     A
C664   C665    1.398   .     A
C664   H669    1.083   .     S
C665   C666    1.398   .     A
C665   H670    1.083   .     S
C666   H671    1.082   .     S
C666   C667    1.399   .     A
C667   H672    1.083   .     S
O673   Cu685   1.966   .     S
O674   C678    1.300   .     A
O674   Cu686   1.966   .     S
O675   Cu686   1.967   .     S
O675   C677    1.294   .     A
O676   Cu685   1.967   .     S
C677   C720    1.455   .     S
C677   O505    1.303   1_655 S
C678   C719    1.452   .     S
C678   O508    1.295   1_655 S
O679   Cu685   1.977   .     S
O680   Cu686   1.977   .     S
O680   C516    1.301   1_655 S
O681   Cu686   1.982   .     S
O681   C683    1.297   .     A
O682   C684    1.296   .     A
O682   Cu685   1.982   .     S
C683   C687    1.453   .     S
C683   O511    1.299   1_655 S
C684   C688    1.454   .     S
Cu685  N729    2.028   .     S
Cu686  N730    2.028   .     S
Cu686  Cu517   2.699   1_655 S
C687   C691    1.395   .     A
C687   C693    1.398   .     A
C688   C692    1.393   .     A
C688   C694    1.400   .     A
C689   O731    1.374   .     S
C689   C697    1.404   .     A
C689   C691    1.396   .     A
C690   C698    1.402   .     A
C690   O733    1.373   .     S
C690   C692    1.396   .     A
C691   H542    1.084   1_655 S
C693   H708    1.082   .     S
C693   C695    1.401   .     A
C694   H707    1.082   .     S
C694   C696    1.402   .     A
C695   C699    1.409   .     A
C695   C697    1.410   .     A
C696   C698    1.409   .     A
C696   C700    1.409   .     A
C697   C1459   1.398   .     S
C698   C1460   1.398   1_554 S
C699   C702    1.408   .     A
C699   C1456   1.420   .     S
C700   C701    1.408   .     A
C700   C1455   1.420   1_554 S
C701   H711    1.081   .     S
C701   C703    1.389   .     A
C702   H712    1.081   .     S
C702   C704    1.389   .     A
C703   H705    1.073   .     S
C703   C1453   1.398   1_554 S
C704   H706    1.075   .     S
C704   C1454   1.398   .     S
H709   C524    1.081   1_655 S
C713   C735    1.479   .     S
C713   C720    1.415   .     A
C714   C746    1.482   .     S
C714   C212    1.389   1_565 S
C715   H717    1.085   .     S
C715   C719    1.397   .     A
C715   C209    1.385   1_565 S
C716   H718    1.083   .     S
C719   C546    1.413   1_655 S
C720   C548    1.401   1_655 S
C721   H723    1.082   .     S
C721   N730    1.369   .     A
C721   C725    1.422   .     A
C722   C726    1.422   .     A
C722   H724    1.081   .     S
C722   N729    1.369   .     A
C725   H727    1.081   .     S
C725   N729    1.369   .     A
C726   H728    1.081   .     S
C726   N730    1.369   .     A
O731   H564    0.992   1_655 S
H734   O565    0.992   1_655 S
C735   C740    1.404   .     A
C735   C736    1.403   .     A
C736   H741    1.083   .     S
C736   C737    1.397   .     A
C737   H742    1.080   .     S
C737   C738    1.396   .     A
C738   C739    1.397   .     A
C738   H743    1.083   .     S
C739   H744    1.081   .     S
C739   C740    1.401   .     A
C740   H745    1.083   .     S
C746   C747    1.406   .     A
C746   C751    1.404   .     A
C747   H752    1.083   .     S
C747   C748    1.399   .     A
C748   C749    1.398   .     A
C748   H753    1.083   .     S
C749   C750    1.398   .     A
C749   H754    1.083   .     S
C750   H755    1.082   .     S
C750   C751    1.399   .     A
C751   H756    1.083   .     S
O757   Cu769   1.966   .     S
O757   C929    1.303   1_455 S
O758   C762    1.300   .     A
O758   Cu770   1.966   .     S
O759   Cu770   1.967   .     S
O759   C761    1.294   .     A
O760   Cu769   1.967   .     S
O760   C930    1.295   1_455 S
C761   C804    1.455   .     S
C761   O841    1.303   .     S
C762   C803    1.452   .     S
C762   O844    1.295   .     S
O763   Cu769   1.977   .     S
O763   C935    1.299   1_455 S
O764   Cu770   1.977   .     S
O764   C852    1.301   .     S
O765   Cu770   1.982   .     S
O765   C767    1.297   .     A
O766   C768    1.296   .     A
O766   Cu769   1.982   .     S
C767   C771    1.453   .     S
C767   O847    1.299   .     S
C768   C772    1.454   .     S
C768   O932    1.301   1_455 S
Cu769  N813    2.028   .     S
Cu769  Cu938   2.699   1_455 S
Cu770  N814    2.028   .     S
Cu770  Cu853   2.699   .     S
C771   C775    1.395   .     A
C771   C777    1.398   .     A
C772   C776    1.393   .     A
C772   C778    1.400   .     A
C773   O815    1.374   .     S
C773   C781    1.404   .     A
C773   C775    1.396   .     A
C774   C782    1.402   .     A
C774   O817    1.373   .     S
C774   C776    1.396   .     A
C775   H878    1.084   .     S
C776   H961    1.081   1_455 S
C777   H792    1.082   .     S
C777   C779    1.401   .     A
C778   H791    1.082   .     S
C778   C780    1.402   .     A
C779   C783    1.409   .     A
C779   C781    1.410   .     A
C780   C782    1.409   .     A
C780   C784    1.409   .     A
C781   C31     1.398   1_556 S
C783   C786    1.408   .     A
C783   C28     1.420   1_556 S
C784   C785    1.408   .     A
C785   H795    1.081   .     S
C785   C787    1.389   .     A
C786   H796    1.081   .     S
C786   C788    1.389   .     A
C787   H789    1.073   .     S
C788   H790    1.075   .     S
C788   C26     1.398   1_556 S
H793   C860    1.081   .     S
H794   C943    1.084   1_455 S
C797   C819    1.479   .     S
C797   C804    1.415   .     A
C797   C1303   1.385   1_545 S
C798   C830    1.482   .     S
C798   C1052   1.389   .     S
C798   C971    1.413   1_455 S
C799   H801    1.085   .     S
C799   C803    1.397   .     A
C799   C1049   1.385   .     S
C800   H802    1.083   .     S
C800   C1302   1.389   1_545 S
C800   C972    1.401   1_455 S
C803   C882    1.413   .     S
C804   C884    1.401   .     S
C805   H807    1.082   .     S
C805   N814    1.369   .     A
C805   C809    1.422   .     A
C806   C810    1.422   .     A
C806   H808    1.081   .     S
C806   N813    1.369   .     A
C809   H811    1.081   .     S
C809   N813    1.369   .     A
C810   H812    1.081   .     S
C810   N814    1.369   .     A
O815   H900    0.992   .     S
H816   O983    0.992   1_455 S
O817   H986    0.992   1_455 S
H818   O901    0.992   .     S
C819   C824    1.404   .     A
C819   C820    1.403   .     A
C820   H825    1.083   .     S
C820   C821    1.397   .     A
C821   H826    1.080   .     S
C821   C822    1.396   .     A
C822   C823    1.397   .     A
C822   H827    1.083   .     S
C823   H828    1.081   .     S
C823   C824    1.401   .     A
C824   H829    1.083   .     S
C830   C831    1.406   .     A
C830   C835    1.404   .     A
C831   H836    1.083   .     S
C831   C832    1.399   .     A
C832   C833    1.398   .     A
C832   H837    1.083   .     S
C833   C834    1.398   .     A
C833   H838    1.083   .     S
C834   H839    1.082   .     S
C834   C835    1.399   .     A
C835   H840    1.083   .     S
O841   Cu853   1.966   .     S
O842   C846    1.300   .     A
O842   Cu854   1.966   .     S
O843   Cu854   1.967   .     S
O843   C845    1.294   .     A
O844   Cu853   1.967   .     S
C845   C888    1.455   .     S
C845   O925    1.303   .     S
C846   C887    1.452   .     S
C846   O928    1.295   .     S
O847   Cu853   1.977   .     S
O848   Cu854   1.977   .     S
O848   C936    1.301   .     S
O849   Cu854   1.982   .     S
O849   C851    1.297   .     A
O850   C852    1.296   .     A
O850   Cu853   1.982   .     S
C851   C855    1.453   .     S
C851   O931    1.299   .     S
C852   C856    1.454   .     S
Cu853  N897    2.028   .     S
Cu854  N898    2.028   .     S
Cu854  Cu937   2.699   .     S
C855   C859    1.395   .     A
C855   C861    1.398   .     A
C856   C860    1.393   .     A
C856   C862    1.400   .     A
C857   O899    1.374   .     S
C857   C865    1.404   .     A
C857   C859    1.396   .     A
C858   C866    1.402   .     A
C858   O901    1.373   .     S
C858   C860    1.396   .     A
C859   H962    1.084   .     S
C861   H876    1.082   .     S
C861   C863    1.401   .     A
C862   H875    1.082   .     S
C862   C864    1.402   .     A
C863   C867    1.409   .     A
C863   C865    1.410   .     A
C864   C866    1.409   .     A
C864   C868    1.409   .     A
C865   C115    1.398   1_556 S
C867   C870    1.408   .     A
C867   C112    1.420   1_556 S
C868   C869    1.408   .     A
C869   H879    1.081   .     S
C869   C871    1.389   .     A
C870   H880    1.081   .     S
C870   C872    1.389   .     A
C871   H873    1.073   .     S
C872   H874    1.075   .     S
C872   C110    1.398   1_556 S
H877   C944    1.081   .     S
C881   C903    1.479   .     S
C881   C888    1.415   .     A
C881   C1387   1.385   1_545 S
C882   C914    1.482   .     S
C882   C1136   1.389   .     S
C883   H885    1.085   .     S
C883   C887    1.397   .     A
C883   C1133   1.385   .     S
C884   H886    1.083   .     S
C884   C1386   1.389   1_545 S
C887   C966    1.413   .     S
C888   C968    1.401   .     S
C889   H891    1.082   .     S
C889   N898    1.369   .     A
C889   C893    1.422   .     A
C890   C894    1.422   .     A
C890   H892    1.081   .     S
C890   N897    1.369   .     A
C893   H895    1.081   .     S
C893   N897    1.369   .     A
C894   H896    1.081   .     S
C894   N898    1.369   .     A
O899   H984    0.992   .     S
H902   O985    0.992   .     S
C903   C908    1.404   .     A
C903   C904    1.403   .     A
C904   H909    1.083   .     S
C904   C905    1.397   .     A
C905   H910    1.080   .     S
C905   C906    1.396   .     A
C906   C907    1.397   .     A
C906   H911    1.083   .     S
C907   H912    1.081   .     S
C907   C908    1.401   .     A
C908   H913    1.083   .     S
C914   C915    1.406   .     A
C914   C919    1.404   .     A
C915   H920    1.083   .     S
C915   C916    1.399   .     A
C916   C917    1.398   .     A
C916   H921    1.083   .     S
C917   C918    1.398   .     A
C917   H922    1.083   .     S
C918   H923    1.082   .     S
C918   C919    1.399   .     A
C919   H924    1.083   .     S
O925   Cu937   1.966   .     S
O926   C930    1.300   .     A
O926   Cu938   1.966   .     S
O927   Cu938   1.967   .     S
O927   C929    1.294   .     A
O928   Cu937   1.967   .     S
C929   C972    1.455   .     S
C929   O757    1.303   1_655 S
C930   C971    1.452   .     S
C930   O760    1.295   1_655 S
O931   Cu937   1.977   .     S
O932   Cu938   1.977   .     S
O932   C768    1.301   1_655 S
O933   Cu938   1.982   .     S
O933   C935    1.297   .     A
O934   C936    1.296   .     A
O934   Cu937   1.982   .     S
C935   C939    1.453   .     S
C935   O763    1.299   1_655 S
C936   C940    1.454   .     S
Cu937  N981    2.028   .     S
Cu938  N982    2.028   .     S
Cu938  Cu769   2.699   1_655 S
C939   C943    1.395   .     A
C939   C945    1.398   .     A
C940   C944    1.393   .     A
C940   C946    1.400   .     A
C941   O983    1.374   .     S
C941   C949    1.404   .     A
C941   C943    1.396   .     A
C942   C950    1.402   .     A
C942   O985    1.373   .     S
C942   C944    1.396   .     A
C943   H794    1.084   1_655 S
C945   H960    1.082   .     S
C945   C947    1.401   .     A
C946   H959    1.082   .     S
C946   C948    1.402   .     A
C947   C951    1.409   .     A
C947   C949    1.410   .     A
C948   C950    1.409   .     A
C948   C952    1.409   .     A
C949   C199    1.398   1_556 S
C951   C954    1.408   .     A
C951   C196    1.420   1_556 S
C952   C953    1.408   .     A
C953   H963    1.081   .     S
C953   C955    1.389   .     A
C954   H964    1.081   .     S
C954   C956    1.389   .     A
C955   H957    1.073   .     S
C956   H958    1.075   .     S
C956   C194    1.398   1_556 S
H961   C776    1.081   1_655 S
C965   C987    1.479   .     S
C965   C972    1.415   .     A
C965   C1471   1.385   1_545 S
C966   C998    1.482   .     S
C966   C1220   1.389   .     S
C967   H969    1.085   .     S
C967   C971    1.397   .     A
C967   C1217   1.385   .     S
C968   H970    1.083   .     S
C968   C1470   1.389   1_545 S
C971   C798    1.413   1_655 S
C972   C800    1.401   1_655 S
C973   H975    1.082   .     S
C973   N982    1.369   .     A
C973   C977    1.422   .     A
C974   C978    1.422   .     A
C974   H976    1.081   .     S
C974   N981    1.369   .     A
C977   H979    1.081   .     S
C977   N981    1.369   .     A
C978   H980    1.081   .     S
C978   N982    1.369   .     A
O983   H816    0.992   1_655 S
H986   O817    0.992   1_655 S
C987   C992    1.404   .     A
C987   C988    1.403   .     A
C988   H993    1.083   .     S
C988   C989    1.397   .     A
C989   H994    1.080   .     S
C989   C990    1.396   .     A
C990   C991    1.397   .     A
C990   H995    1.083   .     S
C991   H996    1.081   .     S
C991   C992    1.401   .     A
C992   H997    1.083   .     S
C998   C999    1.406   .     A
C998   C1003   1.404   .     A
C999   H1004   1.083   .     S
C999   C1000   1.399   .     A
C1000  C1001   1.398   .     A
C1000  H1005   1.083   .     S
C1001  C1002   1.398   .     A
C1001  H1006   1.083   .     S
C1002  H1007   1.082   .     S
C1002  C1003   1.399   .     A
C1003  H1008   1.083   .     S
O1009  Cu1021  1.966   .     S
O1009  C1181   1.303   1_455 S
O1010  C1014   1.300   .     A
O1010  Cu1022  1.966   .     S
O1011  Cu1022  1.967   .     S
O1011  C1013   1.294   .     A
O1012  Cu1021  1.967   .     S
O1012  C1182   1.295   1_455 S
C1013  C1056   1.455   .     S
C1013  O1093   1.303   .     S
C1014  C1055   1.452   .     S
C1014  O1096   1.295   .     S
O1015  Cu1021  1.977   .     S
O1015  C1187   1.299   1_455 S
O1016  Cu1022  1.977   .     S
O1016  C1104   1.301   .     S
O1017  Cu1022  1.982   .     S
O1017  C1019   1.297   .     A
O1018  C1020   1.296   .     A
O1018  Cu1021  1.982   .     S
C1019  C1023   1.453   .     S
C1019  O1099   1.299   .     S
C1020  C1024   1.454   .     S
C1020  O1184   1.301   1_455 S
Cu1021 N1065   2.028   .     S
Cu1021 Cu1190  2.699   1_455 S
Cu1022 N1066   2.028   .     S
Cu1022 Cu1105  2.699   .     S
C1023  C1027   1.395   .     A
C1023  C1029   1.398   .     A
C1024  C1028   1.393   .     A
C1024  C1030   1.400   .     A
C1025  O1067   1.374   .     S
C1025  C1033   1.404   .     A
C1025  C1027   1.396   .     A
C1026  C1034   1.402   .     A
C1026  O1069   1.373   .     S
C1026  C1028   1.396   .     A
C1027  H1130   1.084   .     S
C1028  H1213   1.081   1_455 S
C1029  H1044   1.082   .     S
C1029  C1031   1.401   .     A
C1030  H1043   1.082   .     S
C1030  C1032   1.402   .     A
C1031  C1035   1.409   .     A
C1031  C1033   1.410   .     A
C1032  C1034   1.409   .     A
C1032  C1036   1.409   .     A
C1033  C283    1.398   1_556 S
C1035  C1038   1.408   .     A
C1035  C280    1.420   1_556 S
C1036  C1037   1.408   .     A
C1037  H1047   1.081   .     S
C1037  C1039   1.389   .     A
C1038  H1048   1.081   .     S
C1038  C1040   1.389   .     A
C1039  H1041   1.073   .     S
C1040  H1042   1.075   .     S
C1040  C278    1.398   1_556 S
H1045  C1112   1.081   .     S
H1046  C1195   1.084   1_455 S
C1049  C1071   1.479   .     S
C1049  C1056   1.415   .     A
C1050  C1082   1.482   .     S
C1050  C1304   1.389   .     S
C1050  C1223   1.413   1_455 S
C1051  H1053   1.085   .     S
C1051  C1055   1.397   .     A
C1051  C1301   1.385   .     S
C1052  H1054   1.083   .     S
C1052  C1224   1.401   1_455 S
C1055  C1134   1.413   .     S
C1056  C1136   1.401   .     S
C1057  H1059   1.082   .     S
C1057  N1066   1.369   .     A
C1057  C1061   1.422   .     A
C1058  C1062   1.422   .     A
C1058  H1060   1.081   .     S
C1058  N1065   1.369   .     A
C1061  H1063   1.081   .     S
C1061  N1065   1.369   .     A
C1062  H1064   1.081   .     S
C1062  N1066   1.369   .     A
O1067  H1152   0.992   .     S
H1068  O1235   0.992   1_455 S
O1069  H1238   0.992   1_455 S
H1070  O1153   0.992   .     S
C1071  C1076   1.404   .     A
C1071  C1072   1.403   .     A
C1072  H1077   1.083   .     S
C1072  C1073   1.397   .     A
C1073  H1078   1.080   .     S
C1073  C1074   1.396   .     A
C1074  C1075   1.397   .     A
C1074  H1079   1.083   .     S
C1075  H1080   1.081   .     S
C1075  C1076   1.401   .     A
C1076  H1081   1.083   .     S
C1082  C1083   1.406   .     A
C1082  C1087   1.404   .     A
C1083  H1088   1.083   .     S
C1083  C1084   1.399   .     A
C1084  C1085   1.398   .     A
C1084  H1089   1.083   .     S
C1085  C1086   1.398   .     A
C1085  H1090   1.083   .     S
C1086  H1091   1.082   .     S
C1086  C1087   1.399   .     A
C1087  H1092   1.083   .     S
O1093  Cu1105  1.966   .     S
O1094  C1098   1.300   .     A
O1094  Cu1106  1.966   .     S
O1095  Cu1106  1.967   .     S
O1095  C1097   1.294   .     A
O1096  Cu1105  1.967   .     S
C1097  C1140   1.455   .     S
C1097  O1177   1.303   .     S
C1098  C1139   1.452   .     S
C1098  O1180   1.295   .     S
O1099  Cu1105  1.977   .     S
O1100  Cu1106  1.977   .     S
O1100  C1188   1.301   .     S
O1101  Cu1106  1.982   .     S
O1101  C1103   1.297   .     A
O1102  C1104   1.296   .     A
O1102  Cu1105  1.982   .     S
C1103  C1107   1.453   .     S
C1103  O1183   1.299   .     S
C1104  C1108   1.454   .     S
Cu1105 N1149   2.028   .     S
Cu1106 N1150   2.028   .     S
Cu1106 Cu1189  2.699   .     S
C1107  C1111   1.395   .     A
C1107  C1113   1.398   .     A
C1108  C1112   1.393   .     A
C1108  C1114   1.400   .     A
C1109  O1151   1.374   .     S
C1109  C1117   1.404   .     A
C1109  C1111   1.396   .     A
C1110  C1118   1.402   .     A
C1110  O1153   1.373   .     S
C1110  C1112   1.396   .     A
C1111  H1214   1.084   .     S
C1113  H1128   1.082   .     S
C1113  C1115   1.401   .     A
C1114  H1127   1.082   .     S
C1114  C1116   1.402   .     A
C1115  C1119   1.409   .     A
C1115  C1117   1.410   .     A
C1116  C1118   1.409   .     A
C1116  C1120   1.409   .     A
C1117  C367    1.398   1_556 S
C1119  C1122   1.408   .     A
C1119  C364    1.420   1_556 S
C1120  C1121   1.408   .     A
C1121  H1131   1.081   .     S
C1121  C1123   1.389   .     A
C1122  H1132   1.081   .     S
C1122  C1124   1.389   .     A
C1123  H1125   1.073   .     S
C1124  H1126   1.075   .     S
C1124  C362    1.398   1_556 S
H1129  C1196   1.081   .     S
C1133  C1155   1.479   .     S
C1133  C1140   1.415   .     A
C1134  C1166   1.482   .     S
C1134  C1388   1.389   .     S
C1135  H1137   1.085   .     S
C1135  C1139   1.397   .     A
C1135  C1385   1.385   .     S
C1136  H1138   1.083   .     S
C1139  C1218   1.413   .     S
C1140  C1220   1.401   .     S
C1141  H1143   1.082   .     S
C1141  N1150   1.369   .     A
C1141  C1145   1.422   .     A
C1142  C1146   1.422   .     A
C1142  H1144   1.081   .     S
C1142  N1149   1.369   .     A
C1145  H1147   1.081   .     S
C1145  N1149   1.369   .     A
C1146  H1148   1.081   .     S
C1146  N1150   1.369   .     A
O1151  H1236   0.992   .     S
H1154  O1237   0.992   .     S
C1155  C1160   1.404   .     A
C1155  C1156   1.403   .     A
C1156  H1161   1.083   .     S
C1156  C1157   1.397   .     A
C1157  H1162   1.080   .     S
C1157  C1158   1.396   .     A
C1158  C1159   1.397   .     A
C1158  H1163   1.083   .     S
C1159  H1164   1.081   .     S
C1159  C1160   1.401   .     A
C1160  H1165   1.083   .     S
C1166  C1167   1.406   .     A
C1166  C1171   1.404   .     A
C1167  H1172   1.083   .     S
C1167  C1168   1.399   .     A
C1168  C1169   1.398   .     A
C1168  H1173   1.083   .     S
C1169  C1170   1.398   .     A
C1169  H1174   1.083   .     S
C1170  H1175   1.082   .     S
C1170  C1171   1.399   .     A
C1171  H1176   1.083   .     S
O1177  Cu1189  1.966   .     S
O1178  C1182   1.300   .     A
O1178  Cu1190  1.966   .     S
O1179  Cu1190  1.967   .     S
O1179  C1181   1.294   .     A
O1180  Cu1189  1.967   .     S
C1181  C1224   1.455   .     S
C1181  O1009   1.303   1_655 S
C1182  C1223   1.452   .     S
C1182  O1012   1.295   1_655 S
O1183  Cu1189  1.977   .     S
O1184  Cu1190  1.977   .     S
O1184  C1020   1.301   1_655 S
O1185  Cu1190  1.982   .     S
O1185  C1187   1.297   .     A
O1186  C1188   1.296   .     A
O1186  Cu1189  1.982   .     S
C1187  C1191   1.453   .     S
C1187  O1015   1.299   1_655 S
C1188  C1192   1.454   .     S
Cu1189 N1233   2.028   .     S
Cu1190 N1234   2.028   .     S
Cu1190 Cu1021  2.699   1_655 S
C1191  C1195   1.395   .     A
C1191  C1197   1.398   .     A
C1192  C1196   1.393   .     A
C1192  C1198   1.400   .     A
C1193  O1235   1.374   .     S
C1193  C1201   1.404   .     A
C1193  C1195   1.396   .     A
C1194  C1202   1.402   .     A
C1194  O1237   1.373   .     S
C1194  C1196   1.396   .     A
C1195  H1046   1.084   1_655 S
C1197  H1212   1.082   .     S
C1197  C1199   1.401   .     A
C1198  H1211   1.082   .     S
C1198  C1200   1.402   .     A
C1199  C1203   1.409   .     A
C1199  C1201   1.410   .     A
C1200  C1202   1.409   .     A
C1200  C1204   1.409   .     A
C1201  C451    1.398   1_556 S
C1203  C1206   1.408   .     A
C1203  C448    1.420   1_556 S
C1204  C1205   1.408   .     A
C1205  H1215   1.081   .     S
C1205  C1207   1.389   .     A
C1206  H1216   1.081   .     S
C1206  C1208   1.389   .     A
C1207  H1209   1.073   .     S
C1208  H1210   1.075   .     S
C1208  C446    1.398   1_556 S
H1213  C1028   1.081   1_655 S
C1217  C1239   1.479   .     S
C1217  C1224   1.415   .     A
C1218  C1250   1.482   .     S
C1218  C1472   1.389   .     S
C1219  H1221   1.085   .     S
C1219  C1223   1.397   .     A
C1219  C1469   1.385   .     S
C1220  H1222   1.083   .     S
C1223  C1050   1.413   1_655 S
C1224  C1052   1.401   1_655 S
C1225  H1227   1.082   .     S
C1225  N1234   1.369   .     A
C1225  C1229   1.422   .     A
C1226  C1230   1.422   .     A
C1226  H1228   1.081   .     S
C1226  N1233   1.369   .     A
C1229  H1231   1.081   .     S
C1229  N1233   1.369   .     A
C1230  H1232   1.081   .     S
C1230  N1234   1.369   .     A
O1235  H1068   0.992   1_655 S
H1238  O1069   0.992   1_655 S
C1239  C1244   1.404   .     A
C1239  C1240   1.403   .     A
C1240  H1245   1.083   .     S
C1240  C1241   1.397   .     A
C1241  H1246   1.080   .     S
C1241  C1242   1.396   .     A
C1242  C1243   1.397   .     A
C1242  H1247   1.083   .     S
C1243  H1248   1.081   .     S
C1243  C1244   1.401   .     A
C1244  H1249   1.083   .     S
C1250  C1251   1.406   .     A
C1250  C1255   1.404   .     A
C1251  H1256   1.083   .     S
C1251  C1252   1.399   .     A
C1252  C1253   1.398   .     A
C1252  H1257   1.083   .     S
C1253  C1254   1.398   .     A
C1253  H1258   1.083   .     S
C1254  H1259   1.082   .     S
C1254  C1255   1.399   .     A
C1255  H1260   1.083   .     S
O1261  Cu1273  1.966   .     S
O1261  C1433   1.303   1_455 S
O1262  C1266   1.300   .     A
O1262  Cu1274  1.966   .     S
O1263  Cu1274  1.967   .     S
O1263  C1265   1.294   .     A
O1264  Cu1273  1.967   .     S
O1264  C1434   1.295   1_455 S
C1265  C1308   1.455   .     S
C1265  O1345   1.303   .     S
C1266  C1307   1.452   .     S
C1266  O1348   1.295   .     S
O1267  Cu1273  1.977   .     S
O1267  C1439   1.299   1_455 S
O1268  Cu1274  1.977   .     S
O1268  C1356   1.301   .     S
O1269  Cu1274  1.982   .     S
O1269  C1271   1.297   .     A
O1270  C1272   1.296   .     A
O1270  Cu1273  1.982   .     S
C1271  C1275   1.453   .     S
C1271  O1351   1.299   .     S
C1272  C1276   1.454   .     S
C1272  O1436   1.301   1_455 S
Cu1273 N1317   2.028   .     S
Cu1273 Cu1442  2.699   1_455 S
Cu1274 N1318   2.028   .     S
Cu1274 Cu1357  2.699   .     S
C1275  C1279   1.395   .     A
C1275  C1281   1.398   .     A
C1276  C1280   1.393   .     A
C1276  C1282   1.400   .     A
C1277  O1319   1.374   .     S
C1277  C1285   1.404   .     A
C1277  C1279   1.396   .     A
C1278  C1286   1.402   .     A
C1278  O1321   1.373   .     S
C1278  C1280   1.396   .     A
C1279  H1382   1.084   .     S
C1280  H1465   1.081   1_455 S
C1281  H1296   1.082   .     S
C1281  C1283   1.401   .     A
C1282  H1295   1.082   .     S
C1282  C1284   1.402   .     A
C1283  C1287   1.409   .     A
C1283  C1285   1.410   .     A
C1284  C1286   1.409   .     A
C1284  C1288   1.409   .     A
C1285  C535    1.398   1_556 S
C1287  C1290   1.408   .     A
C1287  C532    1.420   1_556 S
C1288  C1289   1.408   .     A
C1289  H1299   1.081   .     S
C1289  C1291   1.389   .     A
C1290  H1300   1.081   .     S
C1290  C1292   1.389   .     A
C1291  H1293   1.073   .     S
C1292  H1294   1.075   .     S
C1292  C530    1.398   1_556 S
H1297  C1364   1.081   .     S
H1298  C1447   1.084   1_455 S
C1301  C1323   1.479   .     S
C1301  C1308   1.415   .     A
C1302  C1334   1.482   .     S
C1302  C800    1.389   1_565 S
C1302  C1475   1.413   1_455 S
C1303  H1305   1.085   .     S
C1303  C1307   1.397   .     A
C1303  C797    1.385   1_565 S
C1304  H1306   1.083   .     S
C1304  C1476   1.401   1_455 S
C1307  C1386   1.413   .     S
C1308  C1388   1.401   .     S
C1309  H1311   1.082   .     S
C1309  N1318   1.369   .     A
C1309  C1313   1.422   .     A
C1310  C1314   1.422   .     A
C1310  H1312   1.081   .     S
C1310  N1317   1.369   .     A
C1313  H1315   1.081   .     S
C1313  N1317   1.369   .     A
C1314  H1316   1.081   .     S
C1314  N1318   1.369   .     A
O1319  H1404   0.992   .     S
H1320  O1487   0.992   1_455 S
O1321  H1490   0.992   1_455 S
H1322  O1405   0.992   .     S
C1323  C1328   1.404   .     A
C1323  C1324   1.403   .     A
C1324  H1329   1.083   .     S
C1324  C1325   1.397   .     A
C1325  H1330   1.080   .     S
C1325  C1326   1.396   .     A
C1326  C1327   1.397   .     A
C1326  H1331   1.083   .     S
C1327  H1332   1.081   .     S
C1327  C1328   1.401   .     A
C1328  H1333   1.083   .     S
C1334  C1335   1.406   .     A
C1334  C1339   1.404   .     A
C1335  H1340   1.083   .     S
C1335  C1336   1.399   .     A
C1336  C1337   1.398   .     A
C1336  H1341   1.083   .     S
C1337  C1338   1.398   .     A
C1337  H1342   1.083   .     S
C1338  H1343   1.082   .     S
C1338  C1339   1.399   .     A
C1339  H1344   1.083   .     S
O1345  Cu1357  1.966   .     S
O1346  C1350   1.300   .     A
O1346  Cu1358  1.966   .     S
O1347  Cu1358  1.967   .     S
O1347  C1349   1.294   .     A
O1348  Cu1357  1.967   .     S
C1349  C1392   1.455   .     S
C1349  O1429   1.303   .     S
C1350  C1391   1.452   .     S
C1350  O1432   1.295   .     S
O1351  Cu1357  1.977   .     S
O1352  Cu1358  1.977   .     S
O1352  C1440   1.301   .     S
O1353  Cu1358  1.982   .     S
O1353  C1355   1.297   .     A
O1354  C1356   1.296   .     A
O1354  Cu1357  1.982   .     S
C1355  C1359   1.453   .     S
C1355  O1435   1.299   .     S
C1356  C1360   1.454   .     S
Cu1357 N1401   2.028   .     S
Cu1358 N1402   2.028   .     S
Cu1358 Cu1441  2.699   .     S
C1359  C1363   1.395   .     A
C1359  C1365   1.398   .     A
C1360  C1364   1.393   .     A
C1360  C1366   1.400   .     A
C1361  O1403   1.374   .     S
C1361  C1369   1.404   .     A
C1361  C1363   1.396   .     A
C1362  C1370   1.402   .     A
C1362  O1405   1.373   .     S
C1362  C1364   1.396   .     A
C1363  H1466   1.084   .     S
C1365  H1380   1.082   .     S
C1365  C1367   1.401   .     A
C1366  H1379   1.082   .     S
C1366  C1368   1.402   .     A
C1367  C1371   1.409   .     A
C1367  C1369   1.410   .     A
C1368  C1370   1.409   .     A
C1368  C1372   1.409   .     A
C1369  C619    1.398   1_556 S
C1371  C1374   1.408   .     A
C1371  C616    1.420   1_556 S
C1372  C1373   1.408   .     A
C1373  H1383   1.081   .     S
C1373  C1375   1.389   .     A
C1374  H1384   1.081   .     S
C1374  C1376   1.389   .     A
C1375  H1377   1.073   .     S
C1376  H1378   1.075   .     S
C1376  C614    1.398   1_556 S
H1381  C1448   1.081   .     S
C1385  C1407   1.479   .     S
C1385  C1392   1.415   .     A
C1386  C1418   1.482   .     S
C1386  C884    1.389   1_565 S
C1387  H1389   1.085   .     S
C1387  C1391   1.397   .     A
C1387  C881    1.385   1_565 S
C1388  H1390   1.083   .     S
C1391  C1470   1.413   .     S
C1392  C1472   1.401   .     S
C1393  H1395   1.082   .     S
C1393  N1402   1.369   .     A
C1393  C1397   1.422   .     A
C1394  C1398   1.422   .     A
C1394  H1396   1.081   .     S
C1394  N1401   1.369   .     A
C1397  H1399   1.081   .     S
C1397  N1401   1.369   .     A
C1398  H1400   1.081   .     S
C1398  N1402   1.369   .     A
O1403  H1488   0.992   .     S
H1406  O1489   0.992   .     S
C1407  C1412   1.404   .     A
C1407  C1408   1.403   .     A
C1408  H1413   1.083   .     S
C1408  C1409   1.397   .     A
C1409  H1414   1.080   .     S
C1409  C1410   1.396   .     A
C1410  C1411   1.397   .     A
C1410  H1415   1.083   .     S
C1411  H1416   1.081   .     S
C1411  C1412   1.401   .     A
C1412  H1417   1.083   .     S
C1418  C1419   1.406   .     A
C1418  C1423   1.404   .     A
C1419  H1424   1.083   .     S
C1419  C1420   1.399   .     A
C1420  C1421   1.398   .     A
C1420  H1425   1.083   .     S
C1421  C1422   1.398   .     A
C1421  H1426   1.083   .     S
C1422  H1427   1.082   .     S
C1422  C1423   1.399   .     A
C1423  H1428   1.083   .     S
O1429  Cu1441  1.966   .     S
O1430  C1434   1.300   .     A
O1430  Cu1442  1.966   .     S
O1431  Cu1442  1.967   .     S
O1431  C1433   1.294   .     A
O1432  Cu1441  1.967   .     S
C1433  C1476   1.455   .     S
C1433  O1261   1.303   1_655 S
C1434  C1475   1.452   .     S
C1434  O1264   1.295   1_655 S
O1435  Cu1441  1.977   .     S
O1436  Cu1442  1.977   .     S
O1436  C1272   1.301   1_655 S
O1437  Cu1442  1.982   .     S
O1437  C1439   1.297   .     A
O1438  C1440   1.296   .     A
O1438  Cu1441  1.982   .     S
C1439  C1443   1.453   .     S
C1439  O1267   1.299   1_655 S
C1440  C1444   1.454   .     S
Cu1441 N1485   2.028   .     S
Cu1442 N1486   2.028   .     S
Cu1442 Cu1273  2.699   1_655 S
C1443  C1447   1.395   .     A
C1443  C1449   1.398   .     A
C1444  C1448   1.393   .     A
C1444  C1450   1.400   .     A
C1445  O1487   1.374   .     S
C1445  C1453   1.404   .     A
C1445  C1447   1.396   .     A
C1446  C1454   1.402   .     A
C1446  O1489   1.373   .     S
C1446  C1448   1.396   .     A
C1447  H1298   1.084   1_655 S
C1449  H1464   1.082   .     S
C1449  C1451   1.401   .     A
C1450  H1463   1.082   .     S
C1450  C1452   1.402   .     A
C1451  C1455   1.409   .     A
C1451  C1453   1.410   .     A
C1452  C1454   1.409   .     A
C1452  C1456   1.409   .     A
C1453  C703    1.398   1_556 S
C1455  C1458   1.408   .     A
C1455  C700    1.420   1_556 S
C1456  C1457   1.408   .     A
C1457  H1467   1.081   .     S
C1457  C1459   1.389   .     A
C1458  H1468   1.081   .     S
C1458  C1460   1.389   .     A
C1459  H1461   1.073   .     S
C1460  H1462   1.075   .     S
C1460  C698    1.398   1_556 S
H1465  C1280   1.081   1_655 S
C1469  C1491   1.479   .     S
C1469  C1476   1.415   .     A
C1470  C1502   1.482   .     S
C1470  C968    1.389   1_565 S
C1471  H1473   1.085   .     S
C1471  C1475   1.397   .     A
C1471  C965    1.385   1_565 S
C1472  H1474   1.083   .     S
C1475  C1302   1.413   1_655 S
C1476  C1304   1.401   1_655 S
C1477  H1479   1.082   .     S
C1477  N1486   1.369   .     A
C1477  C1481   1.422   .     A
C1478  C1482   1.422   .     A
C1478  H1480   1.081   .     S
C1478  N1485   1.369   .     A
C1481  H1483   1.081   .     S
C1481  N1485   1.369   .     A
C1482  H1484   1.081   .     S
C1482  N1486   1.369   .     A
O1487  H1320   0.992   1_655 S
H1490  O1321   0.992   1_655 S
C1491  C1496   1.404   .     A
C1491  C1492   1.403   .     A
C1492  H1497   1.083   .     S
C1492  C1493   1.397   .     A
C1493  H1498   1.080   .     S
C1493  C1494   1.396   .     A
C1494  C1495   1.397   .     A
C1494  H1499   1.083   .     S
C1495  H1500   1.081   .     S
C1495  C1496   1.401   .     A
C1496  H1501   1.083   .     S
C1502  C1503   1.406   .     A
C1502  C1507   1.404   .     A
C1503  H1508   1.083   .     S
C1503  C1504   1.399   .     A
C1504  C1505   1.398   .     A
C1504  H1509   1.083   .     S
C1505  C1506   1.398   .     A
C1505  H1510   1.083   .     S
C1506  H1511   1.082   .     S
C1506  C1507   1.399   .     A
C1507  H1512   1.083   .     S
