data_str_m3_o1_o10_pcu_sym.9
_audit_creation_date              2020-01-03
_audit_creation_method            'Materials Studio'
_symmetry_space_group_name_H-M    'P1'
_symmetry_Int_Tables_number       1
_symmetry_cell_setting            triclinic
loop_
_symmetry_equiv_pos_as_xyz
  x,y,z
_cell_length_a                    25.8044
_cell_length_b                    32.2695
_cell_length_c                    29.8552
_cell_angle_alpha                 92.4920
_cell_angle_beta                  98.7099
_cell_angle_gamma                 92.3586
loop_
_atom_site_label
_atom_site_type_symbol
_atom_site_fract_x
_atom_site_fract_y
_atom_site_fract_z
_atom_site_U_iso_or_equiv
_atom_site_adp_type
_atom_site_occupancy
O1     O     0.16666   0.10558   0.20487   0.00000  Uiso   1.00
O2     O     0.16667   0.22775   0.12846   0.00000  Uiso   1.00
O3     O     0.16666   0.10559   0.12843   0.00000  Uiso   1.00
O4     O     0.16667   0.22774   0.20490   0.00000  Uiso   1.00
C5     C     0.16751   0.08678   0.16585   0.00000  Uiso   1.00
C6     C     0.16582   0.24655   0.16749   0.00000  Uiso   1.00
O7     O     0.09058   0.16666   0.19595   0.00000  Uiso   1.00
O8     O     0.24275   0.16667   0.13739   0.00000  Uiso   1.00
O9     O     0.09058   0.16667   0.11950   0.00000  Uiso   1.00
O10    O     0.24275   0.16666   0.21383   0.00000  Uiso   1.00
C11    C     0.06719   0.16531   0.15489   0.00000  Uiso   1.00
C12    C     0.26614   0.16803   0.17845   0.00000  Uiso   1.00
Zn13   Zn    0.16667   0.16666   0.21771   0.00000  Uiso   1.00
Zn14   Zn    0.16667   0.16667   0.11563   0.00000  Uiso   1.00
N15    N     0.16665   0.16666   0.28573   0.00000  Uiso   1.00
N16    N     0.16668   0.16668   0.04760   0.00000  Uiso   1.00
C17    C     0.01232   0.15776   0.15051   0.00000  Uiso   1.00
C18    C     0.32101   0.17558   0.18282   0.00000  Uiso   1.00
C19    C     0.13972   0.01851   0.12874   0.00000  Uiso   1.00
C20    C     0.19361   0.31483   0.20459   0.00000  Uiso   1.00
C21    C     0.13544   0.30919   0.13130   0.00000  Uiso   1.00
C22    C     0.19789   0.02414   0.20203   0.00000  Uiso   1.00
C23    C     0.16352   0.29078   0.16877   0.00000  Uiso   1.00
C24    C     0.16982   0.04255   0.16457   0.00000  Uiso   1.00
C25    C     0.20553   0.18782   0.03020   0.00000  Uiso   1.00
C26    C     0.12780   0.14551   0.30313   0.00000  Uiso   1.00
C27    C     0.20567   0.18779   0.31569   0.00000  Uiso   1.00
C28    C     0.12766   0.14555   0.01765   0.00000  Uiso   1.00
N29    N     0.32222   0.12332   0.12070   0.00000  Uiso   1.00
O30    O     0.32973   0.12071   0.07863   0.00000  Uiso   1.00
O31    O     0.29847   0.09226   0.13685   0.00000  Uiso   1.00
N32    N     0.01111   0.21001   0.21263   0.00000  Uiso   1.00
O33    O     0.00360   0.21263   0.25470   0.00000  Uiso   1.00
O34    O     0.03486   0.24108   0.19649   0.00000  Uiso   1.00
N35    N     0.11190   0.03713   0.09029   0.00000  Uiso   1.00
O36    O     0.13449   0.04108   0.05447   0.00000  Uiso   1.00
O37    O     0.06130   0.03990   0.08686   0.00000  Uiso   1.00
N38    N     0.22140   0.29620   0.24306   0.00000  Uiso   1.00
O39    O     0.19875   0.29222   0.27884   0.00000  Uiso   1.00
O40    O     0.27201   0.29349   0.24656   0.00000  Uiso   1.00
N41    N     0.10125   0.28481   0.09649   0.00000  Uiso   1.00
O42    O     0.06383   0.26067   0.10711   0.00000  Uiso   1.00
O43    O     0.10756   0.28651   0.05417   0.00000  Uiso   1.00
N44    N     0.23208   0.04852   0.23685   0.00000  Uiso   1.00
O45    O     0.26950   0.07267   0.22623   0.00000  Uiso   1.00
O46    O     0.22577   0.04682   0.27916   0.00000  Uiso   1.00
N47    N     0.24586   0.21116   0.06019   0.00000  Uiso   1.00
O48    O     0.29438   0.20119   0.06169   0.00000  Uiso   1.00
O49    O     0.23650   0.24816   0.07501   0.00000  Uiso   1.00
N50    N     0.08748   0.12217   0.27314   0.00000  Uiso   1.00
O51    O     0.03896   0.13215   0.27163   0.00000  Uiso   1.00
O52    O     0.09684   0.08517   0.25833   0.00000  Uiso   1.00
N53    N     0.24816   0.20895   0.29901   0.00000  Uiso   1.00
H54    H     0.23362   0.21982   0.26769   0.00000  Uiso   1.00
H55    H     0.25941   0.23623   0.31881   0.00000  Uiso   1.00
N56    N     0.08517   0.12439   0.03433   0.00000  Uiso   1.00
H57    H     0.09972   0.11351   0.06564   0.00000  Uiso   1.00
H58    H     0.07391   0.09711   0.01452   0.00000  Uiso   1.00
O59    O     0.50000   0.10558   0.20487   0.00000  Uiso   1.00
O60    O     0.50000   0.22775   0.12846   0.00000  Uiso   1.00
O61    O     0.50000   0.10559   0.12843   0.00000  Uiso   1.00
O62    O     0.50000   0.22774   0.20490   0.00000  Uiso   1.00
C63    C     0.50084   0.08678   0.16585   0.00000  Uiso   1.00
C64    C     0.49916   0.24655   0.16749   0.00000  Uiso   1.00
O65    O     0.42392   0.16666   0.19595   0.00000  Uiso   1.00
O66    O     0.57608   0.16667   0.13739   0.00000  Uiso   1.00
O67    O     0.42392   0.16667   0.11950   0.00000  Uiso   1.00
O68    O     0.57608   0.16666   0.21383   0.00000  Uiso   1.00
C69    C     0.40053   0.16531   0.15489   0.00000  Uiso   1.00
C70    C     0.59947   0.16803   0.17845   0.00000  Uiso   1.00
Zn71   Zn    0.50000   0.16666   0.21771   0.00000  Uiso   1.00
Zn72   Zn    0.50000   0.16667   0.11563   0.00000  Uiso   1.00
N73    N     0.49999   0.16666   0.28573   0.00000  Uiso   1.00
N74    N     0.50001   0.16668   0.04760   0.00000  Uiso   1.00
C75    C     0.34565   0.15776   0.15051   0.00000  Uiso   1.00
C76    C     0.65435   0.17558   0.18282   0.00000  Uiso   1.00
C77    C     0.47306   0.01851   0.12874   0.00000  Uiso   1.00
C78    C     0.52694   0.31483   0.20459   0.00000  Uiso   1.00
C79    C     0.46878   0.30919   0.13130   0.00000  Uiso   1.00
C80    C     0.53122   0.02414   0.20203   0.00000  Uiso   1.00
C81    C     0.49685   0.29078   0.16877   0.00000  Uiso   1.00
C82    C     0.50315   0.04255   0.16457   0.00000  Uiso   1.00
C83    C     0.53887   0.18782   0.03020   0.00000  Uiso   1.00
C84    C     0.46114   0.14551   0.30313   0.00000  Uiso   1.00
C85    C     0.53901   0.18779   0.31569   0.00000  Uiso   1.00
C86    C     0.46099   0.14555   0.01765   0.00000  Uiso   1.00
N87    N     0.65556   0.12332   0.12070   0.00000  Uiso   1.00
O88    O     0.66306   0.12071   0.07863   0.00000  Uiso   1.00
O89    O     0.63181   0.09226   0.13685   0.00000  Uiso   1.00
N90    N     0.34444   0.21001   0.21263   0.00000  Uiso   1.00
O91    O     0.33693   0.21263   0.25470   0.00000  Uiso   1.00
O92    O     0.36819   0.24108   0.19649   0.00000  Uiso   1.00
N93    N     0.44524   0.03713   0.09029   0.00000  Uiso   1.00
O94    O     0.46782   0.04108   0.05447   0.00000  Uiso   1.00
O95    O     0.39463   0.03990   0.08686   0.00000  Uiso   1.00
N96    N     0.55473   0.29620   0.24306   0.00000  Uiso   1.00
O97    O     0.53208   0.29222   0.27884   0.00000  Uiso   1.00
O98    O     0.60534   0.29349   0.24656   0.00000  Uiso   1.00
N99    N     0.43458   0.28481   0.09649   0.00000  Uiso   1.00
O100   O     0.39716   0.26067   0.10711   0.00000  Uiso   1.00
O101   O     0.44089   0.28651   0.05417   0.00000  Uiso   1.00
N102   N     0.56542   0.04852   0.23685   0.00000  Uiso   1.00
O103   O     0.60283   0.07267   0.22623   0.00000  Uiso   1.00
O104   O     0.55910   0.04682   0.27916   0.00000  Uiso   1.00
N105   N     0.57919   0.21116   0.06019   0.00000  Uiso   1.00
O106   O     0.62771   0.20119   0.06169   0.00000  Uiso   1.00
O107   O     0.56983   0.24816   0.07501   0.00000  Uiso   1.00
N108   N     0.42081   0.12217   0.27314   0.00000  Uiso   1.00
O109   O     0.37229   0.13215   0.27163   0.00000  Uiso   1.00
O110   O     0.43017   0.08517   0.25833   0.00000  Uiso   1.00
N111   N     0.58149   0.20895   0.29901   0.00000  Uiso   1.00
H112   H     0.56695   0.21982   0.26769   0.00000  Uiso   1.00
H113   H     0.59274   0.23623   0.31881   0.00000  Uiso   1.00
N114   N     0.41850   0.12439   0.03433   0.00000  Uiso   1.00
H115   H     0.43305   0.11351   0.06564   0.00000  Uiso   1.00
H116   H     0.40724   0.09711   0.01452   0.00000  Uiso   1.00
O117   O     0.83333   0.10558   0.20487   0.00000  Uiso   1.00
O118   O     0.83334   0.22775   0.12846   0.00000  Uiso   1.00
O119   O     0.83333   0.10559   0.12843   0.00000  Uiso   1.00
O120   O     0.83334   0.22774   0.20490   0.00000  Uiso   1.00
C121   C     0.83418   0.08678   0.16585   0.00000  Uiso   1.00
C122   C     0.83249   0.24655   0.16749   0.00000  Uiso   1.00
O123   O     0.75725   0.16666   0.19595   0.00000  Uiso   1.00
O124   O     0.90942   0.16667   0.13739   0.00000  Uiso   1.00
O125   O     0.75725   0.16667   0.11950   0.00000  Uiso   1.00
O126   O     0.90942   0.16666   0.21383   0.00000  Uiso   1.00
C127   C     0.73386   0.16531   0.15489   0.00000  Uiso   1.00
C128   C     0.93281   0.16803   0.17845   0.00000  Uiso   1.00
Zn129  Zn    0.83333   0.16666   0.21771   0.00000  Uiso   1.00
Zn130  Zn    0.83333   0.16667   0.11563   0.00000  Uiso   1.00
N131   N     0.83332   0.16666   0.28573   0.00000  Uiso   1.00
N132   N     0.83335   0.16668   0.04760   0.00000  Uiso   1.00
C133   C     0.67899   0.15776   0.15051   0.00000  Uiso   1.00
C134   C     0.98768   0.17558   0.18282   0.00000  Uiso   1.00
C135   C     0.80639   0.01851   0.12874   0.00000  Uiso   1.00
C136   C     0.86027   0.31483   0.20459   0.00000  Uiso   1.00
C137   C     0.80211   0.30919   0.13130   0.00000  Uiso   1.00
C138   C     0.86456   0.02414   0.20203   0.00000  Uiso   1.00
C139   C     0.83018   0.29078   0.16877   0.00000  Uiso   1.00
C140   C     0.83648   0.04255   0.16457   0.00000  Uiso   1.00
C141   C     0.87220   0.18782   0.03020   0.00000  Uiso   1.00
C142   C     0.79447   0.14551   0.30313   0.00000  Uiso   1.00
C143   C     0.87234   0.18779   0.31569   0.00000  Uiso   1.00
C144   C     0.79432   0.14555   0.01765   0.00000  Uiso   1.00
N145   N     0.98889   0.12332   0.12070   0.00000  Uiso   1.00
O146   O     0.99640   0.12071   0.07863   0.00000  Uiso   1.00
O147   O     0.96514   0.09226   0.13685   0.00000  Uiso   1.00
N148   N     0.67778   0.21001   0.21263   0.00000  Uiso   1.00
O149   O     0.67027   0.21263   0.25470   0.00000  Uiso   1.00
O150   O     0.70153   0.24108   0.19649   0.00000  Uiso   1.00
N151   N     0.77857   0.03713   0.09029   0.00000  Uiso   1.00
O152   O     0.80116   0.04108   0.05447   0.00000  Uiso   1.00
O153   O     0.72797   0.03990   0.08686   0.00000  Uiso   1.00
N154   N     0.88806   0.29620   0.24306   0.00000  Uiso   1.00
O155   O     0.86542   0.29222   0.27884   0.00000  Uiso   1.00
O156   O     0.93868   0.29349   0.24656   0.00000  Uiso   1.00
N157   N     0.76791   0.28481   0.09649   0.00000  Uiso   1.00
O158   O     0.73050   0.26067   0.10711   0.00000  Uiso   1.00
O159   O     0.77423   0.28651   0.05417   0.00000  Uiso   1.00
N160   N     0.89875   0.04852   0.23685   0.00000  Uiso   1.00
O161   O     0.93616   0.07267   0.22623   0.00000  Uiso   1.00
O162   O     0.89244   0.04682   0.27916   0.00000  Uiso   1.00
N163   N     0.91252   0.21116   0.06019   0.00000  Uiso   1.00
O164   O     0.96104   0.20119   0.06169   0.00000  Uiso   1.00
O165   O     0.90317   0.24816   0.07501   0.00000  Uiso   1.00
N166   N     0.75415   0.12217   0.27314   0.00000  Uiso   1.00
O167   O     0.70563   0.13215   0.27163   0.00000  Uiso   1.00
O168   O     0.76351   0.08517   0.25833   0.00000  Uiso   1.00
N169   N     0.91483   0.20895   0.29901   0.00000  Uiso   1.00
H170   H     0.90028   0.21982   0.26769   0.00000  Uiso   1.00
H171   H     0.92608   0.23623   0.31881   0.00000  Uiso   1.00
N172   N     0.75184   0.12439   0.03433   0.00000  Uiso   1.00
H173   H     0.76639   0.11351   0.06564   0.00000  Uiso   1.00
H174   H     0.74058   0.09711   0.01452   0.00000  Uiso   1.00
O175   O     0.16666   0.43892   0.20487   0.00000  Uiso   1.00
O176   O     0.16667   0.56108   0.12846   0.00000  Uiso   1.00
O177   O     0.16666   0.43893   0.12843   0.00000  Uiso   1.00
O178   O     0.16667   0.56107   0.20490   0.00000  Uiso   1.00
C179   C     0.16751   0.42012   0.16585   0.00000  Uiso   1.00
C180   C     0.16582   0.57988   0.16749   0.00000  Uiso   1.00
O181   O     0.09058   0.50000   0.19595   0.00000  Uiso   1.00
O182   O     0.24275   0.50000   0.13739   0.00000  Uiso   1.00
O183   O     0.09058   0.50000   0.11950   0.00000  Uiso   1.00
O184   O     0.24275   0.50000   0.21383   0.00000  Uiso   1.00
C185   C     0.06719   0.49864   0.15489   0.00000  Uiso   1.00
C186   C     0.26614   0.50136   0.17845   0.00000  Uiso   1.00
Zn187  Zn    0.16667   0.49999   0.21771   0.00000  Uiso   1.00
Zn188  Zn    0.16667   0.50001   0.11563   0.00000  Uiso   1.00
N189   N     0.16665   0.49999   0.28573   0.00000  Uiso   1.00
N190   N     0.16668   0.50001   0.04760   0.00000  Uiso   1.00
C191   C     0.01232   0.49109   0.15051   0.00000  Uiso   1.00
C192   C     0.32101   0.50891   0.18282   0.00000  Uiso   1.00
C193   C     0.13972   0.35184   0.12874   0.00000  Uiso   1.00
C194   C     0.19361   0.64816   0.20459   0.00000  Uiso   1.00
C195   C     0.13544   0.64253   0.13130   0.00000  Uiso   1.00
C196   C     0.19789   0.35747   0.20203   0.00000  Uiso   1.00
C197   C     0.16352   0.62412   0.16877   0.00000  Uiso   1.00
C198   C     0.16982   0.37588   0.16457   0.00000  Uiso   1.00
C199   C     0.20553   0.52116   0.03020   0.00000  Uiso   1.00
C200   C     0.12780   0.47884   0.30313   0.00000  Uiso   1.00
C201   C     0.20567   0.52112   0.31569   0.00000  Uiso   1.00
C202   C     0.12766   0.47888   0.01765   0.00000  Uiso   1.00
N203   N     0.32222   0.45666   0.12070   0.00000  Uiso   1.00
O204   O     0.32973   0.45404   0.07863   0.00000  Uiso   1.00
O205   O     0.29847   0.42559   0.13685   0.00000  Uiso   1.00
N206   N     0.01111   0.54334   0.21263   0.00000  Uiso   1.00
O207   O     0.00360   0.54596   0.25470   0.00000  Uiso   1.00
O208   O     0.03486   0.57441   0.19649   0.00000  Uiso   1.00
N209   N     0.11190   0.37047   0.09029   0.00000  Uiso   1.00
O210   O     0.13449   0.37441   0.05447   0.00000  Uiso   1.00
O211   O     0.06130   0.37324   0.08686   0.00000  Uiso   1.00
N212   N     0.22140   0.62954   0.24306   0.00000  Uiso   1.00
O213   O     0.19875   0.62555   0.27884   0.00000  Uiso   1.00
O214   O     0.27201   0.62682   0.24656   0.00000  Uiso   1.00
N215   N     0.10125   0.61815   0.09649   0.00000  Uiso   1.00
O216   O     0.06383   0.59400   0.10711   0.00000  Uiso   1.00
O217   O     0.10756   0.61984   0.05417   0.00000  Uiso   1.00
N218   N     0.23208   0.38186   0.23685   0.00000  Uiso   1.00
O219   O     0.26950   0.40600   0.22623   0.00000  Uiso   1.00
O220   O     0.22577   0.38015   0.27916   0.00000  Uiso   1.00
N221   N     0.24586   0.54449   0.06019   0.00000  Uiso   1.00
O222   O     0.29438   0.53452   0.06169   0.00000  Uiso   1.00
O223   O     0.23650   0.58149   0.07501   0.00000  Uiso   1.00
N224   N     0.08748   0.45551   0.27314   0.00000  Uiso   1.00
O225   O     0.03896   0.46548   0.27163   0.00000  Uiso   1.00
O226   O     0.09684   0.41850   0.25833   0.00000  Uiso   1.00
N227   N     0.24816   0.54228   0.29901   0.00000  Uiso   1.00
H228   H     0.23362   0.55316   0.26769   0.00000  Uiso   1.00
H229   H     0.25941   0.56956   0.31881   0.00000  Uiso   1.00
N230   N     0.08517   0.45772   0.03433   0.00000  Uiso   1.00
H231   H     0.09972   0.44684   0.06564   0.00000  Uiso   1.00
H232   H     0.07391   0.43045   0.01452   0.00000  Uiso   1.00
O233   O     0.50000   0.43892   0.20487   0.00000  Uiso   1.00
O234   O     0.50000   0.56108   0.12846   0.00000  Uiso   1.00
O235   O     0.50000   0.43893   0.12843   0.00000  Uiso   1.00
O236   O     0.50000   0.56107   0.20490   0.00000  Uiso   1.00
C237   C     0.50084   0.42012   0.16585   0.00000  Uiso   1.00
C238   C     0.49916   0.57988   0.16749   0.00000  Uiso   1.00
O239   O     0.42392   0.50000   0.19595   0.00000  Uiso   1.00
O240   O     0.57608   0.50000   0.13739   0.00000  Uiso   1.00
O241   O     0.42392   0.50000   0.11950   0.00000  Uiso   1.00
O242   O     0.57608   0.50000   0.21383   0.00000  Uiso   1.00
C243   C     0.40053   0.49864   0.15489   0.00000  Uiso   1.00
C244   C     0.59947   0.50136   0.17845   0.00000  Uiso   1.00
Zn245  Zn    0.50000   0.49999   0.21771   0.00000  Uiso   1.00
Zn246  Zn    0.50000   0.50001   0.11563   0.00000  Uiso   1.00
N247   N     0.49999   0.49999   0.28573   0.00000  Uiso   1.00
N248   N     0.50001   0.50001   0.04760   0.00000  Uiso   1.00
C249   C     0.34565   0.49109   0.15051   0.00000  Uiso   1.00
C250   C     0.65435   0.50891   0.18282   0.00000  Uiso   1.00
C251   C     0.47306   0.35184   0.12874   0.00000  Uiso   1.00
C252   C     0.52694   0.64816   0.20459   0.00000  Uiso   1.00
C253   C     0.46878   0.64253   0.13130   0.00000  Uiso   1.00
C254   C     0.53122   0.35747   0.20203   0.00000  Uiso   1.00
C255   C     0.49685   0.62412   0.16877   0.00000  Uiso   1.00
C256   C     0.50315   0.37588   0.16457   0.00000  Uiso   1.00
C257   C     0.53887   0.52116   0.03020   0.00000  Uiso   1.00
C258   C     0.46114   0.47884   0.30313   0.00000  Uiso   1.00
C259   C     0.53901   0.52112   0.31569   0.00000  Uiso   1.00
C260   C     0.46099   0.47888   0.01765   0.00000  Uiso   1.00
N261   N     0.65556   0.45666   0.12070   0.00000  Uiso   1.00
O262   O     0.66306   0.45404   0.07863   0.00000  Uiso   1.00
O263   O     0.63181   0.42559   0.13685   0.00000  Uiso   1.00
N264   N     0.34444   0.54334   0.21263   0.00000  Uiso   1.00
O265   O     0.33693   0.54596   0.25470   0.00000  Uiso   1.00
O266   O     0.36819   0.57441   0.19649   0.00000  Uiso   1.00
N267   N     0.44524   0.37047   0.09029   0.00000  Uiso   1.00
O268   O     0.46782   0.37441   0.05447   0.00000  Uiso   1.00
O269   O     0.39463   0.37324   0.08686   0.00000  Uiso   1.00
N270   N     0.55473   0.62954   0.24306   0.00000  Uiso   1.00
O271   O     0.53208   0.62555   0.27884   0.00000  Uiso   1.00
O272   O     0.60534   0.62682   0.24656   0.00000  Uiso   1.00
N273   N     0.43458   0.61815   0.09649   0.00000  Uiso   1.00
O274   O     0.39716   0.59400   0.10711   0.00000  Uiso   1.00
O275   O     0.44089   0.61984   0.05417   0.00000  Uiso   1.00
N276   N     0.56542   0.38186   0.23685   0.00000  Uiso   1.00
O277   O     0.60283   0.40600   0.22623   0.00000  Uiso   1.00
O278   O     0.55910   0.38015   0.27916   0.00000  Uiso   1.00
N279   N     0.57919   0.54449   0.06019   0.00000  Uiso   1.00
O280   O     0.62771   0.53452   0.06169   0.00000  Uiso   1.00
O281   O     0.56983   0.58149   0.07501   0.00000  Uiso   1.00
N282   N     0.42081   0.45551   0.27314   0.00000  Uiso   1.00
O283   O     0.37229   0.46548   0.27163   0.00000  Uiso   1.00
O284   O     0.43017   0.41850   0.25833   0.00000  Uiso   1.00
N285   N     0.58149   0.54228   0.29901   0.00000  Uiso   1.00
H286   H     0.56695   0.55316   0.26769   0.00000  Uiso   1.00
H287   H     0.59274   0.56956   0.31881   0.00000  Uiso   1.00
N288   N     0.41850   0.45772   0.03433   0.00000  Uiso   1.00
H289   H     0.43305   0.44684   0.06564   0.00000  Uiso   1.00
H290   H     0.40724   0.43045   0.01452   0.00000  Uiso   1.00
O291   O     0.83333   0.43892   0.20487   0.00000  Uiso   1.00
O292   O     0.83334   0.56108   0.12846   0.00000  Uiso   1.00
O293   O     0.83333   0.43893   0.12843   0.00000  Uiso   1.00
O294   O     0.83334   0.56107   0.20490   0.00000  Uiso   1.00
C295   C     0.83418   0.42012   0.16585   0.00000  Uiso   1.00
C296   C     0.83249   0.57988   0.16749   0.00000  Uiso   1.00
O297   O     0.75725   0.50000   0.19595   0.00000  Uiso   1.00
O298   O     0.90942   0.50000   0.13739   0.00000  Uiso   1.00
O299   O     0.75725   0.50000   0.11950   0.00000  Uiso   1.00
O300   O     0.90942   0.50000   0.21383   0.00000  Uiso   1.00
C301   C     0.73386   0.49864   0.15489   0.00000  Uiso   1.00
C302   C     0.93281   0.50136   0.17845   0.00000  Uiso   1.00
Zn303  Zn    0.83333   0.49999   0.21771   0.00000  Uiso   1.00
Zn304  Zn    0.83333   0.50001   0.11563   0.00000  Uiso   1.00
N305   N     0.83332   0.49999   0.28573   0.00000  Uiso   1.00
N306   N     0.83335   0.50001   0.04760   0.00000  Uiso   1.00
C307   C     0.67899   0.49109   0.15051   0.00000  Uiso   1.00
C308   C     0.98768   0.50891   0.18282   0.00000  Uiso   1.00
C309   C     0.80639   0.35184   0.12874   0.00000  Uiso   1.00
C310   C     0.86027   0.64816   0.20459   0.00000  Uiso   1.00
C311   C     0.80211   0.64253   0.13130   0.00000  Uiso   1.00
C312   C     0.86456   0.35747   0.20203   0.00000  Uiso   1.00
C313   C     0.83018   0.62412   0.16877   0.00000  Uiso   1.00
C314   C     0.83648   0.37588   0.16457   0.00000  Uiso   1.00
C315   C     0.87220   0.52116   0.03020   0.00000  Uiso   1.00
C316   C     0.79447   0.47884   0.30313   0.00000  Uiso   1.00
C317   C     0.87234   0.52112   0.31569   0.00000  Uiso   1.00
C318   C     0.79432   0.47888   0.01765   0.00000  Uiso   1.00
N319   N     0.98889   0.45666   0.12070   0.00000  Uiso   1.00
O320   O     0.99640   0.45404   0.07863   0.00000  Uiso   1.00
O321   O     0.96514   0.42559   0.13685   0.00000  Uiso   1.00
N322   N     0.67778   0.54334   0.21263   0.00000  Uiso   1.00
O323   O     0.67027   0.54596   0.25470   0.00000  Uiso   1.00
O324   O     0.70153   0.57441   0.19649   0.00000  Uiso   1.00
N325   N     0.77857   0.37047   0.09029   0.00000  Uiso   1.00
O326   O     0.80116   0.37441   0.05447   0.00000  Uiso   1.00
O327   O     0.72797   0.37324   0.08686   0.00000  Uiso   1.00
N328   N     0.88806   0.62954   0.24306   0.00000  Uiso   1.00
O329   O     0.86542   0.62555   0.27884   0.00000  Uiso   1.00
O330   O     0.93868   0.62682   0.24656   0.00000  Uiso   1.00
N331   N     0.76791   0.61815   0.09649   0.00000  Uiso   1.00
O332   O     0.73050   0.59400   0.10711   0.00000  Uiso   1.00
O333   O     0.77423   0.61984   0.05417   0.00000  Uiso   1.00
N334   N     0.89875   0.38186   0.23685   0.00000  Uiso   1.00
O335   O     0.93616   0.40600   0.22623   0.00000  Uiso   1.00
O336   O     0.89244   0.38015   0.27916   0.00000  Uiso   1.00
N337   N     0.91252   0.54449   0.06019   0.00000  Uiso   1.00
O338   O     0.96104   0.53452   0.06169   0.00000  Uiso   1.00
O339   O     0.90317   0.58149   0.07501   0.00000  Uiso   1.00
N340   N     0.75415   0.45551   0.27314   0.00000  Uiso   1.00
O341   O     0.70563   0.46548   0.27163   0.00000  Uiso   1.00
O342   O     0.76351   0.41850   0.25833   0.00000  Uiso   1.00
N343   N     0.91483   0.54228   0.29901   0.00000  Uiso   1.00
H344   H     0.90028   0.55316   0.26769   0.00000  Uiso   1.00
H345   H     0.92608   0.56956   0.31881   0.00000  Uiso   1.00
N346   N     0.75184   0.45772   0.03433   0.00000  Uiso   1.00
H347   H     0.76639   0.44684   0.06564   0.00000  Uiso   1.00
H348   H     0.74058   0.43045   0.01452   0.00000  Uiso   1.00
O349   O     0.16666   0.77225   0.20487   0.00000  Uiso   1.00
O350   O     0.16667   0.89442   0.12846   0.00000  Uiso   1.00
O351   O     0.16666   0.77226   0.12843   0.00000  Uiso   1.00
O352   O     0.16667   0.89441   0.20490   0.00000  Uiso   1.00
C353   C     0.16751   0.75345   0.16585   0.00000  Uiso   1.00
C354   C     0.16582   0.91322   0.16749   0.00000  Uiso   1.00
O355   O     0.09058   0.83333   0.19595   0.00000  Uiso   1.00
O356   O     0.24275   0.83334   0.13739   0.00000  Uiso   1.00
O357   O     0.09058   0.83334   0.11950   0.00000  Uiso   1.00
O358   O     0.24275   0.83333   0.21383   0.00000  Uiso   1.00
C359   C     0.06719   0.83197   0.15489   0.00000  Uiso   1.00
C360   C     0.26614   0.83469   0.17845   0.00000  Uiso   1.00
Zn361  Zn    0.16667   0.83333   0.21771   0.00000  Uiso   1.00
Zn362  Zn    0.16667   0.83334   0.11563   0.00000  Uiso   1.00
N363   N     0.16665   0.83332   0.28573   0.00000  Uiso   1.00
N364   N     0.16668   0.83334   0.04760   0.00000  Uiso   1.00
C365   C     0.01232   0.82442   0.15051   0.00000  Uiso   1.00
C366   C     0.32101   0.84224   0.18282   0.00000  Uiso   1.00
C367   C     0.13972   0.68517   0.12874   0.00000  Uiso   1.00
C368   C     0.19361   0.98150   0.20459   0.00000  Uiso   1.00
C369   C     0.13544   0.97586   0.13130   0.00000  Uiso   1.00
C370   C     0.19789   0.69081   0.20203   0.00000  Uiso   1.00
C371   C     0.16352   0.95745   0.16877   0.00000  Uiso   1.00
C372   C     0.16982   0.70922   0.16457   0.00000  Uiso   1.00
C373   C     0.20553   0.85449   0.03020   0.00000  Uiso   1.00
C374   C     0.12780   0.81218   0.30313   0.00000  Uiso   1.00
C375   C     0.20567   0.85445   0.31569   0.00000  Uiso   1.00
C376   C     0.12766   0.81221   0.01765   0.00000  Uiso   1.00
N377   N     0.32222   0.78999   0.12070   0.00000  Uiso   1.00
O378   O     0.32973   0.78738   0.07863   0.00000  Uiso   1.00
O379   O     0.29847   0.75892   0.13685   0.00000  Uiso   1.00
N380   N     0.01111   0.87668   0.21263   0.00000  Uiso   1.00
O381   O     0.00360   0.87929   0.25470   0.00000  Uiso   1.00
O382   O     0.03486   0.90774   0.19649   0.00000  Uiso   1.00
N383   N     0.11190   0.70380   0.09029   0.00000  Uiso   1.00
O384   O     0.13449   0.70774   0.05447   0.00000  Uiso   1.00
O385   O     0.06130   0.70657   0.08686   0.00000  Uiso   1.00
N386   N     0.22140   0.96287   0.24306   0.00000  Uiso   1.00
O387   O     0.19875   0.95888   0.27884   0.00000  Uiso   1.00
O388   O     0.27201   0.96015   0.24656   0.00000  Uiso   1.00
N389   N     0.10125   0.95148   0.09649   0.00000  Uiso   1.00
O390   O     0.06383   0.92734   0.10711   0.00000  Uiso   1.00
O391   O     0.10756   0.95317   0.05417   0.00000  Uiso   1.00
N392   N     0.23208   0.71519   0.23685   0.00000  Uiso   1.00
O393   O     0.26950   0.73934   0.22623   0.00000  Uiso   1.00
O394   O     0.22577   0.71349   0.27916   0.00000  Uiso   1.00
N395   N     0.24586   0.87782   0.06019   0.00000  Uiso   1.00
O396   O     0.29438   0.86785   0.06169   0.00000  Uiso   1.00
O397   O     0.23650   0.91482   0.07501   0.00000  Uiso   1.00
N398   N     0.08748   0.78884   0.27314   0.00000  Uiso   1.00
O399   O     0.03896   0.79881   0.27163   0.00000  Uiso   1.00
O400   O     0.09684   0.75184   0.25833   0.00000  Uiso   1.00
N401   N     0.24816   0.87562   0.29901   0.00000  Uiso   1.00
H402   H     0.23362   0.88649   0.26769   0.00000  Uiso   1.00
H403   H     0.25941   0.90290   0.31881   0.00000  Uiso   1.00
N404   N     0.08517   0.79106   0.03433   0.00000  Uiso   1.00
H405   H     0.09972   0.78017   0.06564   0.00000  Uiso   1.00
H406   H     0.07391   0.76378   0.01452   0.00000  Uiso   1.00
O407   O     0.50000   0.77225   0.20487   0.00000  Uiso   1.00
O408   O     0.50000   0.89442   0.12846   0.00000  Uiso   1.00
O409   O     0.50000   0.77226   0.12843   0.00000  Uiso   1.00
O410   O     0.50000   0.89441   0.20490   0.00000  Uiso   1.00
C411   C     0.50084   0.75345   0.16585   0.00000  Uiso   1.00
C412   C     0.49916   0.91322   0.16749   0.00000  Uiso   1.00
O413   O     0.42392   0.83333   0.19595   0.00000  Uiso   1.00
O414   O     0.57608   0.83334   0.13739   0.00000  Uiso   1.00
O415   O     0.42392   0.83334   0.11950   0.00000  Uiso   1.00
O416   O     0.57608   0.83333   0.21383   0.00000  Uiso   1.00
C417   C     0.40053   0.83197   0.15489   0.00000  Uiso   1.00
C418   C     0.59947   0.83469   0.17845   0.00000  Uiso   1.00
Zn419  Zn    0.50000   0.83333   0.21771   0.00000  Uiso   1.00
Zn420  Zn    0.50000   0.83334   0.11563   0.00000  Uiso   1.00
N421   N     0.49999   0.83332   0.28573   0.00000  Uiso   1.00
N422   N     0.50001   0.83334   0.04760   0.00000  Uiso   1.00
C423   C     0.34565   0.82442   0.15051   0.00000  Uiso   1.00
C424   C     0.65435   0.84224   0.18282   0.00000  Uiso   1.00
C425   C     0.47306   0.68517   0.12874   0.00000  Uiso   1.00
C426   C     0.52694   0.98150   0.20459   0.00000  Uiso   1.00
C427   C     0.46878   0.97586   0.13130   0.00000  Uiso   1.00
C428   C     0.53122   0.69081   0.20203   0.00000  Uiso   1.00
C429   C     0.49685   0.95745   0.16877   0.00000  Uiso   1.00
C430   C     0.50315   0.70922   0.16457   0.00000  Uiso   1.00
C431   C     0.53887   0.85449   0.03020   0.00000  Uiso   1.00
C432   C     0.46114   0.81218   0.30313   0.00000  Uiso   1.00
C433   C     0.53901   0.85445   0.31569   0.00000  Uiso   1.00
C434   C     0.46099   0.81221   0.01765   0.00000  Uiso   1.00
N435   N     0.65556   0.78999   0.12070   0.00000  Uiso   1.00
O436   O     0.66306   0.78738   0.07863   0.00000  Uiso   1.00
O437   O     0.63181   0.75892   0.13685   0.00000  Uiso   1.00
N438   N     0.34444   0.87668   0.21263   0.00000  Uiso   1.00
O439   O     0.33693   0.87929   0.25470   0.00000  Uiso   1.00
O440   O     0.36819   0.90774   0.19649   0.00000  Uiso   1.00
N441   N     0.44524   0.70380   0.09029   0.00000  Uiso   1.00
O442   O     0.46782   0.70774   0.05447   0.00000  Uiso   1.00
O443   O     0.39463   0.70657   0.08686   0.00000  Uiso   1.00
N444   N     0.55473   0.96287   0.24306   0.00000  Uiso   1.00
O445   O     0.53208   0.95888   0.27884   0.00000  Uiso   1.00
O446   O     0.60534   0.96015   0.24656   0.00000  Uiso   1.00
N447   N     0.43458   0.95148   0.09649   0.00000  Uiso   1.00
O448   O     0.39716   0.92734   0.10711   0.00000  Uiso   1.00
O449   O     0.44089   0.95317   0.05417   0.00000  Uiso   1.00
N450   N     0.56542   0.71519   0.23685   0.00000  Uiso   1.00
O451   O     0.60283   0.73934   0.22623   0.00000  Uiso   1.00
O452   O     0.55910   0.71349   0.27916   0.00000  Uiso   1.00
N453   N     0.57919   0.87782   0.06019   0.00000  Uiso   1.00
O454   O     0.62771   0.86785   0.06169   0.00000  Uiso   1.00
O455   O     0.56983   0.91482   0.07501   0.00000  Uiso   1.00
N456   N     0.42081   0.78884   0.27314   0.00000  Uiso   1.00
O457   O     0.37229   0.79881   0.27163   0.00000  Uiso   1.00
O458   O     0.43017   0.75184   0.25833   0.00000  Uiso   1.00
N459   N     0.58149   0.87562   0.29901   0.00000  Uiso   1.00
H460   H     0.56695   0.88649   0.26769   0.00000  Uiso   1.00
H461   H     0.59274   0.90290   0.31881   0.00000  Uiso   1.00
N462   N     0.41850   0.79106   0.03433   0.00000  Uiso   1.00
H463   H     0.43305   0.78017   0.06564   0.00000  Uiso   1.00
H464   H     0.40724   0.76378   0.01452   0.00000  Uiso   1.00
O465   O     0.83333   0.77225   0.20487   0.00000  Uiso   1.00
O466   O     0.83334   0.89442   0.12846   0.00000  Uiso   1.00
O467   O     0.83333   0.77226   0.12843   0.00000  Uiso   1.00
O468   O     0.83334   0.89441   0.20490   0.00000  Uiso   1.00
C469   C     0.83418   0.75345   0.16585   0.00000  Uiso   1.00
C470   C     0.83249   0.91322   0.16749   0.00000  Uiso   1.00
O471   O     0.75725   0.83333   0.19595   0.00000  Uiso   1.00
O472   O     0.90942   0.83334   0.13739   0.00000  Uiso   1.00
O473   O     0.75725   0.83334   0.11950   0.00000  Uiso   1.00
O474   O     0.90942   0.83333   0.21383   0.00000  Uiso   1.00
C475   C     0.73386   0.83197   0.15489   0.00000  Uiso   1.00
C476   C     0.93281   0.83469   0.17845   0.00000  Uiso   1.00
Zn477  Zn    0.83333   0.83333   0.21771   0.00000  Uiso   1.00
Zn478  Zn    0.83333   0.83334   0.11563   0.00000  Uiso   1.00
N479   N     0.83332   0.83332   0.28573   0.00000  Uiso   1.00
N480   N     0.83335   0.83334   0.04760   0.00000  Uiso   1.00
C481   C     0.67899   0.82442   0.15051   0.00000  Uiso   1.00
C482   C     0.98768   0.84224   0.18282   0.00000  Uiso   1.00
C483   C     0.80639   0.68517   0.12874   0.00000  Uiso   1.00
C484   C     0.86027   0.98150   0.20459   0.00000  Uiso   1.00
C485   C     0.80211   0.97586   0.13130   0.00000  Uiso   1.00
C486   C     0.86456   0.69081   0.20203   0.00000  Uiso   1.00
C487   C     0.83018   0.95745   0.16877   0.00000  Uiso   1.00
C488   C     0.83648   0.70922   0.16457   0.00000  Uiso   1.00
C489   C     0.87220   0.85449   0.03020   0.00000  Uiso   1.00
C490   C     0.79447   0.81218   0.30313   0.00000  Uiso   1.00
C491   C     0.87234   0.85445   0.31569   0.00000  Uiso   1.00
C492   C     0.79432   0.81221   0.01765   0.00000  Uiso   1.00
N493   N     0.98889   0.78999   0.12070   0.00000  Uiso   1.00
O494   O     0.99640   0.78738   0.07863   0.00000  Uiso   1.00
O495   O     0.96514   0.75892   0.13685   0.00000  Uiso   1.00
N496   N     0.67778   0.87668   0.21263   0.00000  Uiso   1.00
O497   O     0.67027   0.87929   0.25470   0.00000  Uiso   1.00
O498   O     0.70153   0.90774   0.19649   0.00000  Uiso   1.00
N499   N     0.77857   0.70380   0.09029   0.00000  Uiso   1.00
O500   O     0.80116   0.70774   0.05447   0.00000  Uiso   1.00
O501   O     0.72797   0.70657   0.08686   0.00000  Uiso   1.00
N502   N     0.88806   0.96287   0.24306   0.00000  Uiso   1.00
O503   O     0.86542   0.95888   0.27884   0.00000  Uiso   1.00
O504   O     0.93868   0.96015   0.24656   0.00000  Uiso   1.00
N505   N     0.76791   0.95148   0.09649   0.00000  Uiso   1.00
O506   O     0.73050   0.92734   0.10711   0.00000  Uiso   1.00
O507   O     0.77423   0.95317   0.05417   0.00000  Uiso   1.00
N508   N     0.89875   0.71519   0.23685   0.00000  Uiso   1.00
O509   O     0.93616   0.73934   0.22623   0.00000  Uiso   1.00
O510   O     0.89244   0.71349   0.27916   0.00000  Uiso   1.00
N511   N     0.91252   0.87782   0.06019   0.00000  Uiso   1.00
O512   O     0.96104   0.86785   0.06169   0.00000  Uiso   1.00
O513   O     0.90317   0.91482   0.07501   0.00000  Uiso   1.00
N514   N     0.75415   0.78884   0.27314   0.00000  Uiso   1.00
O515   O     0.70563   0.79881   0.27163   0.00000  Uiso   1.00
O516   O     0.76351   0.75184   0.25833   0.00000  Uiso   1.00
N517   N     0.91483   0.87562   0.29901   0.00000  Uiso   1.00
H518   H     0.90028   0.88649   0.26769   0.00000  Uiso   1.00
H519   H     0.92608   0.90290   0.31881   0.00000  Uiso   1.00
N520   N     0.75184   0.79106   0.03433   0.00000  Uiso   1.00
H521   H     0.76639   0.78017   0.06564   0.00000  Uiso   1.00
H522   H     0.74058   0.76378   0.01452   0.00000  Uiso   1.00
O523   O     0.16666   0.10558   0.53821   0.00000  Uiso   1.00
O524   O     0.16667   0.22775   0.46179   0.00000  Uiso   1.00
O525   O     0.16666   0.10559   0.46176   0.00000  Uiso   1.00
O526   O     0.16667   0.22774   0.53824   0.00000  Uiso   1.00
C527   C     0.16751   0.08678   0.49918   0.00000  Uiso   1.00
C528   C     0.16582   0.24655   0.50082   0.00000  Uiso   1.00
O529   O     0.09058   0.16666   0.52928   0.00000  Uiso   1.00
O530   O     0.24275   0.16667   0.47072   0.00000  Uiso   1.00
O531   O     0.09058   0.16667   0.45284   0.00000  Uiso   1.00
O532   O     0.24275   0.16666   0.54716   0.00000  Uiso   1.00
C533   C     0.06719   0.16531   0.48822   0.00000  Uiso   1.00
C534   C     0.26614   0.16803   0.51178   0.00000  Uiso   1.00
Zn535  Zn    0.16667   0.16666   0.55104   0.00000  Uiso   1.00
Zn536  Zn    0.16667   0.16667   0.44896   0.00000  Uiso   1.00
N537   N     0.16665   0.16666   0.61907   0.00000  Uiso   1.00
N538   N     0.16668   0.16668   0.38093   0.00000  Uiso   1.00
C539   C     0.01232   0.15776   0.48384   0.00000  Uiso   1.00
C540   C     0.32101   0.17558   0.51616   0.00000  Uiso   1.00
C541   C     0.13972   0.01851   0.46208   0.00000  Uiso   1.00
C542   C     0.19361   0.31483   0.53793   0.00000  Uiso   1.00
C543   C     0.13544   0.30919   0.46464   0.00000  Uiso   1.00
C544   C     0.19789   0.02414   0.53536   0.00000  Uiso   1.00
C545   C     0.16352   0.29078   0.50210   0.00000  Uiso   1.00
C546   C     0.16982   0.04255   0.49790   0.00000  Uiso   1.00
C547   C     0.20553   0.18782   0.36353   0.00000  Uiso   1.00
C548   C     0.12780   0.14551   0.63647   0.00000  Uiso   1.00
C549   C     0.20567   0.18779   0.64902   0.00000  Uiso   1.00
C550   C     0.12766   0.14555   0.35098   0.00000  Uiso   1.00
N551   N     0.32222   0.12332   0.45403   0.00000  Uiso   1.00
O552   O     0.32973   0.12071   0.41196   0.00000  Uiso   1.00
O553   O     0.29847   0.09226   0.47018   0.00000  Uiso   1.00
N554   N     0.01111   0.21001   0.54597   0.00000  Uiso   1.00
O555   O     0.00360   0.21263   0.58804   0.00000  Uiso   1.00
O556   O     0.03486   0.24108   0.52982   0.00000  Uiso   1.00
N557   N     0.11190   0.03713   0.42362   0.00000  Uiso   1.00
O558   O     0.13449   0.04108   0.38781   0.00000  Uiso   1.00
O559   O     0.06130   0.03990   0.42019   0.00000  Uiso   1.00
N560   N     0.22140   0.29620   0.57640   0.00000  Uiso   1.00
O561   O     0.19875   0.29222   0.61217   0.00000  Uiso   1.00
O562   O     0.27201   0.29349   0.57990   0.00000  Uiso   1.00
N563   N     0.10125   0.28481   0.42982   0.00000  Uiso   1.00
O564   O     0.06383   0.26067   0.44044   0.00000  Uiso   1.00
O565   O     0.10756   0.28651   0.38751   0.00000  Uiso   1.00
N566   N     0.23208   0.04852   0.57019   0.00000  Uiso   1.00
O567   O     0.26950   0.07267   0.55957   0.00000  Uiso   1.00
O568   O     0.22577   0.04682   0.61250   0.00000  Uiso   1.00
N569   N     0.24586   0.21116   0.39353   0.00000  Uiso   1.00
O570   O     0.29438   0.20119   0.39502   0.00000  Uiso   1.00
O571   O     0.23650   0.24816   0.40835   0.00000  Uiso   1.00
N572   N     0.08748   0.12217   0.60647   0.00000  Uiso   1.00
O573   O     0.03896   0.13215   0.60497   0.00000  Uiso   1.00
O574   O     0.09684   0.08517   0.59167   0.00000  Uiso   1.00
N575   N     0.24816   0.20895   0.63234   0.00000  Uiso   1.00
H576   H     0.23362   0.21982   0.60103   0.00000  Uiso   1.00
H577   H     0.25941   0.23623   0.65214   0.00000  Uiso   1.00
N578   N     0.08517   0.12439   0.36766   0.00000  Uiso   1.00
H579   H     0.09972   0.11351   0.39897   0.00000  Uiso   1.00
H580   H     0.07391   0.09711   0.34785   0.00000  Uiso   1.00
O581   O     0.50000   0.10558   0.53821   0.00000  Uiso   1.00
O582   O     0.50000   0.22775   0.46179   0.00000  Uiso   1.00
O583   O     0.50000   0.10559   0.46176   0.00000  Uiso   1.00
O584   O     0.50000   0.22774   0.53824   0.00000  Uiso   1.00
C585   C     0.50084   0.08678   0.49918   0.00000  Uiso   1.00
C586   C     0.49916   0.24655   0.50082   0.00000  Uiso   1.00
O587   O     0.42392   0.16666   0.52928   0.00000  Uiso   1.00
O588   O     0.57608   0.16667   0.47072   0.00000  Uiso   1.00
O589   O     0.42392   0.16667   0.45284   0.00000  Uiso   1.00
O590   O     0.57608   0.16666   0.54716   0.00000  Uiso   1.00
C591   C     0.40053   0.16531   0.48822   0.00000  Uiso   1.00
C592   C     0.59947   0.16803   0.51178   0.00000  Uiso   1.00
Zn593  Zn    0.50000   0.16666   0.55104   0.00000  Uiso   1.00
Zn594  Zn    0.50000   0.16667   0.44896   0.00000  Uiso   1.00
N595   N     0.49999   0.16666   0.61907   0.00000  Uiso   1.00
N596   N     0.50001   0.16668   0.38093   0.00000  Uiso   1.00
C597   C     0.34565   0.15776   0.48384   0.00000  Uiso   1.00
C598   C     0.65435   0.17558   0.51616   0.00000  Uiso   1.00
C599   C     0.47306   0.01851   0.46208   0.00000  Uiso   1.00
C600   C     0.52694   0.31483   0.53793   0.00000  Uiso   1.00
C601   C     0.46878   0.30919   0.46464   0.00000  Uiso   1.00
C602   C     0.53122   0.02414   0.53536   0.00000  Uiso   1.00
C603   C     0.49685   0.29078   0.50210   0.00000  Uiso   1.00
C604   C     0.50315   0.04255   0.49790   0.00000  Uiso   1.00
C605   C     0.53887   0.18782   0.36353   0.00000  Uiso   1.00
C606   C     0.46114   0.14551   0.63647   0.00000  Uiso   1.00
C607   C     0.53901   0.18779   0.64902   0.00000  Uiso   1.00
C608   C     0.46099   0.14555   0.35098   0.00000  Uiso   1.00
N609   N     0.65556   0.12332   0.45403   0.00000  Uiso   1.00
O610   O     0.66306   0.12071   0.41196   0.00000  Uiso   1.00
O611   O     0.63181   0.09226   0.47018   0.00000  Uiso   1.00
N612   N     0.34444   0.21001   0.54597   0.00000  Uiso   1.00
O613   O     0.33693   0.21263   0.58804   0.00000  Uiso   1.00
O614   O     0.36819   0.24108   0.52982   0.00000  Uiso   1.00
N615   N     0.44524   0.03713   0.42362   0.00000  Uiso   1.00
O616   O     0.46782   0.04108   0.38781   0.00000  Uiso   1.00
O617   O     0.39463   0.03990   0.42019   0.00000  Uiso   1.00
N618   N     0.55473   0.29620   0.57640   0.00000  Uiso   1.00
O619   O     0.53208   0.29222   0.61217   0.00000  Uiso   1.00
O620   O     0.60534   0.29349   0.57990   0.00000  Uiso   1.00
N621   N     0.43458   0.28481   0.42982   0.00000  Uiso   1.00
O622   O     0.39716   0.26067   0.44044   0.00000  Uiso   1.00
O623   O     0.44089   0.28651   0.38751   0.00000  Uiso   1.00
N624   N     0.56542   0.04852   0.57019   0.00000  Uiso   1.00
O625   O     0.60283   0.07267   0.55957   0.00000  Uiso   1.00
O626   O     0.55910   0.04682   0.61250   0.00000  Uiso   1.00
N627   N     0.57919   0.21116   0.39353   0.00000  Uiso   1.00
O628   O     0.62771   0.20119   0.39502   0.00000  Uiso   1.00
O629   O     0.56983   0.24816   0.40835   0.00000  Uiso   1.00
N630   N     0.42081   0.12217   0.60647   0.00000  Uiso   1.00
O631   O     0.37229   0.13215   0.60497   0.00000  Uiso   1.00
O632   O     0.43017   0.08517   0.59167   0.00000  Uiso   1.00
N633   N     0.58149   0.20895   0.63234   0.00000  Uiso   1.00
H634   H     0.56695   0.21982   0.60103   0.00000  Uiso   1.00
H635   H     0.59274   0.23623   0.65214   0.00000  Uiso   1.00
N636   N     0.41850   0.12439   0.36766   0.00000  Uiso   1.00
H637   H     0.43305   0.11351   0.39897   0.00000  Uiso   1.00
H638   H     0.40724   0.09711   0.34785   0.00000  Uiso   1.00
O639   O     0.83333   0.10558   0.53821   0.00000  Uiso   1.00
O640   O     0.83334   0.22775   0.46179   0.00000  Uiso   1.00
O641   O     0.83333   0.10559   0.46176   0.00000  Uiso   1.00
O642   O     0.83334   0.22774   0.53824   0.00000  Uiso   1.00
C643   C     0.83418   0.08678   0.49918   0.00000  Uiso   1.00
C644   C     0.83249   0.24655   0.50082   0.00000  Uiso   1.00
O645   O     0.75725   0.16666   0.52928   0.00000  Uiso   1.00
O646   O     0.90942   0.16667   0.47072   0.00000  Uiso   1.00
O647   O     0.75725   0.16667   0.45284   0.00000  Uiso   1.00
O648   O     0.90942   0.16666   0.54716   0.00000  Uiso   1.00
C649   C     0.73386   0.16531   0.48822   0.00000  Uiso   1.00
C650   C     0.93281   0.16803   0.51178   0.00000  Uiso   1.00
Zn651  Zn    0.83333   0.16666   0.55104   0.00000  Uiso   1.00
Zn652  Zn    0.83333   0.16667   0.44896   0.00000  Uiso   1.00
N653   N     0.83332   0.16666   0.61907   0.00000  Uiso   1.00
N654   N     0.83335   0.16668   0.38093   0.00000  Uiso   1.00
C655   C     0.67899   0.15776   0.48384   0.00000  Uiso   1.00
C656   C     0.98768   0.17558   0.51616   0.00000  Uiso   1.00
C657   C     0.80639   0.01851   0.46208   0.00000  Uiso   1.00
C658   C     0.86027   0.31483   0.53793   0.00000  Uiso   1.00
C659   C     0.80211   0.30919   0.46464   0.00000  Uiso   1.00
C660   C     0.86456   0.02414   0.53536   0.00000  Uiso   1.00
C661   C     0.83018   0.29078   0.50210   0.00000  Uiso   1.00
C662   C     0.83648   0.04255   0.49790   0.00000  Uiso   1.00
C663   C     0.87220   0.18782   0.36353   0.00000  Uiso   1.00
C664   C     0.79447   0.14551   0.63647   0.00000  Uiso   1.00
C665   C     0.87234   0.18779   0.64902   0.00000  Uiso   1.00
C666   C     0.79432   0.14555   0.35098   0.00000  Uiso   1.00
N667   N     0.98889   0.12332   0.45403   0.00000  Uiso   1.00
O668   O     0.99640   0.12071   0.41196   0.00000  Uiso   1.00
O669   O     0.96514   0.09226   0.47018   0.00000  Uiso   1.00
N670   N     0.67778   0.21001   0.54597   0.00000  Uiso   1.00
O671   O     0.67027   0.21263   0.58804   0.00000  Uiso   1.00
O672   O     0.70153   0.24108   0.52982   0.00000  Uiso   1.00
N673   N     0.77857   0.03713   0.42362   0.00000  Uiso   1.00
O674   O     0.80116   0.04108   0.38781   0.00000  Uiso   1.00
O675   O     0.72797   0.03990   0.42019   0.00000  Uiso   1.00
N676   N     0.88806   0.29620   0.57640   0.00000  Uiso   1.00
O677   O     0.86542   0.29222   0.61217   0.00000  Uiso   1.00
O678   O     0.93868   0.29349   0.57990   0.00000  Uiso   1.00
N679   N     0.76791   0.28481   0.42982   0.00000  Uiso   1.00
O680   O     0.73050   0.26067   0.44044   0.00000  Uiso   1.00
O681   O     0.77423   0.28651   0.38751   0.00000  Uiso   1.00
N682   N     0.89875   0.04852   0.57019   0.00000  Uiso   1.00
O683   O     0.93616   0.07267   0.55957   0.00000  Uiso   1.00
O684   O     0.89244   0.04682   0.61250   0.00000  Uiso   1.00
N685   N     0.91252   0.21116   0.39353   0.00000  Uiso   1.00
O686   O     0.96104   0.20119   0.39502   0.00000  Uiso   1.00
O687   O     0.90317   0.24816   0.40835   0.00000  Uiso   1.00
N688   N     0.75415   0.12217   0.60647   0.00000  Uiso   1.00
O689   O     0.70563   0.13215   0.60497   0.00000  Uiso   1.00
O690   O     0.76351   0.08517   0.59167   0.00000  Uiso   1.00
N691   N     0.91483   0.20895   0.63234   0.00000  Uiso   1.00
H692   H     0.90028   0.21982   0.60103   0.00000  Uiso   1.00
H693   H     0.92608   0.23623   0.65214   0.00000  Uiso   1.00
N694   N     0.75184   0.12439   0.36766   0.00000  Uiso   1.00
H695   H     0.76639   0.11351   0.39897   0.00000  Uiso   1.00
H696   H     0.74058   0.09711   0.34785   0.00000  Uiso   1.00
O697   O     0.16666   0.43892   0.53821   0.00000  Uiso   1.00
O698   O     0.16667   0.56108   0.46179   0.00000  Uiso   1.00
O699   O     0.16666   0.43893   0.46176   0.00000  Uiso   1.00
O700   O     0.16667   0.56107   0.53824   0.00000  Uiso   1.00
C701   C     0.16751   0.42012   0.49918   0.00000  Uiso   1.00
C702   C     0.16582   0.57988   0.50082   0.00000  Uiso   1.00
O703   O     0.09058   0.50000   0.52928   0.00000  Uiso   1.00
O704   O     0.24275   0.50000   0.47072   0.00000  Uiso   1.00
O705   O     0.09058   0.50000   0.45284   0.00000  Uiso   1.00
O706   O     0.24275   0.50000   0.54716   0.00000  Uiso   1.00
C707   C     0.06719   0.49864   0.48822   0.00000  Uiso   1.00
C708   C     0.26614   0.50136   0.51178   0.00000  Uiso   1.00
Zn709  Zn    0.16667   0.49999   0.55104   0.00000  Uiso   1.00
Zn710  Zn    0.16667   0.50001   0.44896   0.00000  Uiso   1.00
N711   N     0.16665   0.49999   0.61907   0.00000  Uiso   1.00
N712   N     0.16668   0.50001   0.38093   0.00000  Uiso   1.00
C713   C     0.01232   0.49109   0.48384   0.00000  Uiso   1.00
C714   C     0.32101   0.50891   0.51616   0.00000  Uiso   1.00
C715   C     0.13972   0.35184   0.46208   0.00000  Uiso   1.00
C716   C     0.19361   0.64816   0.53793   0.00000  Uiso   1.00
C717   C     0.13544   0.64253   0.46464   0.00000  Uiso   1.00
C718   C     0.19789   0.35747   0.53536   0.00000  Uiso   1.00
C719   C     0.16352   0.62412   0.50210   0.00000  Uiso   1.00
C720   C     0.16982   0.37588   0.49790   0.00000  Uiso   1.00
C721   C     0.20553   0.52116   0.36353   0.00000  Uiso   1.00
C722   C     0.12780   0.47884   0.63647   0.00000  Uiso   1.00
C723   C     0.20567   0.52112   0.64902   0.00000  Uiso   1.00
C724   C     0.12766   0.47888   0.35098   0.00000  Uiso   1.00
N725   N     0.32222   0.45666   0.45403   0.00000  Uiso   1.00
O726   O     0.32973   0.45404   0.41196   0.00000  Uiso   1.00
O727   O     0.29847   0.42559   0.47018   0.00000  Uiso   1.00
N728   N     0.01111   0.54334   0.54597   0.00000  Uiso   1.00
O729   O     0.00360   0.54596   0.58804   0.00000  Uiso   1.00
O730   O     0.03486   0.57441   0.52982   0.00000  Uiso   1.00
N731   N     0.11190   0.37047   0.42362   0.00000  Uiso   1.00
O732   O     0.13449   0.37441   0.38781   0.00000  Uiso   1.00
O733   O     0.06130   0.37324   0.42019   0.00000  Uiso   1.00
N734   N     0.22140   0.62954   0.57640   0.00000  Uiso   1.00
O735   O     0.19875   0.62555   0.61217   0.00000  Uiso   1.00
O736   O     0.27201   0.62682   0.57990   0.00000  Uiso   1.00
N737   N     0.10125   0.61815   0.42982   0.00000  Uiso   1.00
O738   O     0.06383   0.59400   0.44044   0.00000  Uiso   1.00
O739   O     0.10756   0.61984   0.38751   0.00000  Uiso   1.00
N740   N     0.23208   0.38186   0.57019   0.00000  Uiso   1.00
O741   O     0.26950   0.40600   0.55957   0.00000  Uiso   1.00
O742   O     0.22577   0.38015   0.61250   0.00000  Uiso   1.00
N743   N     0.24586   0.54449   0.39353   0.00000  Uiso   1.00
O744   O     0.29438   0.53452   0.39502   0.00000  Uiso   1.00
O745   O     0.23650   0.58149   0.40835   0.00000  Uiso   1.00
N746   N     0.08748   0.45551   0.60647   0.00000  Uiso   1.00
O747   O     0.03896   0.46548   0.60497   0.00000  Uiso   1.00
O748   O     0.09684   0.41850   0.59167   0.00000  Uiso   1.00
N749   N     0.24816   0.54228   0.63234   0.00000  Uiso   1.00
H750   H     0.23362   0.55316   0.60103   0.00000  Uiso   1.00
H751   H     0.25941   0.56956   0.65214   0.00000  Uiso   1.00
N752   N     0.08517   0.45772   0.36766   0.00000  Uiso   1.00
H753   H     0.09972   0.44684   0.39897   0.00000  Uiso   1.00
H754   H     0.07391   0.43045   0.34785   0.00000  Uiso   1.00
O755   O     0.50000   0.43892   0.53821   0.00000  Uiso   1.00
O756   O     0.50000   0.56108   0.46179   0.00000  Uiso   1.00
O757   O     0.50000   0.43893   0.46176   0.00000  Uiso   1.00
O758   O     0.50000   0.56107   0.53824   0.00000  Uiso   1.00
C759   C     0.50084   0.42012   0.49918   0.00000  Uiso   1.00
C760   C     0.49916   0.57988   0.50082   0.00000  Uiso   1.00
O761   O     0.42392   0.50000   0.52928   0.00000  Uiso   1.00
O762   O     0.57608   0.50000   0.47072   0.00000  Uiso   1.00
O763   O     0.42392   0.50000   0.45284   0.00000  Uiso   1.00
O764   O     0.57608   0.50000   0.54716   0.00000  Uiso   1.00
C765   C     0.40053   0.49864   0.48822   0.00000  Uiso   1.00
C766   C     0.59947   0.50136   0.51178   0.00000  Uiso   1.00
Zn767  Zn    0.50000   0.49999   0.55104   0.00000  Uiso   1.00
Zn768  Zn    0.50000   0.50001   0.44896   0.00000  Uiso   1.00
N769   N     0.49999   0.49999   0.61907   0.00000  Uiso   1.00
N770   N     0.50001   0.50001   0.38093   0.00000  Uiso   1.00
C771   C     0.34565   0.49109   0.48384   0.00000  Uiso   1.00
C772   C     0.65435   0.50891   0.51616   0.00000  Uiso   1.00
C773   C     0.47306   0.35184   0.46208   0.00000  Uiso   1.00
C774   C     0.52694   0.64816   0.53793   0.00000  Uiso   1.00
C775   C     0.46878   0.64253   0.46464   0.00000  Uiso   1.00
C776   C     0.53122   0.35747   0.53536   0.00000  Uiso   1.00
C777   C     0.49685   0.62412   0.50210   0.00000  Uiso   1.00
C778   C     0.50315   0.37588   0.49790   0.00000  Uiso   1.00
C779   C     0.53887   0.52116   0.36353   0.00000  Uiso   1.00
C780   C     0.46114   0.47884   0.63647   0.00000  Uiso   1.00
C781   C     0.53901   0.52112   0.64902   0.00000  Uiso   1.00
C782   C     0.46099   0.47888   0.35098   0.00000  Uiso   1.00
N783   N     0.65556   0.45666   0.45403   0.00000  Uiso   1.00
O784   O     0.66306   0.45404   0.41196   0.00000  Uiso   1.00
O785   O     0.63181   0.42559   0.47018   0.00000  Uiso   1.00
N786   N     0.34444   0.54334   0.54597   0.00000  Uiso   1.00
O787   O     0.33693   0.54596   0.58804   0.00000  Uiso   1.00
O788   O     0.36819   0.57441   0.52982   0.00000  Uiso   1.00
N789   N     0.44524   0.37047   0.42362   0.00000  Uiso   1.00
O790   O     0.46782   0.37441   0.38781   0.00000  Uiso   1.00
O791   O     0.39463   0.37324   0.42019   0.00000  Uiso   1.00
N792   N     0.55473   0.62954   0.57640   0.00000  Uiso   1.00
O793   O     0.53208   0.62555   0.61217   0.00000  Uiso   1.00
O794   O     0.60534   0.62682   0.57990   0.00000  Uiso   1.00
N795   N     0.43458   0.61815   0.42982   0.00000  Uiso   1.00
O796   O     0.39716   0.59400   0.44044   0.00000  Uiso   1.00
O797   O     0.44089   0.61984   0.38751   0.00000  Uiso   1.00
N798   N     0.56542   0.38186   0.57019   0.00000  Uiso   1.00
O799   O     0.60283   0.40600   0.55957   0.00000  Uiso   1.00
O800   O     0.55910   0.38015   0.61250   0.00000  Uiso   1.00
N801   N     0.57919   0.54449   0.39353   0.00000  Uiso   1.00
O802   O     0.62771   0.53452   0.39502   0.00000  Uiso   1.00
O803   O     0.56983   0.58149   0.40835   0.00000  Uiso   1.00
N804   N     0.42081   0.45551   0.60647   0.00000  Uiso   1.00
O805   O     0.37229   0.46548   0.60497   0.00000  Uiso   1.00
O806   O     0.43017   0.41850   0.59167   0.00000  Uiso   1.00
N807   N     0.58149   0.54228   0.63234   0.00000  Uiso   1.00
H808   H     0.56695   0.55316   0.60103   0.00000  Uiso   1.00
H809   H     0.59274   0.56956   0.65214   0.00000  Uiso   1.00
N810   N     0.41850   0.45772   0.36766   0.00000  Uiso   1.00
H811   H     0.43305   0.44684   0.39897   0.00000  Uiso   1.00
H812   H     0.40724   0.43045   0.34785   0.00000  Uiso   1.00
O813   O     0.83333   0.43892   0.53821   0.00000  Uiso   1.00
O814   O     0.83334   0.56108   0.46179   0.00000  Uiso   1.00
O815   O     0.83333   0.43893   0.46176   0.00000  Uiso   1.00
O816   O     0.83334   0.56107   0.53824   0.00000  Uiso   1.00
C817   C     0.83418   0.42012   0.49918   0.00000  Uiso   1.00
C818   C     0.83249   0.57988   0.50082   0.00000  Uiso   1.00
O819   O     0.75725   0.50000   0.52928   0.00000  Uiso   1.00
O820   O     0.90942   0.50000   0.47072   0.00000  Uiso   1.00
O821   O     0.75725   0.50000   0.45284   0.00000  Uiso   1.00
O822   O     0.90942   0.50000   0.54716   0.00000  Uiso   1.00
C823   C     0.73386   0.49864   0.48822   0.00000  Uiso   1.00
C824   C     0.93281   0.50136   0.51178   0.00000  Uiso   1.00
Zn825  Zn    0.83333   0.49999   0.55104   0.00000  Uiso   1.00
Zn826  Zn    0.83333   0.50001   0.44896   0.00000  Uiso   1.00
N827   N     0.83332   0.49999   0.61907   0.00000  Uiso   1.00
N828   N     0.83335   0.50001   0.38093   0.00000  Uiso   1.00
C829   C     0.67899   0.49109   0.48384   0.00000  Uiso   1.00
C830   C     0.98768   0.50891   0.51616   0.00000  Uiso   1.00
C831   C     0.80639   0.35184   0.46208   0.00000  Uiso   1.00
C832   C     0.86027   0.64816   0.53793   0.00000  Uiso   1.00
C833   C     0.80211   0.64253   0.46464   0.00000  Uiso   1.00
C834   C     0.86456   0.35747   0.53536   0.00000  Uiso   1.00
C835   C     0.83018   0.62412   0.50210   0.00000  Uiso   1.00
C836   C     0.83648   0.37588   0.49790   0.00000  Uiso   1.00
C837   C     0.87220   0.52116   0.36353   0.00000  Uiso   1.00
C838   C     0.79447   0.47884   0.63647   0.00000  Uiso   1.00
C839   C     0.87234   0.52112   0.64902   0.00000  Uiso   1.00
C840   C     0.79432   0.47888   0.35098   0.00000  Uiso   1.00
N841   N     0.98889   0.45666   0.45403   0.00000  Uiso   1.00
O842   O     0.99640   0.45404   0.41196   0.00000  Uiso   1.00
O843   O     0.96514   0.42559   0.47018   0.00000  Uiso   1.00
N844   N     0.67778   0.54334   0.54597   0.00000  Uiso   1.00
O845   O     0.67027   0.54596   0.58804   0.00000  Uiso   1.00
O846   O     0.70153   0.57441   0.52982   0.00000  Uiso   1.00
N847   N     0.77857   0.37047   0.42362   0.00000  Uiso   1.00
O848   O     0.80116   0.37441   0.38781   0.00000  Uiso   1.00
O849   O     0.72797   0.37324   0.42019   0.00000  Uiso   1.00
N850   N     0.88806   0.62954   0.57640   0.00000  Uiso   1.00
O851   O     0.86542   0.62555   0.61217   0.00000  Uiso   1.00
O852   O     0.93868   0.62682   0.57990   0.00000  Uiso   1.00
N853   N     0.76791   0.61815   0.42982   0.00000  Uiso   1.00
O854   O     0.73050   0.59400   0.44044   0.00000  Uiso   1.00
O855   O     0.77423   0.61984   0.38751   0.00000  Uiso   1.00
N856   N     0.89875   0.38186   0.57019   0.00000  Uiso   1.00
O857   O     0.93616   0.40600   0.55957   0.00000  Uiso   1.00
O858   O     0.89244   0.38015   0.61250   0.00000  Uiso   1.00
N859   N     0.91252   0.54449   0.39353   0.00000  Uiso   1.00
O860   O     0.96104   0.53452   0.39502   0.00000  Uiso   1.00
O861   O     0.90317   0.58149   0.40835   0.00000  Uiso   1.00
N862   N     0.75415   0.45551   0.60647   0.00000  Uiso   1.00
O863   O     0.70563   0.46548   0.60497   0.00000  Uiso   1.00
O864   O     0.76351   0.41850   0.59167   0.00000  Uiso   1.00
N865   N     0.91483   0.54228   0.63234   0.00000  Uiso   1.00
H866   H     0.90028   0.55316   0.60103   0.00000  Uiso   1.00
H867   H     0.92608   0.56956   0.65214   0.00000  Uiso   1.00
N868   N     0.75184   0.45772   0.36766   0.00000  Uiso   1.00
H869   H     0.76639   0.44684   0.39897   0.00000  Uiso   1.00
H870   H     0.74058   0.43045   0.34785   0.00000  Uiso   1.00
O871   O     0.16666   0.77225   0.53821   0.00000  Uiso   1.00
O872   O     0.16667   0.89442   0.46179   0.00000  Uiso   1.00
O873   O     0.16666   0.77226   0.46176   0.00000  Uiso   1.00
O874   O     0.16667   0.89441   0.53824   0.00000  Uiso   1.00
C875   C     0.16751   0.75345   0.49918   0.00000  Uiso   1.00
C876   C     0.16582   0.91322   0.50082   0.00000  Uiso   1.00
O877   O     0.09058   0.83333   0.52928   0.00000  Uiso   1.00
O878   O     0.24275   0.83334   0.47072   0.00000  Uiso   1.00
O879   O     0.09058   0.83334   0.45284   0.00000  Uiso   1.00
O880   O     0.24275   0.83333   0.54716   0.00000  Uiso   1.00
C881   C     0.06719   0.83197   0.48822   0.00000  Uiso   1.00
C882   C     0.26614   0.83469   0.51178   0.00000  Uiso   1.00
Zn883  Zn    0.16667   0.83333   0.55104   0.00000  Uiso   1.00
Zn884  Zn    0.16667   0.83334   0.44896   0.00000  Uiso   1.00
N885   N     0.16665   0.83332   0.61907   0.00000  Uiso   1.00
N886   N     0.16668   0.83334   0.38093   0.00000  Uiso   1.00
C887   C     0.01232   0.82442   0.48384   0.00000  Uiso   1.00
C888   C     0.32101   0.84224   0.51616   0.00000  Uiso   1.00
C889   C     0.13972   0.68517   0.46208   0.00000  Uiso   1.00
C890   C     0.19361   0.98150   0.53793   0.00000  Uiso   1.00
C891   C     0.13544   0.97586   0.46464   0.00000  Uiso   1.00
C892   C     0.19789   0.69081   0.53536   0.00000  Uiso   1.00
C893   C     0.16352   0.95745   0.50210   0.00000  Uiso   1.00
C894   C     0.16982   0.70922   0.49790   0.00000  Uiso   1.00
C895   C     0.20553   0.85449   0.36353   0.00000  Uiso   1.00
C896   C     0.12780   0.81218   0.63647   0.00000  Uiso   1.00
C897   C     0.20567   0.85445   0.64902   0.00000  Uiso   1.00
C898   C     0.12766   0.81221   0.35098   0.00000  Uiso   1.00
N899   N     0.32222   0.78999   0.45403   0.00000  Uiso   1.00
O900   O     0.32973   0.78738   0.41196   0.00000  Uiso   1.00
O901   O     0.29847   0.75892   0.47018   0.00000  Uiso   1.00
N902   N     0.01111   0.87668   0.54597   0.00000  Uiso   1.00
O903   O     0.00360   0.87929   0.58804   0.00000  Uiso   1.00
O904   O     0.03486   0.90774   0.52982   0.00000  Uiso   1.00
N905   N     0.11190   0.70380   0.42362   0.00000  Uiso   1.00
O906   O     0.13449   0.70774   0.38781   0.00000  Uiso   1.00
O907   O     0.06130   0.70657   0.42019   0.00000  Uiso   1.00
N908   N     0.22140   0.96287   0.57640   0.00000  Uiso   1.00
O909   O     0.19875   0.95888   0.61217   0.00000  Uiso   1.00
O910   O     0.27201   0.96015   0.57990   0.00000  Uiso   1.00
N911   N     0.10125   0.95148   0.42982   0.00000  Uiso   1.00
O912   O     0.06383   0.92734   0.44044   0.00000  Uiso   1.00
O913   O     0.10756   0.95317   0.38751   0.00000  Uiso   1.00
N914   N     0.23208   0.71519   0.57019   0.00000  Uiso   1.00
O915   O     0.26950   0.73934   0.55957   0.00000  Uiso   1.00
O916   O     0.22577   0.71349   0.61250   0.00000  Uiso   1.00
N917   N     0.24586   0.87782   0.39353   0.00000  Uiso   1.00
O918   O     0.29438   0.86785   0.39502   0.00000  Uiso   1.00
O919   O     0.23650   0.91482   0.40835   0.00000  Uiso   1.00
N920   N     0.08748   0.78884   0.60647   0.00000  Uiso   1.00
O921   O     0.03896   0.79881   0.60497   0.00000  Uiso   1.00
O922   O     0.09684   0.75184   0.59167   0.00000  Uiso   1.00
N923   N     0.24816   0.87562   0.63234   0.00000  Uiso   1.00
H924   H     0.23362   0.88649   0.60103   0.00000  Uiso   1.00
H925   H     0.25941   0.90290   0.65214   0.00000  Uiso   1.00
N926   N     0.08517   0.79106   0.36766   0.00000  Uiso   1.00
H927   H     0.09972   0.78017   0.39897   0.00000  Uiso   1.00
H928   H     0.07391   0.76378   0.34785   0.00000  Uiso   1.00
O929   O     0.50000   0.77225   0.53821   0.00000  Uiso   1.00
O930   O     0.50000   0.89442   0.46179   0.00000  Uiso   1.00
O931   O     0.50000   0.77226   0.46176   0.00000  Uiso   1.00
O932   O     0.50000   0.89441   0.53824   0.00000  Uiso   1.00
C933   C     0.50084   0.75345   0.49918   0.00000  Uiso   1.00
C934   C     0.49916   0.91322   0.50082   0.00000  Uiso   1.00
O935   O     0.42392   0.83333   0.52928   0.00000  Uiso   1.00
O936   O     0.57608   0.83334   0.47072   0.00000  Uiso   1.00
O937   O     0.42392   0.83334   0.45284   0.00000  Uiso   1.00
O938   O     0.57608   0.83333   0.54716   0.00000  Uiso   1.00
C939   C     0.40053   0.83197   0.48822   0.00000  Uiso   1.00
C940   C     0.59947   0.83469   0.51178   0.00000  Uiso   1.00
Zn941  Zn    0.50000   0.83333   0.55104   0.00000  Uiso   1.00
Zn942  Zn    0.50000   0.83334   0.44896   0.00000  Uiso   1.00
N943   N     0.49999   0.83332   0.61907   0.00000  Uiso   1.00
N944   N     0.50001   0.83334   0.38093   0.00000  Uiso   1.00
C945   C     0.34565   0.82442   0.48384   0.00000  Uiso   1.00
C946   C     0.65435   0.84224   0.51616   0.00000  Uiso   1.00
C947   C     0.47306   0.68517   0.46208   0.00000  Uiso   1.00
C948   C     0.52694   0.98150   0.53793   0.00000  Uiso   1.00
C949   C     0.46878   0.97586   0.46464   0.00000  Uiso   1.00
C950   C     0.53122   0.69081   0.53536   0.00000  Uiso   1.00
C951   C     0.49685   0.95745   0.50210   0.00000  Uiso   1.00
C952   C     0.50315   0.70922   0.49790   0.00000  Uiso   1.00
C953   C     0.53887   0.85449   0.36353   0.00000  Uiso   1.00
C954   C     0.46114   0.81218   0.63647   0.00000  Uiso   1.00
C955   C     0.53901   0.85445   0.64902   0.00000  Uiso   1.00
C956   C     0.46099   0.81221   0.35098   0.00000  Uiso   1.00
N957   N     0.65556   0.78999   0.45403   0.00000  Uiso   1.00
O958   O     0.66306   0.78738   0.41196   0.00000  Uiso   1.00
O959   O     0.63181   0.75892   0.47018   0.00000  Uiso   1.00
N960   N     0.34444   0.87668   0.54597   0.00000  Uiso   1.00
O961   O     0.33693   0.87929   0.58804   0.00000  Uiso   1.00
O962   O     0.36819   0.90774   0.52982   0.00000  Uiso   1.00
N963   N     0.44524   0.70380   0.42362   0.00000  Uiso   1.00
O964   O     0.46782   0.70774   0.38781   0.00000  Uiso   1.00
O965   O     0.39463   0.70657   0.42019   0.00000  Uiso   1.00
N966   N     0.55473   0.96287   0.57640   0.00000  Uiso   1.00
O967   O     0.53208   0.95888   0.61217   0.00000  Uiso   1.00
O968   O     0.60534   0.96015   0.57990   0.00000  Uiso   1.00
N969   N     0.43458   0.95148   0.42982   0.00000  Uiso   1.00
O970   O     0.39716   0.92734   0.44044   0.00000  Uiso   1.00
O971   O     0.44089   0.95317   0.38751   0.00000  Uiso   1.00
N972   N     0.56542   0.71519   0.57019   0.00000  Uiso   1.00
O973   O     0.60283   0.73934   0.55957   0.00000  Uiso   1.00
O974   O     0.55910   0.71349   0.61250   0.00000  Uiso   1.00
N975   N     0.57919   0.87782   0.39353   0.00000  Uiso   1.00
O976   O     0.62771   0.86785   0.39502   0.00000  Uiso   1.00
O977   O     0.56983   0.91482   0.40835   0.00000  Uiso   1.00
N978   N     0.42081   0.78884   0.60647   0.00000  Uiso   1.00
O979   O     0.37229   0.79881   0.60497   0.00000  Uiso   1.00
O980   O     0.43017   0.75184   0.59167   0.00000  Uiso   1.00
N981   N     0.58149   0.87562   0.63234   0.00000  Uiso   1.00
H982   H     0.56695   0.88649   0.60103   0.00000  Uiso   1.00
H983   H     0.59274   0.90290   0.65214   0.00000  Uiso   1.00
N984   N     0.41850   0.79106   0.36766   0.00000  Uiso   1.00
H985   H     0.43305   0.78017   0.39897   0.00000  Uiso   1.00
H986   H     0.40724   0.76378   0.34785   0.00000  Uiso   1.00
O987   O     0.83333   0.77225   0.53821   0.00000  Uiso   1.00
O988   O     0.83334   0.89442   0.46179   0.00000  Uiso   1.00
O989   O     0.83333   0.77226   0.46176   0.00000  Uiso   1.00
O990   O     0.83334   0.89441   0.53824   0.00000  Uiso   1.00
C991   C     0.83418   0.75345   0.49918   0.00000  Uiso   1.00
C992   C     0.83249   0.91322   0.50082   0.00000  Uiso   1.00
O993   O     0.75725   0.83333   0.52928   0.00000  Uiso   1.00
O994   O     0.90942   0.83334   0.47072   0.00000  Uiso   1.00
O995   O     0.75725   0.83334   0.45284   0.00000  Uiso   1.00
O996   O     0.90942   0.83333   0.54716   0.00000  Uiso   1.00
C997   C     0.73386   0.83197   0.48822   0.00000  Uiso   1.00
C998   C     0.93281   0.83469   0.51178   0.00000  Uiso   1.00
Zn999  Zn    0.83333   0.83333   0.55104   0.00000  Uiso   1.00
Zn1000 Zn    0.83333   0.83334   0.44896   0.00000  Uiso   1.00
N1001  N     0.83332   0.83332   0.61907   0.00000  Uiso   1.00
N1002  N     0.83335   0.83334   0.38093   0.00000  Uiso   1.00
C1003  C     0.67899   0.82442   0.48384   0.00000  Uiso   1.00
C1004  C     0.98768   0.84224   0.51616   0.00000  Uiso   1.00
C1005  C     0.80639   0.68517   0.46208   0.00000  Uiso   1.00
C1006  C     0.86027   0.98150   0.53793   0.00000  Uiso   1.00
C1007  C     0.80211   0.97586   0.46464   0.00000  Uiso   1.00
C1008  C     0.86456   0.69081   0.53536   0.00000  Uiso   1.00
C1009  C     0.83018   0.95745   0.50210   0.00000  Uiso   1.00
C1010  C     0.83648   0.70922   0.49790   0.00000  Uiso   1.00
C1011  C     0.87220   0.85449   0.36353   0.00000  Uiso   1.00
C1012  C     0.79447   0.81218   0.63647   0.00000  Uiso   1.00
C1013  C     0.87234   0.85445   0.64902   0.00000  Uiso   1.00
C1014  C     0.79432   0.81221   0.35098   0.00000  Uiso   1.00
N1015  N     0.98889   0.78999   0.45403   0.00000  Uiso   1.00
O1016  O     0.99640   0.78738   0.41196   0.00000  Uiso   1.00
O1017  O     0.96514   0.75892   0.47018   0.00000  Uiso   1.00
N1018  N     0.67778   0.87668   0.54597   0.00000  Uiso   1.00
O1019  O     0.67027   0.87929   0.58804   0.00000  Uiso   1.00
O1020  O     0.70153   0.90774   0.52982   0.00000  Uiso   1.00
N1021  N     0.77857   0.70380   0.42362   0.00000  Uiso   1.00
O1022  O     0.80116   0.70774   0.38781   0.00000  Uiso   1.00
O1023  O     0.72797   0.70657   0.42019   0.00000  Uiso   1.00
N1024  N     0.88806   0.96287   0.57640   0.00000  Uiso   1.00
O1025  O     0.86542   0.95888   0.61217   0.00000  Uiso   1.00
O1026  O     0.93868   0.96015   0.57990   0.00000  Uiso   1.00
N1027  N     0.76791   0.95148   0.42982   0.00000  Uiso   1.00
O1028  O     0.73050   0.92734   0.44044   0.00000  Uiso   1.00
O1029  O     0.77423   0.95317   0.38751   0.00000  Uiso   1.00
N1030  N     0.89875   0.71519   0.57019   0.00000  Uiso   1.00
O1031  O     0.93616   0.73934   0.55957   0.00000  Uiso   1.00
O1032  O     0.89244   0.71349   0.61250   0.00000  Uiso   1.00
N1033  N     0.91252   0.87782   0.39353   0.00000  Uiso   1.00
O1034  O     0.96104   0.86785   0.39502   0.00000  Uiso   1.00
O1035  O     0.90317   0.91482   0.40835   0.00000  Uiso   1.00
N1036  N     0.75415   0.78884   0.60647   0.00000  Uiso   1.00
O1037  O     0.70563   0.79881   0.60497   0.00000  Uiso   1.00
O1038  O     0.76351   0.75184   0.59167   0.00000  Uiso   1.00
N1039  N     0.91483   0.87562   0.63234   0.00000  Uiso   1.00
H1040  H     0.90028   0.88649   0.60103   0.00000  Uiso   1.00
H1041  H     0.92608   0.90290   0.65214   0.00000  Uiso   1.00
N1042  N     0.75184   0.79106   0.36766   0.00000  Uiso   1.00
H1043  H     0.76639   0.78017   0.39897   0.00000  Uiso   1.00
H1044  H     0.74058   0.76378   0.34785   0.00000  Uiso   1.00
O1045  O     0.16666   0.10558   0.87154   0.00000  Uiso   1.00
O1046  O     0.16667   0.22775   0.79513   0.00000  Uiso   1.00
O1047  O     0.16666   0.10559   0.79510   0.00000  Uiso   1.00
O1048  O     0.16667   0.22774   0.87157   0.00000  Uiso   1.00
C1049  C     0.16751   0.08678   0.83251   0.00000  Uiso   1.00
C1050  C     0.16582   0.24655   0.83415   0.00000  Uiso   1.00
O1051  O     0.09058   0.16666   0.86261   0.00000  Uiso   1.00
O1052  O     0.24275   0.16667   0.80405   0.00000  Uiso   1.00
O1053  O     0.09058   0.16667   0.78617   0.00000  Uiso   1.00
O1054  O     0.24275   0.16666   0.88050   0.00000  Uiso   1.00
C1055  C     0.06719   0.16531   0.82155   0.00000  Uiso   1.00
C1056  C     0.26614   0.16803   0.84511   0.00000  Uiso   1.00
Zn1057 Zn    0.16667   0.16666   0.88437   0.00000  Uiso   1.00
Zn1058 Zn    0.16667   0.16667   0.78229   0.00000  Uiso   1.00
N1059  N     0.16665   0.16666   0.95240   0.00000  Uiso   1.00
N1060  N     0.16668   0.16668   0.71427   0.00000  Uiso   1.00
C1061  C     0.01232   0.15776   0.81718   0.00000  Uiso   1.00
C1062  C     0.32101   0.17558   0.84949   0.00000  Uiso   1.00
C1063  C     0.13972   0.01851   0.79541   0.00000  Uiso   1.00
C1064  C     0.19361   0.31483   0.87126   0.00000  Uiso   1.00
C1065  C     0.13544   0.30919   0.79797   0.00000  Uiso   1.00
C1066  C     0.19789   0.02414   0.86870   0.00000  Uiso   1.00
C1067  C     0.16352   0.29078   0.83543   0.00000  Uiso   1.00
C1068  C     0.16982   0.04255   0.83124   0.00000  Uiso   1.00
C1069  C     0.20553   0.18782   0.69687   0.00000  Uiso   1.00
C1070  C     0.12780   0.14551   0.96980   0.00000  Uiso   1.00
C1071  C     0.20567   0.18779   0.98235   0.00000  Uiso   1.00
C1072  C     0.12766   0.14555   0.68431   0.00000  Uiso   1.00
N1073  N     0.32222   0.12332   0.78737   0.00000  Uiso   1.00
O1074  O     0.32973   0.12071   0.74530   0.00000  Uiso   1.00
O1075  O     0.29847   0.09226   0.80351   0.00000  Uiso   1.00
N1076  N     0.01111   0.21001   0.87930   0.00000  Uiso   1.00
O1077  O     0.00360   0.21263   0.92137   0.00000  Uiso   1.00
O1078  O     0.03486   0.24108   0.86316   0.00000  Uiso   1.00
N1079  N     0.11190   0.03713   0.75696   0.00000  Uiso   1.00
O1080  O     0.13449   0.04108   0.72114   0.00000  Uiso   1.00
O1081  O     0.06130   0.03990   0.75352   0.00000  Uiso   1.00
N1082  N     0.22140   0.29620   0.90973   0.00000  Uiso   1.00
O1083  O     0.19875   0.29222   0.94551   0.00000  Uiso   1.00
O1084  O     0.27201   0.29349   0.91323   0.00000  Uiso   1.00
N1085  N     0.10125   0.28481   0.76315   0.00000  Uiso   1.00
O1086  O     0.06383   0.26067   0.77377   0.00000  Uiso   1.00
O1087  O     0.10756   0.28651   0.72084   0.00000  Uiso   1.00
N1088  N     0.23208   0.04852   0.90352   0.00000  Uiso   1.00
O1089  O     0.26950   0.07267   0.89290   0.00000  Uiso   1.00
O1090  O     0.22577   0.04682   0.94583   0.00000  Uiso   1.00
N1091  N     0.24586   0.21116   0.72686   0.00000  Uiso   1.00
O1092  O     0.29438   0.20119   0.72836   0.00000  Uiso   1.00
O1093  O     0.23650   0.24816   0.74168   0.00000  Uiso   1.00
N1094  N     0.08748   0.12217   0.93981   0.00000  Uiso   1.00
O1095  O     0.03896   0.13215   0.93830   0.00000  Uiso   1.00
O1096  O     0.09684   0.08517   0.92500   0.00000  Uiso   1.00
N1097  N     0.24816   0.20895   0.96567   0.00000  Uiso   1.00
H1098  H     0.23362   0.21982   0.93436   0.00000  Uiso   1.00
H1099  H     0.25941   0.23623   0.98548   0.00000  Uiso   1.00
N1100  N     0.08517   0.12439   0.70099   0.00000  Uiso   1.00
H1101  H     0.09972   0.11351   0.73230   0.00000  Uiso   1.00
H1102  H     0.07391   0.09711   0.68119   0.00000  Uiso   1.00
O1103  O     0.50000   0.10558   0.87154   0.00000  Uiso   1.00
O1104  O     0.50000   0.22775   0.79513   0.00000  Uiso   1.00
O1105  O     0.50000   0.10559   0.79510   0.00000  Uiso   1.00
O1106  O     0.50000   0.22774   0.87157   0.00000  Uiso   1.00
C1107  C     0.50084   0.08678   0.83251   0.00000  Uiso   1.00
C1108  C     0.49916   0.24655   0.83415   0.00000  Uiso   1.00
O1109  O     0.42392   0.16666   0.86261   0.00000  Uiso   1.00
O1110  O     0.57608   0.16667   0.80405   0.00000  Uiso   1.00
O1111  O     0.42392   0.16667   0.78617   0.00000  Uiso   1.00
O1112  O     0.57608   0.16666   0.88050   0.00000  Uiso   1.00
C1113  C     0.40053   0.16531   0.82155   0.00000  Uiso   1.00
C1114  C     0.59947   0.16803   0.84511   0.00000  Uiso   1.00
Zn1115 Zn    0.50000   0.16666   0.88437   0.00000  Uiso   1.00
Zn1116 Zn    0.50000   0.16667   0.78229   0.00000  Uiso   1.00
N1117  N     0.49999   0.16666   0.95240   0.00000  Uiso   1.00
N1118  N     0.50001   0.16668   0.71427   0.00000  Uiso   1.00
C1119  C     0.34565   0.15776   0.81718   0.00000  Uiso   1.00
C1120  C     0.65435   0.17558   0.84949   0.00000  Uiso   1.00
C1121  C     0.47306   0.01851   0.79541   0.00000  Uiso   1.00
C1122  C     0.52694   0.31483   0.87126   0.00000  Uiso   1.00
C1123  C     0.46878   0.30919   0.79797   0.00000  Uiso   1.00
C1124  C     0.53122   0.02414   0.86870   0.00000  Uiso   1.00
C1125  C     0.49685   0.29078   0.83543   0.00000  Uiso   1.00
C1126  C     0.50315   0.04255   0.83124   0.00000  Uiso   1.00
C1127  C     0.53887   0.18782   0.69687   0.00000  Uiso   1.00
C1128  C     0.46114   0.14551   0.96980   0.00000  Uiso   1.00
C1129  C     0.53901   0.18779   0.98235   0.00000  Uiso   1.00
C1130  C     0.46099   0.14555   0.68431   0.00000  Uiso   1.00
N1131  N     0.65556   0.12332   0.78737   0.00000  Uiso   1.00
O1132  O     0.66306   0.12071   0.74530   0.00000  Uiso   1.00
O1133  O     0.63181   0.09226   0.80351   0.00000  Uiso   1.00
N1134  N     0.34444   0.21001   0.87930   0.00000  Uiso   1.00
O1135  O     0.33693   0.21263   0.92137   0.00000  Uiso   1.00
O1136  O     0.36819   0.24108   0.86316   0.00000  Uiso   1.00
N1137  N     0.44524   0.03713   0.75696   0.00000  Uiso   1.00
O1138  O     0.46782   0.04108   0.72114   0.00000  Uiso   1.00
O1139  O     0.39463   0.03990   0.75352   0.00000  Uiso   1.00
N1140  N     0.55473   0.29620   0.90973   0.00000  Uiso   1.00
O1141  O     0.53208   0.29222   0.94551   0.00000  Uiso   1.00
O1142  O     0.60534   0.29349   0.91323   0.00000  Uiso   1.00
N1143  N     0.43458   0.28481   0.76315   0.00000  Uiso   1.00
O1144  O     0.39716   0.26067   0.77377   0.00000  Uiso   1.00
O1145  O     0.44089   0.28651   0.72084   0.00000  Uiso   1.00
N1146  N     0.56542   0.04852   0.90352   0.00000  Uiso   1.00
O1147  O     0.60283   0.07267   0.89290   0.00000  Uiso   1.00
O1148  O     0.55910   0.04682   0.94583   0.00000  Uiso   1.00
N1149  N     0.57919   0.21116   0.72686   0.00000  Uiso   1.00
O1150  O     0.62771   0.20119   0.72836   0.00000  Uiso   1.00
O1151  O     0.56983   0.24816   0.74168   0.00000  Uiso   1.00
N1152  N     0.42081   0.12217   0.93981   0.00000  Uiso   1.00
O1153  O     0.37229   0.13215   0.93830   0.00000  Uiso   1.00
O1154  O     0.43017   0.08517   0.92500   0.00000  Uiso   1.00
N1155  N     0.58149   0.20895   0.96567   0.00000  Uiso   1.00
H1156  H     0.56695   0.21982   0.93436   0.00000  Uiso   1.00
H1157  H     0.59274   0.23623   0.98548   0.00000  Uiso   1.00
N1158  N     0.41850   0.12439   0.70099   0.00000  Uiso   1.00
H1159  H     0.43305   0.11351   0.73230   0.00000  Uiso   1.00
H1160  H     0.40724   0.09711   0.68119   0.00000  Uiso   1.00
O1161  O     0.83333   0.10558   0.87154   0.00000  Uiso   1.00
O1162  O     0.83334   0.22775   0.79513   0.00000  Uiso   1.00
O1163  O     0.83333   0.10559   0.79510   0.00000  Uiso   1.00
O1164  O     0.83334   0.22774   0.87157   0.00000  Uiso   1.00
C1165  C     0.83418   0.08678   0.83251   0.00000  Uiso   1.00
C1166  C     0.83249   0.24655   0.83415   0.00000  Uiso   1.00
O1167  O     0.75725   0.16666   0.86261   0.00000  Uiso   1.00
O1168  O     0.90942   0.16667   0.80405   0.00000  Uiso   1.00
O1169  O     0.75725   0.16667   0.78617   0.00000  Uiso   1.00
O1170  O     0.90942   0.16666   0.88050   0.00000  Uiso   1.00
C1171  C     0.73386   0.16531   0.82155   0.00000  Uiso   1.00
C1172  C     0.93281   0.16803   0.84511   0.00000  Uiso   1.00
Zn1173 Zn    0.83333   0.16666   0.88437   0.00000  Uiso   1.00
Zn1174 Zn    0.83333   0.16667   0.78229   0.00000  Uiso   1.00
N1175  N     0.83332   0.16666   0.95240   0.00000  Uiso   1.00
N1176  N     0.83335   0.16668   0.71427   0.00000  Uiso   1.00
C1177  C     0.67899   0.15776   0.81718   0.00000  Uiso   1.00
C1178  C     0.98768   0.17558   0.84949   0.00000  Uiso   1.00
C1179  C     0.80639   0.01851   0.79541   0.00000  Uiso   1.00
C1180  C     0.86027   0.31483   0.87126   0.00000  Uiso   1.00
C1181  C     0.80211   0.30919   0.79797   0.00000  Uiso   1.00
C1182  C     0.86456   0.02414   0.86870   0.00000  Uiso   1.00
C1183  C     0.83018   0.29078   0.83543   0.00000  Uiso   1.00
C1184  C     0.83648   0.04255   0.83124   0.00000  Uiso   1.00
C1185  C     0.87220   0.18782   0.69687   0.00000  Uiso   1.00
C1186  C     0.79447   0.14551   0.96980   0.00000  Uiso   1.00
C1187  C     0.87234   0.18779   0.98235   0.00000  Uiso   1.00
C1188  C     0.79432   0.14555   0.68431   0.00000  Uiso   1.00
N1189  N     0.98889   0.12332   0.78737   0.00000  Uiso   1.00
O1190  O     0.99640   0.12071   0.74530   0.00000  Uiso   1.00
O1191  O     0.96514   0.09226   0.80351   0.00000  Uiso   1.00
N1192  N     0.67778   0.21001   0.87930   0.00000  Uiso   1.00
O1193  O     0.67027   0.21263   0.92137   0.00000  Uiso   1.00
O1194  O     0.70153   0.24108   0.86316   0.00000  Uiso   1.00
N1195  N     0.77857   0.03713   0.75696   0.00000  Uiso   1.00
O1196  O     0.80116   0.04108   0.72114   0.00000  Uiso   1.00
O1197  O     0.72797   0.03990   0.75352   0.00000  Uiso   1.00
N1198  N     0.88806   0.29620   0.90973   0.00000  Uiso   1.00
O1199  O     0.86542   0.29222   0.94551   0.00000  Uiso   1.00
O1200  O     0.93868   0.29349   0.91323   0.00000  Uiso   1.00
N1201  N     0.76791   0.28481   0.76315   0.00000  Uiso   1.00
O1202  O     0.73050   0.26067   0.77377   0.00000  Uiso   1.00
O1203  O     0.77423   0.28651   0.72084   0.00000  Uiso   1.00
N1204  N     0.89875   0.04852   0.90352   0.00000  Uiso   1.00
O1205  O     0.93616   0.07267   0.89290   0.00000  Uiso   1.00
O1206  O     0.89244   0.04682   0.94583   0.00000  Uiso   1.00
N1207  N     0.91252   0.21116   0.72686   0.00000  Uiso   1.00
O1208  O     0.96104   0.20119   0.72836   0.00000  Uiso   1.00
O1209  O     0.90317   0.24816   0.74168   0.00000  Uiso   1.00
N1210  N     0.75415   0.12217   0.93981   0.00000  Uiso   1.00
O1211  O     0.70563   0.13215   0.93830   0.00000  Uiso   1.00
O1212  O     0.76351   0.08517   0.92500   0.00000  Uiso   1.00
N1213  N     0.91483   0.20895   0.96567   0.00000  Uiso   1.00
H1214  H     0.90028   0.21982   0.93436   0.00000  Uiso   1.00
H1215  H     0.92608   0.23623   0.98548   0.00000  Uiso   1.00
N1216  N     0.75184   0.12439   0.70099   0.00000  Uiso   1.00
H1217  H     0.76639   0.11351   0.73230   0.00000  Uiso   1.00
H1218  H     0.74058   0.09711   0.68119   0.00000  Uiso   1.00
O1219  O     0.16666   0.43892   0.87154   0.00000  Uiso   1.00
O1220  O     0.16667   0.56108   0.79513   0.00000  Uiso   1.00
O1221  O     0.16666   0.43893   0.79510   0.00000  Uiso   1.00
O1222  O     0.16667   0.56107   0.87157   0.00000  Uiso   1.00
C1223  C     0.16751   0.42012   0.83251   0.00000  Uiso   1.00
C1224  C     0.16582   0.57988   0.83415   0.00000  Uiso   1.00
O1225  O     0.09058   0.50000   0.86261   0.00000  Uiso   1.00
O1226  O     0.24275   0.50000   0.80405   0.00000  Uiso   1.00
O1227  O     0.09058   0.50000   0.78617   0.00000  Uiso   1.00
O1228  O     0.24275   0.50000   0.88050   0.00000  Uiso   1.00
C1229  C     0.06719   0.49864   0.82155   0.00000  Uiso   1.00
C1230  C     0.26614   0.50136   0.84511   0.00000  Uiso   1.00
Zn1231 Zn    0.16667   0.49999   0.88437   0.00000  Uiso   1.00
Zn1232 Zn    0.16667   0.50001   0.78229   0.00000  Uiso   1.00
N1233  N     0.16665   0.49999   0.95240   0.00000  Uiso   1.00
N1234  N     0.16668   0.50001   0.71427   0.00000  Uiso   1.00
C1235  C     0.01232   0.49109   0.81718   0.00000  Uiso   1.00
C1236  C     0.32101   0.50891   0.84949   0.00000  Uiso   1.00
C1237  C     0.13972   0.35184   0.79541   0.00000  Uiso   1.00
C1238  C     0.19361   0.64816   0.87126   0.00000  Uiso   1.00
C1239  C     0.13544   0.64253   0.79797   0.00000  Uiso   1.00
C1240  C     0.19789   0.35747   0.86870   0.00000  Uiso   1.00
C1241  C     0.16352   0.62412   0.83543   0.00000  Uiso   1.00
C1242  C     0.16982   0.37588   0.83124   0.00000  Uiso   1.00
C1243  C     0.20553   0.52116   0.69687   0.00000  Uiso   1.00
C1244  C     0.12780   0.47884   0.96980   0.00000  Uiso   1.00
C1245  C     0.20567   0.52112   0.98235   0.00000  Uiso   1.00
C1246  C     0.12766   0.47888   0.68431   0.00000  Uiso   1.00
N1247  N     0.32222   0.45666   0.78737   0.00000  Uiso   1.00
O1248  O     0.32973   0.45404   0.74530   0.00000  Uiso   1.00
O1249  O     0.29847   0.42559   0.80351   0.00000  Uiso   1.00
N1250  N     0.01111   0.54334   0.87930   0.00000  Uiso   1.00
O1251  O     0.00360   0.54596   0.92137   0.00000  Uiso   1.00
O1252  O     0.03486   0.57441   0.86316   0.00000  Uiso   1.00
N1253  N     0.11190   0.37047   0.75696   0.00000  Uiso   1.00
O1254  O     0.13449   0.37441   0.72114   0.00000  Uiso   1.00
O1255  O     0.06130   0.37324   0.75352   0.00000  Uiso   1.00
N1256  N     0.22140   0.62954   0.90973   0.00000  Uiso   1.00
O1257  O     0.19875   0.62555   0.94551   0.00000  Uiso   1.00
O1258  O     0.27201   0.62682   0.91323   0.00000  Uiso   1.00
N1259  N     0.10125   0.61815   0.76315   0.00000  Uiso   1.00
O1260  O     0.06383   0.59400   0.77377   0.00000  Uiso   1.00
O1261  O     0.10756   0.61984   0.72084   0.00000  Uiso   1.00
N1262  N     0.23208   0.38186   0.90352   0.00000  Uiso   1.00
O1263  O     0.26950   0.40600   0.89290   0.00000  Uiso   1.00
O1264  O     0.22577   0.38015   0.94583   0.00000  Uiso   1.00
N1265  N     0.24586   0.54449   0.72686   0.00000  Uiso   1.00
O1266  O     0.29438   0.53452   0.72836   0.00000  Uiso   1.00
O1267  O     0.23650   0.58149   0.74168   0.00000  Uiso   1.00
N1268  N     0.08748   0.45551   0.93981   0.00000  Uiso   1.00
O1269  O     0.03896   0.46548   0.93830   0.00000  Uiso   1.00
O1270  O     0.09684   0.41850   0.92500   0.00000  Uiso   1.00
N1271  N     0.24816   0.54228   0.96567   0.00000  Uiso   1.00
H1272  H     0.23362   0.55316   0.93436   0.00000  Uiso   1.00
H1273  H     0.25941   0.56956   0.98548   0.00000  Uiso   1.00
N1274  N     0.08517   0.45772   0.70099   0.00000  Uiso   1.00
H1275  H     0.09972   0.44684   0.73230   0.00000  Uiso   1.00
H1276  H     0.07391   0.43045   0.68119   0.00000  Uiso   1.00
O1277  O     0.50000   0.43892   0.87154   0.00000  Uiso   1.00
O1278  O     0.50000   0.56108   0.79513   0.00000  Uiso   1.00
O1279  O     0.50000   0.43893   0.79510   0.00000  Uiso   1.00
O1280  O     0.50000   0.56107   0.87157   0.00000  Uiso   1.00
C1281  C     0.50084   0.42012   0.83251   0.00000  Uiso   1.00
C1282  C     0.49916   0.57988   0.83415   0.00000  Uiso   1.00
O1283  O     0.42392   0.50000   0.86261   0.00000  Uiso   1.00
O1284  O     0.57608   0.50000   0.80405   0.00000  Uiso   1.00
O1285  O     0.42392   0.50000   0.78617   0.00000  Uiso   1.00
O1286  O     0.57608   0.50000   0.88050   0.00000  Uiso   1.00
C1287  C     0.40053   0.49864   0.82155   0.00000  Uiso   1.00
C1288  C     0.59947   0.50136   0.84511   0.00000  Uiso   1.00
Zn1289 Zn    0.50000   0.49999   0.88437   0.00000  Uiso   1.00
Zn1290 Zn    0.50000   0.50001   0.78229   0.00000  Uiso   1.00
N1291  N     0.49999   0.49999   0.95240   0.00000  Uiso   1.00
N1292  N     0.50001   0.50001   0.71427   0.00000  Uiso   1.00
C1293  C     0.34565   0.49109   0.81718   0.00000  Uiso   1.00
C1294  C     0.65435   0.50891   0.84949   0.00000  Uiso   1.00
C1295  C     0.47306   0.35184   0.79541   0.00000  Uiso   1.00
C1296  C     0.52694   0.64816   0.87126   0.00000  Uiso   1.00
C1297  C     0.46878   0.64253   0.79797   0.00000  Uiso   1.00
C1298  C     0.53122   0.35747   0.86870   0.00000  Uiso   1.00
C1299  C     0.49685   0.62412   0.83543   0.00000  Uiso   1.00
C1300  C     0.50315   0.37588   0.83124   0.00000  Uiso   1.00
C1301  C     0.53887   0.52116   0.69687   0.00000  Uiso   1.00
C1302  C     0.46114   0.47884   0.96980   0.00000  Uiso   1.00
C1303  C     0.53901   0.52112   0.98235   0.00000  Uiso   1.00
C1304  C     0.46099   0.47888   0.68431   0.00000  Uiso   1.00
N1305  N     0.65556   0.45666   0.78737   0.00000  Uiso   1.00
O1306  O     0.66306   0.45404   0.74530   0.00000  Uiso   1.00
O1307  O     0.63181   0.42559   0.80351   0.00000  Uiso   1.00
N1308  N     0.34444   0.54334   0.87930   0.00000  Uiso   1.00
O1309  O     0.33693   0.54596   0.92137   0.00000  Uiso   1.00
O1310  O     0.36819   0.57441   0.86316   0.00000  Uiso   1.00
N1311  N     0.44524   0.37047   0.75696   0.00000  Uiso   1.00
O1312  O     0.46782   0.37441   0.72114   0.00000  Uiso   1.00
O1313  O     0.39463   0.37324   0.75352   0.00000  Uiso   1.00
N1314  N     0.55473   0.62954   0.90973   0.00000  Uiso   1.00
O1315  O     0.53208   0.62555   0.94551   0.00000  Uiso   1.00
O1316  O     0.60534   0.62682   0.91323   0.00000  Uiso   1.00
N1317  N     0.43458   0.61815   0.76315   0.00000  Uiso   1.00
O1318  O     0.39716   0.59400   0.77377   0.00000  Uiso   1.00
O1319  O     0.44089   0.61984   0.72084   0.00000  Uiso   1.00
N1320  N     0.56542   0.38186   0.90352   0.00000  Uiso   1.00
O1321  O     0.60283   0.40600   0.89290   0.00000  Uiso   1.00
O1322  O     0.55910   0.38015   0.94583   0.00000  Uiso   1.00
N1323  N     0.57919   0.54449   0.72686   0.00000  Uiso   1.00
O1324  O     0.62771   0.53452   0.72836   0.00000  Uiso   1.00
O1325  O     0.56983   0.58149   0.74168   0.00000  Uiso   1.00
N1326  N     0.42081   0.45551   0.93981   0.00000  Uiso   1.00
O1327  O     0.37229   0.46548   0.93830   0.00000  Uiso   1.00
O1328  O     0.43017   0.41850   0.92500   0.00000  Uiso   1.00
N1329  N     0.58149   0.54228   0.96567   0.00000  Uiso   1.00
H1330  H     0.56695   0.55316   0.93436   0.00000  Uiso   1.00
H1331  H     0.59274   0.56956   0.98548   0.00000  Uiso   1.00
N1332  N     0.41850   0.45772   0.70099   0.00000  Uiso   1.00
H1333  H     0.43305   0.44684   0.73230   0.00000  Uiso   1.00
H1334  H     0.40724   0.43045   0.68119   0.00000  Uiso   1.00
O1335  O     0.83333   0.43892   0.87154   0.00000  Uiso   1.00
O1336  O     0.83334   0.56108   0.79513   0.00000  Uiso   1.00
O1337  O     0.83333   0.43893   0.79510   0.00000  Uiso   1.00
O1338  O     0.83334   0.56107   0.87157   0.00000  Uiso   1.00
C1339  C     0.83418   0.42012   0.83251   0.00000  Uiso   1.00
C1340  C     0.83249   0.57988   0.83415   0.00000  Uiso   1.00
O1341  O     0.75725   0.50000   0.86261   0.00000  Uiso   1.00
O1342  O     0.90942   0.50000   0.80405   0.00000  Uiso   1.00
O1343  O     0.75725   0.50000   0.78617   0.00000  Uiso   1.00
O1344  O     0.90942   0.50000   0.88050   0.00000  Uiso   1.00
C1345  C     0.73386   0.49864   0.82155   0.00000  Uiso   1.00
C1346  C     0.93281   0.50136   0.84511   0.00000  Uiso   1.00
Zn1347 Zn    0.83333   0.49999   0.88437   0.00000  Uiso   1.00
Zn1348 Zn    0.83333   0.50001   0.78229   0.00000  Uiso   1.00
N1349  N     0.83332   0.49999   0.95240   0.00000  Uiso   1.00
N1350  N     0.83335   0.50001   0.71427   0.00000  Uiso   1.00
C1351  C     0.67899   0.49109   0.81718   0.00000  Uiso   1.00
C1352  C     0.98768   0.50891   0.84949   0.00000  Uiso   1.00
C1353  C     0.80639   0.35184   0.79541   0.00000  Uiso   1.00
C1354  C     0.86027   0.64816   0.87126   0.00000  Uiso   1.00
C1355  C     0.80211   0.64253   0.79797   0.00000  Uiso   1.00
C1356  C     0.86456   0.35747   0.86870   0.00000  Uiso   1.00
C1357  C     0.83018   0.62412   0.83543   0.00000  Uiso   1.00
C1358  C     0.83648   0.37588   0.83124   0.00000  Uiso   1.00
C1359  C     0.87220   0.52116   0.69687   0.00000  Uiso   1.00
C1360  C     0.79447   0.47884   0.96980   0.00000  Uiso   1.00
C1361  C     0.87234   0.52112   0.98235   0.00000  Uiso   1.00
C1362  C     0.79432   0.47888   0.68431   0.00000  Uiso   1.00
N1363  N     0.98889   0.45666   0.78737   0.00000  Uiso   1.00
O1364  O     0.99640   0.45404   0.74530   0.00000  Uiso   1.00
O1365  O     0.96514   0.42559   0.80351   0.00000  Uiso   1.00
N1366  N     0.67778   0.54334   0.87930   0.00000  Uiso   1.00
O1367  O     0.67027   0.54596   0.92137   0.00000  Uiso   1.00
O1368  O     0.70153   0.57441   0.86316   0.00000  Uiso   1.00
N1369  N     0.77857   0.37047   0.75696   0.00000  Uiso   1.00
O1370  O     0.80116   0.37441   0.72114   0.00000  Uiso   1.00
O1371  O     0.72797   0.37324   0.75352   0.00000  Uiso   1.00
N1372  N     0.88806   0.62954   0.90973   0.00000  Uiso   1.00
O1373  O     0.86542   0.62555   0.94551   0.00000  Uiso   1.00
O1374  O     0.93868   0.62682   0.91323   0.00000  Uiso   1.00
N1375  N     0.76791   0.61815   0.76315   0.00000  Uiso   1.00
O1376  O     0.73050   0.59400   0.77377   0.00000  Uiso   1.00
O1377  O     0.77423   0.61984   0.72084   0.00000  Uiso   1.00
N1378  N     0.89875   0.38186   0.90352   0.00000  Uiso   1.00
O1379  O     0.93616   0.40600   0.89290   0.00000  Uiso   1.00
O1380  O     0.89244   0.38015   0.94583   0.00000  Uiso   1.00
N1381  N     0.91252   0.54449   0.72686   0.00000  Uiso   1.00
O1382  O     0.96104   0.53452   0.72836   0.00000  Uiso   1.00
O1383  O     0.90317   0.58149   0.74168   0.00000  Uiso   1.00
N1384  N     0.75415   0.45551   0.93981   0.00000  Uiso   1.00
O1385  O     0.70563   0.46548   0.93830   0.00000  Uiso   1.00
O1386  O     0.76351   0.41850   0.92500   0.00000  Uiso   1.00
N1387  N     0.91483   0.54228   0.96567   0.00000  Uiso   1.00
H1388  H     0.90028   0.55316   0.93436   0.00000  Uiso   1.00
H1389  H     0.92608   0.56956   0.98548   0.00000  Uiso   1.00
N1390  N     0.75184   0.45772   0.70099   0.00000  Uiso   1.00
H1391  H     0.76639   0.44684   0.73230   0.00000  Uiso   1.00
H1392  H     0.74058   0.43045   0.68119   0.00000  Uiso   1.00
O1393  O     0.16666   0.77225   0.87154   0.00000  Uiso   1.00
O1394  O     0.16667   0.89442   0.79513   0.00000  Uiso   1.00
O1395  O     0.16666   0.77226   0.79510   0.00000  Uiso   1.00
O1396  O     0.16667   0.89441   0.87157   0.00000  Uiso   1.00
C1397  C     0.16751   0.75345   0.83251   0.00000  Uiso   1.00
C1398  C     0.16582   0.91322   0.83415   0.00000  Uiso   1.00
O1399  O     0.09058   0.83333   0.86261   0.00000  Uiso   1.00
O1400  O     0.24275   0.83334   0.80405   0.00000  Uiso   1.00
O1401  O     0.09058   0.83334   0.78617   0.00000  Uiso   1.00
O1402  O     0.24275   0.83333   0.88050   0.00000  Uiso   1.00
C1403  C     0.06719   0.83197   0.82155   0.00000  Uiso   1.00
C1404  C     0.26614   0.83469   0.84511   0.00000  Uiso   1.00
Zn1405 Zn    0.16667   0.83333   0.88437   0.00000  Uiso   1.00
Zn1406 Zn    0.16667   0.83334   0.78229   0.00000  Uiso   1.00
N1407  N     0.16665   0.83332   0.95240   0.00000  Uiso   1.00
N1408  N     0.16668   0.83334   0.71427   0.00000  Uiso   1.00
C1409  C     0.01232   0.82442   0.81718   0.00000  Uiso   1.00
C1410  C     0.32101   0.84224   0.84949   0.00000  Uiso   1.00
C1411  C     0.13972   0.68517   0.79541   0.00000  Uiso   1.00
C1412  C     0.19361   0.98150   0.87126   0.00000  Uiso   1.00
C1413  C     0.13544   0.97586   0.79797   0.00000  Uiso   1.00
C1414  C     0.19789   0.69081   0.86870   0.00000  Uiso   1.00
C1415  C     0.16352   0.95745   0.83543   0.00000  Uiso   1.00
C1416  C     0.16982   0.70922   0.83124   0.00000  Uiso   1.00
C1417  C     0.20553   0.85449   0.69687   0.00000  Uiso   1.00
C1418  C     0.12780   0.81218   0.96980   0.00000  Uiso   1.00
C1419  C     0.20567   0.85445   0.98235   0.00000  Uiso   1.00
C1420  C     0.12766   0.81221   0.68431   0.00000  Uiso   1.00
N1421  N     0.32222   0.78999   0.78737   0.00000  Uiso   1.00
O1422  O     0.32973   0.78738   0.74530   0.00000  Uiso   1.00
O1423  O     0.29847   0.75892   0.80351   0.00000  Uiso   1.00
N1424  N     0.01111   0.87668   0.87930   0.00000  Uiso   1.00
O1425  O     0.00360   0.87929   0.92137   0.00000  Uiso   1.00
O1426  O     0.03486   0.90774   0.86316   0.00000  Uiso   1.00
N1427  N     0.11190   0.70380   0.75696   0.00000  Uiso   1.00
O1428  O     0.13449   0.70774   0.72114   0.00000  Uiso   1.00
O1429  O     0.06130   0.70657   0.75352   0.00000  Uiso   1.00
N1430  N     0.22140   0.96287   0.90973   0.00000  Uiso   1.00
O1431  O     0.19875   0.95888   0.94551   0.00000  Uiso   1.00
O1432  O     0.27201   0.96015   0.91323   0.00000  Uiso   1.00
N1433  N     0.10125   0.95148   0.76315   0.00000  Uiso   1.00
O1434  O     0.06383   0.92734   0.77377   0.00000  Uiso   1.00
O1435  O     0.10756   0.95317   0.72084   0.00000  Uiso   1.00
N1436  N     0.23208   0.71519   0.90352   0.00000  Uiso   1.00
O1437  O     0.26950   0.73934   0.89290   0.00000  Uiso   1.00
O1438  O     0.22577   0.71349   0.94583   0.00000  Uiso   1.00
N1439  N     0.24586   0.87782   0.72686   0.00000  Uiso   1.00
O1440  O     0.29438   0.86785   0.72836   0.00000  Uiso   1.00
O1441  O     0.23650   0.91482   0.74168   0.00000  Uiso   1.00
N1442  N     0.08748   0.78884   0.93981   0.00000  Uiso   1.00
O1443  O     0.03896   0.79881   0.93830   0.00000  Uiso   1.00
O1444  O     0.09684   0.75184   0.92500   0.00000  Uiso   1.00
N1445  N     0.24816   0.87562   0.96567   0.00000  Uiso   1.00
H1446  H     0.23362   0.88649   0.93436   0.00000  Uiso   1.00
H1447  H     0.25941   0.90290   0.98548   0.00000  Uiso   1.00
N1448  N     0.08517   0.79106   0.70099   0.00000  Uiso   1.00
H1449  H     0.09972   0.78017   0.73230   0.00000  Uiso   1.00
H1450  H     0.07391   0.76378   0.68119   0.00000  Uiso   1.00
O1451  O     0.50000   0.77225   0.87154   0.00000  Uiso   1.00
O1452  O     0.50000   0.89442   0.79513   0.00000  Uiso   1.00
O1453  O     0.50000   0.77226   0.79510   0.00000  Uiso   1.00
O1454  O     0.50000   0.89441   0.87157   0.00000  Uiso   1.00
C1455  C     0.50084   0.75345   0.83251   0.00000  Uiso   1.00
C1456  C     0.49916   0.91322   0.83415   0.00000  Uiso   1.00
O1457  O     0.42392   0.83333   0.86261   0.00000  Uiso   1.00
O1458  O     0.57608   0.83334   0.80405   0.00000  Uiso   1.00
O1459  O     0.42392   0.83334   0.78617   0.00000  Uiso   1.00
O1460  O     0.57608   0.83333   0.88050   0.00000  Uiso   1.00
C1461  C     0.40053   0.83197   0.82155   0.00000  Uiso   1.00
C1462  C     0.59947   0.83469   0.84511   0.00000  Uiso   1.00
Zn1463 Zn    0.50000   0.83333   0.88437   0.00000  Uiso   1.00
Zn1464 Zn    0.50000   0.83334   0.78229   0.00000  Uiso   1.00
N1465  N     0.49999   0.83332   0.95240   0.00000  Uiso   1.00
N1466  N     0.50001   0.83334   0.71427   0.00000  Uiso   1.00
C1467  C     0.34565   0.82442   0.81718   0.00000  Uiso   1.00
C1468  C     0.65435   0.84224   0.84949   0.00000  Uiso   1.00
C1469  C     0.47306   0.68517   0.79541   0.00000  Uiso   1.00
C1470  C     0.52694   0.98150   0.87126   0.00000  Uiso   1.00
C1471  C     0.46878   0.97586   0.79797   0.00000  Uiso   1.00
C1472  C     0.53122   0.69081   0.86870   0.00000  Uiso   1.00
C1473  C     0.49685   0.95745   0.83543   0.00000  Uiso   1.00
C1474  C     0.50315   0.70922   0.83124   0.00000  Uiso   1.00
C1475  C     0.53887   0.85449   0.69687   0.00000  Uiso   1.00
C1476  C     0.46114   0.81218   0.96980   0.00000  Uiso   1.00
C1477  C     0.53901   0.85445   0.98235   0.00000  Uiso   1.00
C1478  C     0.46099   0.81221   0.68431   0.00000  Uiso   1.00
N1479  N     0.65556   0.78999   0.78737   0.00000  Uiso   1.00
O1480  O     0.66306   0.78738   0.74530   0.00000  Uiso   1.00
O1481  O     0.63181   0.75892   0.80351   0.00000  Uiso   1.00
N1482  N     0.34444   0.87668   0.87930   0.00000  Uiso   1.00
O1483  O     0.33693   0.87929   0.92137   0.00000  Uiso   1.00
O1484  O     0.36819   0.90774   0.86316   0.00000  Uiso   1.00
N1485  N     0.44524   0.70380   0.75696   0.00000  Uiso   1.00
O1486  O     0.46782   0.70774   0.72114   0.00000  Uiso   1.00
O1487  O     0.39463   0.70657   0.75352   0.00000  Uiso   1.00
N1488  N     0.55473   0.96287   0.90973   0.00000  Uiso   1.00
O1489  O     0.53208   0.95888   0.94551   0.00000  Uiso   1.00
O1490  O     0.60534   0.96015   0.91323   0.00000  Uiso   1.00
N1491  N     0.43458   0.95148   0.76315   0.00000  Uiso   1.00
O1492  O     0.39716   0.92734   0.77377   0.00000  Uiso   1.00
O1493  O     0.44089   0.95317   0.72084   0.00000  Uiso   1.00
N1494  N     0.56542   0.71519   0.90352   0.00000  Uiso   1.00
O1495  O     0.60283   0.73934   0.89290   0.00000  Uiso   1.00
O1496  O     0.55910   0.71349   0.94583   0.00000  Uiso   1.00
N1497  N     0.57919   0.87782   0.72686   0.00000  Uiso   1.00
O1498  O     0.62771   0.86785   0.72836   0.00000  Uiso   1.00
O1499  O     0.56983   0.91482   0.74168   0.00000  Uiso   1.00
N1500  N     0.42081   0.78884   0.93981   0.00000  Uiso   1.00
O1501  O     0.37229   0.79881   0.93830   0.00000  Uiso   1.00
O1502  O     0.43017   0.75184   0.92500   0.00000  Uiso   1.00
N1503  N     0.58149   0.87562   0.96567   0.00000  Uiso   1.00
H1504  H     0.56695   0.88649   0.93436   0.00000  Uiso   1.00
H1505  H     0.59274   0.90290   0.98548   0.00000  Uiso   1.00
N1506  N     0.41850   0.79106   0.70099   0.00000  Uiso   1.00
H1507  H     0.43305   0.78017   0.73230   0.00000  Uiso   1.00
H1508  H     0.40724   0.76378   0.68119   0.00000  Uiso   1.00
O1509  O     0.83333   0.77225   0.87154   0.00000  Uiso   1.00
O1510  O     0.83334   0.89442   0.79513   0.00000  Uiso   1.00
O1511  O     0.83333   0.77226   0.79510   0.00000  Uiso   1.00
O1512  O     0.83334   0.89441   0.87157   0.00000  Uiso   1.00
C1513  C     0.83418   0.75345   0.83251   0.00000  Uiso   1.00
C1514  C     0.83249   0.91322   0.83415   0.00000  Uiso   1.00
O1515  O     0.75725   0.83333   0.86261   0.00000  Uiso   1.00
O1516  O     0.90942   0.83334   0.80405   0.00000  Uiso   1.00
O1517  O     0.75725   0.83334   0.78617   0.00000  Uiso   1.00
O1518  O     0.90942   0.83333   0.88050   0.00000  Uiso   1.00
C1519  C     0.73386   0.83197   0.82155   0.00000  Uiso   1.00
C1520  C     0.93281   0.83469   0.84511   0.00000  Uiso   1.00
Zn1521 Zn    0.83333   0.83333   0.88437   0.00000  Uiso   1.00
Zn1522 Zn    0.83333   0.83334   0.78229   0.00000  Uiso   1.00
N1523  N     0.83332   0.83332   0.95240   0.00000  Uiso   1.00
N1524  N     0.83335   0.83334   0.71427   0.00000  Uiso   1.00
C1525  C     0.67899   0.82442   0.81718   0.00000  Uiso   1.00
C1526  C     0.98768   0.84224   0.84949   0.00000  Uiso   1.00
C1527  C     0.80639   0.68517   0.79541   0.00000  Uiso   1.00
C1528  C     0.86027   0.98150   0.87126   0.00000  Uiso   1.00
C1529  C     0.80211   0.97586   0.79797   0.00000  Uiso   1.00
C1530  C     0.86456   0.69081   0.86870   0.00000  Uiso   1.00
C1531  C     0.83018   0.95745   0.83543   0.00000  Uiso   1.00
C1532  C     0.83648   0.70922   0.83124   0.00000  Uiso   1.00
C1533  C     0.87220   0.85449   0.69687   0.00000  Uiso   1.00
C1534  C     0.79447   0.81218   0.96980   0.00000  Uiso   1.00
C1535  C     0.87234   0.85445   0.98235   0.00000  Uiso   1.00
C1536  C     0.79432   0.81221   0.68431   0.00000  Uiso   1.00
N1537  N     0.98889   0.78999   0.78737   0.00000  Uiso   1.00
O1538  O     0.99640   0.78738   0.74530   0.00000  Uiso   1.00
O1539  O     0.96514   0.75892   0.80351   0.00000  Uiso   1.00
N1540  N     0.67778   0.87668   0.87930   0.00000  Uiso   1.00
O1541  O     0.67027   0.87929   0.92137   0.00000  Uiso   1.00
O1542  O     0.70153   0.90774   0.86316   0.00000  Uiso   1.00
N1543  N     0.77857   0.70380   0.75696   0.00000  Uiso   1.00
O1544  O     0.80116   0.70774   0.72114   0.00000  Uiso   1.00
O1545  O     0.72797   0.70657   0.75352   0.00000  Uiso   1.00
N1546  N     0.88806   0.96287   0.90973   0.00000  Uiso   1.00
O1547  O     0.86542   0.95888   0.94551   0.00000  Uiso   1.00
O1548  O     0.93868   0.96015   0.91323   0.00000  Uiso   1.00
N1549  N     0.76791   0.95148   0.76315   0.00000  Uiso   1.00
O1550  O     0.73050   0.92734   0.77377   0.00000  Uiso   1.00
O1551  O     0.77423   0.95317   0.72084   0.00000  Uiso   1.00
N1552  N     0.89875   0.71519   0.90352   0.00000  Uiso   1.00
O1553  O     0.93616   0.73934   0.89290   0.00000  Uiso   1.00
O1554  O     0.89244   0.71349   0.94583   0.00000  Uiso   1.00
N1555  N     0.91252   0.87782   0.72686   0.00000  Uiso   1.00
O1556  O     0.96104   0.86785   0.72836   0.00000  Uiso   1.00
O1557  O     0.90317   0.91482   0.74168   0.00000  Uiso   1.00
N1558  N     0.75415   0.78884   0.93981   0.00000  Uiso   1.00
O1559  O     0.70563   0.79881   0.93830   0.00000  Uiso   1.00
O1560  O     0.76351   0.75184   0.92500   0.00000  Uiso   1.00
N1561  N     0.91483   0.87562   0.96567   0.00000  Uiso   1.00
H1562  H     0.90028   0.88649   0.93436   0.00000  Uiso   1.00
H1563  H     0.92608   0.90290   0.98548   0.00000  Uiso   1.00
N1564  N     0.75184   0.79106   0.70099   0.00000  Uiso   1.00
H1565  H     0.76639   0.78017   0.73230   0.00000  Uiso   1.00
H1566  H     0.74058   0.76378   0.68119   0.00000  Uiso   1.00
loop_
_geom_bond_atom_site_label_1
_geom_bond_atom_site_label_2
_geom_bond_distance
_geom_bond_site_symmetry_2
_ccdc_geom_bond_type
O1     C5      1.294   .     A
O1     Zn13    1.991   .     S
O2     C6      1.294   .     A
O2     Zn14    1.991   .     S
O3     Zn14    2.024   .     S
O3     C5      1.292   .     A
O4     C6      1.292   .     A
O4     Zn13    2.024   .     S
C5     C24     1.430   .     S
C6     C23     1.430   .     S
O7     C11     1.280   .     A
O7     Zn13    1.972   .     S
O8     C12     1.280   .     A
O8     Zn14    1.972   .     S
O9     Zn14    1.984   .     S
O9     C11     1.295   .     A
O10    C12     1.295   .     A
O10    Zn13    1.984   .     S
C11    C17     1.412   .     S
C12    C18     1.412   .     S
Zn13   N15     2.031   .     S
Zn14   N16     2.031   .     S
N15    C27     1.377   .     A
N15    C26     1.369   .     A
N16    C28     1.377   .     A
N16    C25     1.369   .     A
C17    C134    1.354   1_455 S
C17    N145    1.445   1_455 S
C18    C75     1.354   .     S
C18    N90     1.445   .     S
C19    N35     1.428   .     S
C19    C24     1.406   .     A
C19    C369    1.382   1_545 S
C20    N38     1.428   .     S
C20    C23     1.406   .     A
C20    C196    1.382   .     S
C21    N41     1.440   .     S
C21    C23     1.406   .     A
C21    C193    1.382   .     S
C22    C24     1.406   .     A
C22    N44     1.440   .     S
C22    C368    1.382   1_545 S
C25    N47     1.430   .     S
C25    C1071   1.429   1_554 S
C26    N50     1.430   .     S
C26    C550    1.429   .     S
C27    N53     1.432   .     S
C27    C547    1.429   .     S
C28    N56     1.432   .     S
C28    C1070   1.429   1_554 S
N29    O30     1.299   .     A
N29    O31     1.302   .     A
N29    C75     1.445   .     S
N32    O33     1.299   .     A
N32    O34     1.302   .     A
N32    C134    1.445   1_455 S
N35    O37     1.301   .     A
N35    O36     1.301   .     A
N38    O40     1.301   .     A
N38    O39     1.301   .     A
N41    O42     1.301   .     A
N41    O43     1.301   .     A
N44    O45     1.301   .     A
N44    O46     1.301   .     A
N47    O48     1.300   .     A
N47    O49     1.300   .     A
N50    O51     1.300   .     A
N50    O52     1.300   .     A
N53    H55     1.044   .     S
N53    H54     1.035   .     S
N56    H57     1.035   .     S
N56    H58     1.044   .     S
O59    C63     1.294   .     A
O59    Zn71    1.991   .     S
O60    C64     1.294   .     A
O60    Zn72    1.991   .     S
O61    Zn72    2.024   .     S
O61    C63     1.292   .     A
O62    C64     1.292   .     A
O62    Zn71    2.024   .     S
C63    C82     1.430   .     S
C64    C81     1.430   .     S
O65    C69     1.280   .     A
O65    Zn71    1.972   .     S
O66    C70     1.280   .     A
O66    Zn72    1.972   .     S
O67    Zn72    1.984   .     S
O67    C69     1.295   .     A
O68    C70     1.295   .     A
O68    Zn71    1.984   .     S
C69    C75     1.412   .     S
C70    C76     1.412   .     S
Zn71   N73     2.031   .     S
Zn72   N74     2.031   .     S
N73    C85     1.377   .     A
N73    C84     1.369   .     A
N74    C86     1.377   .     A
N74    C83     1.369   .     A
C76    C133    1.354   .     S
C76    N148    1.445   .     S
C77    N93     1.428   .     S
C77    C82     1.406   .     A
C77    C427    1.382   1_545 S
C78    N96     1.428   .     S
C78    C81     1.406   .     A
C78    C254    1.382   .     S
C79    N99     1.440   .     S
C79    C81     1.406   .     A
C79    C251    1.382   .     S
C80    C82     1.406   .     A
C80    N102    1.440   .     S
C80    C426    1.382   1_545 S
C83    N105    1.430   .     S
C83    C1129   1.429   1_554 S
C84    N108    1.430   .     S
C84    C608    1.429   .     S
C85    N111    1.432   .     S
C85    C605    1.429   .     S
C86    N114    1.432   .     S
C86    C1128   1.429   1_554 S
N87    O88     1.299   .     A
N87    O89     1.302   .     A
N87    C133    1.445   .     S
N90    O91     1.299   .     A
N90    O92     1.302   .     A
N93    O95     1.301   .     A
N93    O94     1.301   .     A
N96    O98     1.301   .     A
N96    O97     1.301   .     A
N99    O100    1.301   .     A
N99    O101    1.301   .     A
N102   O103    1.301   .     A
N102   O104    1.301   .     A
N105   O106    1.300   .     A
N105   O107    1.300   .     A
N108   O109    1.300   .     A
N108   O110    1.300   .     A
N111   H113    1.044   .     S
N111   H112    1.035   .     S
N114   H115    1.035   .     S
N114   H116    1.044   .     S
O117   C121    1.294   .     A
O117   Zn129   1.991   .     S
O118   C122    1.294   .     A
O118   Zn130   1.991   .     S
O119   Zn130   2.024   .     S
O119   C121    1.292   .     A
O120   C122    1.292   .     A
O120   Zn129   2.024   .     S
C121   C140    1.430   .     S
C122   C139    1.430   .     S
O123   C127    1.280   .     A
O123   Zn129   1.972   .     S
O124   C128    1.280   .     A
O124   Zn130   1.972   .     S
O125   Zn130   1.984   .     S
O125   C127    1.295   .     A
O126   C128    1.295   .     A
O126   Zn129   1.984   .     S
C127   C133    1.412   .     S
C128   C134    1.412   .     S
Zn129  N131    2.031   .     S
Zn130  N132    2.031   .     S
N131   C143    1.377   .     A
N131   C142    1.369   .     A
N132   C144    1.377   .     A
N132   C141    1.369   .     A
C134   C17     1.354   1_655 S
C134   N32     1.445   1_655 S
C135   N151    1.428   .     S
C135   C140    1.406   .     A
C135   C485    1.382   1_545 S
C136   N154    1.428   .     S
C136   C139    1.406   .     A
C136   C312    1.382   .     S
C137   N157    1.440   .     S
C137   C139    1.406   .     A
C137   C309    1.382   .     S
C138   C140    1.406   .     A
C138   N160    1.440   .     S
C138   C484    1.382   1_545 S
C141   N163    1.430   .     S
C141   C1187   1.429   1_554 S
C142   N166    1.430   .     S
C142   C666    1.429   .     S
C143   N169    1.432   .     S
C143   C663    1.429   .     S
C144   N172    1.432   .     S
C144   C1186   1.429   1_554 S
N145   O146    1.299   .     A
N145   O147    1.302   .     A
N145   C17     1.445   1_655 S
N148   O149    1.299   .     A
N148   O150    1.302   .     A
N151   O153    1.301   .     A
N151   O152    1.301   .     A
N154   O156    1.301   .     A
N154   O155    1.301   .     A
N157   O158    1.301   .     A
N157   O159    1.301   .     A
N160   O161    1.301   .     A
N160   O162    1.301   .     A
N163   O164    1.300   .     A
N163   O165    1.300   .     A
N166   O167    1.300   .     A
N166   O168    1.300   .     A
N169   H171    1.044   .     S
N169   H170    1.035   .     S
N172   H173    1.035   .     S
N172   H174    1.044   .     S
O175   C179    1.294   .     A
O175   Zn187   1.991   .     S
O176   C180    1.294   .     A
O176   Zn188   1.991   .     S
O177   Zn188   2.024   .     S
O177   C179    1.292   .     A
O178   C180    1.292   .     A
O178   Zn187   2.024   .     S
C179   C198    1.430   .     S
C180   C197    1.430   .     S
O181   C185    1.280   .     A
O181   Zn187   1.972   .     S
O182   C186    1.280   .     A
O182   Zn188   1.972   .     S
O183   Zn188   1.984   .     S
O183   C185    1.295   .     A
O184   C186    1.295   .     A
O184   Zn187   1.984   .     S
C185   C191    1.412   .     S
C186   C192    1.412   .     S
Zn187  N189    2.031   .     S
Zn188  N190    2.031   .     S
N189   C201    1.377   .     A
N189   C200    1.369   .     A
N190   C202    1.377   .     A
N190   C199    1.369   .     A
C191   C308    1.354   1_455 S
C191   N319    1.445   1_455 S
C192   C249    1.354   .     S
C192   N264    1.445   .     S
C193   N209    1.428   .     S
C193   C198    1.406   .     A
C194   N212    1.428   .     S
C194   C197    1.406   .     A
C194   C370    1.382   .     S
C195   N215    1.440   .     S
C195   C197    1.406   .     A
C195   C367    1.382   .     S
C196   C198    1.406   .     A
C196   N218    1.440   .     S
C199   N221    1.430   .     S
C199   C1245   1.429   1_554 S
C200   N224    1.430   .     S
C200   C724    1.429   .     S
C201   N227    1.432   .     S
C201   C721    1.429   .     S
C202   N230    1.432   .     S
C202   C1244   1.429   1_554 S
N203   O204    1.299   .     A
N203   O205    1.302   .     A
N203   C249    1.445   .     S
N206   O207    1.299   .     A
N206   O208    1.302   .     A
N206   C308    1.445   1_455 S
N209   O211    1.301   .     A
N209   O210    1.301   .     A
N212   O214    1.301   .     A
N212   O213    1.301   .     A
N215   O216    1.301   .     A
N215   O217    1.301   .     A
N218   O219    1.301   .     A
N218   O220    1.301   .     A
N221   O222    1.300   .     A
N221   O223    1.300   .     A
N224   O225    1.300   .     A
N224   O226    1.300   .     A
N227   H229    1.044   .     S
N227   H228    1.035   .     S
N230   H231    1.035   .     S
N230   H232    1.044   .     S
O233   C237    1.294   .     A
O233   Zn245   1.991   .     S
O234   C238    1.294   .     A
O234   Zn246   1.991   .     S
O235   Zn246   2.024   .     S
O235   C237    1.292   .     A
O236   C238    1.292   .     A
O236   Zn245   2.024   .     S
C237   C256    1.430   .     S
C238   C255    1.430   .     S
O239   C243    1.280   .     A
O239   Zn245   1.972   .     S
O240   C244    1.280   .     A
O240   Zn246   1.972   .     S
O241   Zn246   1.984   .     S
O241   C243    1.295   .     A
O242   C244    1.295   .     A
O242   Zn245   1.984   .     S
C243   C249    1.412   .     S
C244   C250    1.412   .     S
Zn245  N247    2.031   .     S
Zn246  N248    2.031   .     S
N247   C259    1.377   .     A
N247   C258    1.369   .     A
N248   C260    1.377   .     A
N248   C257    1.369   .     A
C250   C307    1.354   .     S
C250   N322    1.445   .     S
C251   N267    1.428   .     S
C251   C256    1.406   .     A
C252   N270    1.428   .     S
C252   C255    1.406   .     A
C252   C428    1.382   .     S
C253   N273    1.440   .     S
C253   C255    1.406   .     A
C253   C425    1.382   .     S
C254   C256    1.406   .     A
C254   N276    1.440   .     S
C257   N279    1.430   .     S
C257   C1303   1.429   1_554 S
C258   N282    1.430   .     S
C258   C782    1.429   .     S
C259   N285    1.432   .     S
C259   C779    1.429   .     S
C260   N288    1.432   .     S
C260   C1302   1.429   1_554 S
N261   O262    1.299   .     A
N261   O263    1.302   .     A
N261   C307    1.445   .     S
N264   O265    1.299   .     A
N264   O266    1.302   .     A
N267   O269    1.301   .     A
N267   O268    1.301   .     A
N270   O272    1.301   .     A
N270   O271    1.301   .     A
N273   O274    1.301   .     A
N273   O275    1.301   .     A
N276   O277    1.301   .     A
N276   O278    1.301   .     A
N279   O280    1.300   .     A
N279   O281    1.300   .     A
N282   O283    1.300   .     A
N282   O284    1.300   .     A
N285   H287    1.044   .     S
N285   H286    1.035   .     S
N288   H289    1.035   .     S
N288   H290    1.044   .     S
O291   C295    1.294   .     A
O291   Zn303   1.991   .     S
O292   C296    1.294   .     A
O292   Zn304   1.991   .     S
O293   Zn304   2.024   .     S
O293   C295    1.292   .     A
O294   C296    1.292   .     A
O294   Zn303   2.024   .     S
C295   C314    1.430   .     S
C296   C313    1.430   .     S
O297   C301    1.280   .     A
O297   Zn303   1.972   .     S
O298   C302    1.280   .     A
O298   Zn304   1.972   .     S
O299   Zn304   1.984   .     S
O299   C301    1.295   .     A
O300   C302    1.295   .     A
O300   Zn303   1.984   .     S
C301   C307    1.412   .     S
C302   C308    1.412   .     S
Zn303  N305    2.031   .     S
Zn304  N306    2.031   .     S
N305   C317    1.377   .     A
N305   C316    1.369   .     A
N306   C318    1.377   .     A
N306   C315    1.369   .     A
C308   C191    1.354   1_655 S
C308   N206    1.445   1_655 S
C309   N325    1.428   .     S
C309   C314    1.406   .     A
C310   N328    1.428   .     S
C310   C313    1.406   .     A
C310   C486    1.382   .     S
C311   N331    1.440   .     S
C311   C313    1.406   .     A
C311   C483    1.382   .     S
C312   C314    1.406   .     A
C312   N334    1.440   .     S
C315   N337    1.430   .     S
C315   C1361   1.429   1_554 S
C316   N340    1.430   .     S
C316   C840    1.429   .     S
C317   N343    1.432   .     S
C317   C837    1.429   .     S
C318   N346    1.432   .     S
C318   C1360   1.429   1_554 S
N319   O320    1.299   .     A
N319   O321    1.302   .     A
N319   C191    1.445   1_655 S
N322   O323    1.299   .     A
N322   O324    1.302   .     A
N325   O327    1.301   .     A
N325   O326    1.301   .     A
N328   O330    1.301   .     A
N328   O329    1.301   .     A
N331   O332    1.301   .     A
N331   O333    1.301   .     A
N334   O335    1.301   .     A
N334   O336    1.301   .     A
N337   O338    1.300   .     A
N337   O339    1.300   .     A
N340   O341    1.300   .     A
N340   O342    1.300   .     A
N343   H345    1.044   .     S
N343   H344    1.035   .     S
N346   H347    1.035   .     S
N346   H348    1.044   .     S
O349   C353    1.294   .     A
O349   Zn361   1.991   .     S
O350   C354    1.294   .     A
O350   Zn362   1.991   .     S
O351   Zn362   2.024   .     S
O351   C353    1.292   .     A
O352   C354    1.292   .     A
O352   Zn361   2.024   .     S
C353   C372    1.430   .     S
C354   C371    1.430   .     S
O355   C359    1.280   .     A
O355   Zn361   1.972   .     S
O356   C360    1.280   .     A
O356   Zn362   1.972   .     S
O357   Zn362   1.984   .     S
O357   C359    1.295   .     A
O358   C360    1.295   .     A
O358   Zn361   1.984   .     S
C359   C365    1.412   .     S
C360   C366    1.412   .     S
Zn361  N363    2.031   .     S
Zn362  N364    2.031   .     S
N363   C375    1.377   .     A
N363   C374    1.369   .     A
N364   C376    1.377   .     A
N364   C373    1.369   .     A
C365   C482    1.354   1_455 S
C365   N493    1.445   1_455 S
C366   C423    1.354   .     S
C366   N438    1.445   .     S
C367   N383    1.428   .     S
C367   C372    1.406   .     A
C368   N386    1.428   .     S
C368   C371    1.406   .     A
C368   C22     1.382   1_565 S
C369   N389    1.440   .     S
C369   C371    1.406   .     A
C369   C19     1.382   1_565 S
C370   C372    1.406   .     A
C370   N392    1.440   .     S
C373   N395    1.430   .     S
C373   C1419   1.429   1_554 S
C374   N398    1.430   .     S
C374   C898    1.429   .     S
C375   N401    1.432   .     S
C375   C895    1.429   .     S
C376   N404    1.432   .     S
C376   C1418   1.429   1_554 S
N377   O378    1.299   .     A
N377   O379    1.302   .     A
N377   C423    1.445   .     S
N380   O381    1.299   .     A
N380   O382    1.302   .     A
N380   C482    1.445   1_455 S
N383   O385    1.301   .     A
N383   O384    1.301   .     A
N386   O388    1.301   .     A
N386   O387    1.301   .     A
N389   O390    1.301   .     A
N389   O391    1.301   .     A
N392   O393    1.301   .     A
N392   O394    1.301   .     A
N395   O396    1.300   .     A
N395   O397    1.300   .     A
N398   O399    1.300   .     A
N398   O400    1.300   .     A
N401   H403    1.044   .     S
N401   H402    1.035   .     S
N404   H405    1.035   .     S
N404   H406    1.044   .     S
O407   C411    1.294   .     A
O407   Zn419   1.991   .     S
O408   C412    1.294   .     A
O408   Zn420   1.991   .     S
O409   Zn420   2.024   .     S
O409   C411    1.292   .     A
O410   C412    1.292   .     A
O410   Zn419   2.024   .     S
C411   C430    1.430   .     S
C412   C429    1.430   .     S
O413   C417    1.280   .     A
O413   Zn419   1.972   .     S
O414   C418    1.280   .     A
O414   Zn420   1.972   .     S
O415   Zn420   1.984   .     S
O415   C417    1.295   .     A
O416   C418    1.295   .     A
O416   Zn419   1.984   .     S
C417   C423    1.412   .     S
C418   C424    1.412   .     S
Zn419  N421    2.031   .     S
Zn420  N422    2.031   .     S
N421   C433    1.377   .     A
N421   C432    1.369   .     A
N422   C434    1.377   .     A
N422   C431    1.369   .     A
C424   C481    1.354   .     S
C424   N496    1.445   .     S
C425   N441    1.428   .     S
C425   C430    1.406   .     A
C426   N444    1.428   .     S
C426   C429    1.406   .     A
C426   C80     1.382   1_565 S
C427   N447    1.440   .     S
C427   C429    1.406   .     A
C427   C77     1.382   1_565 S
C428   C430    1.406   .     A
C428   N450    1.440   .     S
C431   N453    1.430   .     S
C431   C1477   1.429   1_554 S
C432   N456    1.430   .     S
C432   C956    1.429   .     S
C433   N459    1.432   .     S
C433   C953    1.429   .     S
C434   N462    1.432   .     S
C434   C1476   1.429   1_554 S
N435   O436    1.299   .     A
N435   O437    1.302   .     A
N435   C481    1.445   .     S
N438   O439    1.299   .     A
N438   O440    1.302   .     A
N441   O443    1.301   .     A
N441   O442    1.301   .     A
N444   O446    1.301   .     A
N444   O445    1.301   .     A
N447   O448    1.301   .     A
N447   O449    1.301   .     A
N450   O451    1.301   .     A
N450   O452    1.301   .     A
N453   O454    1.300   .     A
N453   O455    1.300   .     A
N456   O457    1.300   .     A
N456   O458    1.300   .     A
N459   H461    1.044   .     S
N459   H460    1.035   .     S
N462   H463    1.035   .     S
N462   H464    1.044   .     S
O465   C469    1.294   .     A
O465   Zn477   1.991   .     S
O466   C470    1.294   .     A
O466   Zn478   1.991   .     S
O467   Zn478   2.024   .     S
O467   C469    1.292   .     A
O468   C470    1.292   .     A
O468   Zn477   2.024   .     S
C469   C488    1.430   .     S
C470   C487    1.430   .     S
O471   C475    1.280   .     A
O471   Zn477   1.972   .     S
O472   C476    1.280   .     A
O472   Zn478   1.972   .     S
O473   Zn478   1.984   .     S
O473   C475    1.295   .     A
O474   C476    1.295   .     A
O474   Zn477   1.984   .     S
C475   C481    1.412   .     S
C476   C482    1.412   .     S
Zn477  N479    2.031   .     S
Zn478  N480    2.031   .     S
N479   C491    1.377   .     A
N479   C490    1.369   .     A
N480   C492    1.377   .     A
N480   C489    1.369   .     A
C482   C365    1.354   1_655 S
C482   N380    1.445   1_655 S
C483   N499    1.428   .     S
C483   C488    1.406   .     A
C484   N502    1.428   .     S
C484   C487    1.406   .     A
C484   C138    1.382   1_565 S
C485   N505    1.440   .     S
C485   C487    1.406   .     A
C485   C135    1.382   1_565 S
C486   C488    1.406   .     A
C486   N508    1.440   .     S
C489   N511    1.430   .     S
C489   C1535   1.429   1_554 S
C490   N514    1.430   .     S
C490   C1014   1.429   .     S
C491   N517    1.432   .     S
C491   C1011   1.429   .     S
C492   N520    1.432   .     S
C492   C1534   1.429   1_554 S
N493   O494    1.299   .     A
N493   O495    1.302   .     A
N493   C365    1.445   1_655 S
N496   O497    1.299   .     A
N496   O498    1.302   .     A
N499   O501    1.301   .     A
N499   O500    1.301   .     A
N502   O504    1.301   .     A
N502   O503    1.301   .     A
N505   O506    1.301   .     A
N505   O507    1.301   .     A
N508   O509    1.301   .     A
N508   O510    1.301   .     A
N511   O512    1.300   .     A
N511   O513    1.300   .     A
N514   O515    1.300   .     A
N514   O516    1.300   .     A
N517   H519    1.044   .     S
N517   H518    1.035   .     S
N520   H521    1.035   .     S
N520   H522    1.044   .     S
O523   C527    1.294   .     A
O523   Zn535   1.991   .     S
O524   C528    1.294   .     A
O524   Zn536   1.991   .     S
O525   Zn536   2.024   .     S
O525   C527    1.292   .     A
O526   C528    1.292   .     A
O526   Zn535   2.024   .     S
C527   C546    1.430   .     S
C528   C545    1.430   .     S
O529   C533    1.280   .     A
O529   Zn535   1.972   .     S
O530   C534    1.280   .     A
O530   Zn536   1.972   .     S
O531   Zn536   1.984   .     S
O531   C533    1.295   .     A
O532   C534    1.295   .     A
O532   Zn535   1.984   .     S
C533   C539    1.412   .     S
C534   C540    1.412   .     S
Zn535  N537    2.031   .     S
Zn536  N538    2.031   .     S
N537   C549    1.377   .     A
N537   C548    1.369   .     A
N538   C550    1.377   .     A
N538   C547    1.369   .     A
C539   C656    1.354   1_455 S
C539   N667    1.445   1_455 S
C540   C597    1.354   .     S
C540   N612    1.445   .     S
C541   N557    1.428   .     S
C541   C546    1.406   .     A
C541   C891    1.382   1_545 S
C542   N560    1.428   .     S
C542   C545    1.406   .     A
C542   C718    1.382   .     S
C543   N563    1.440   .     S
C543   C545    1.406   .     A
C543   C715    1.382   .     S
C544   C546    1.406   .     A
C544   N566    1.440   .     S
C544   C890    1.382   1_545 S
C547   N569    1.430   .     S
C548   N572    1.430   .     S
C548   C1072   1.429   .     S
C549   N575    1.432   .     S
C549   C1069   1.429   .     S
C550   N578    1.432   .     S
N551   O552    1.299   .     A
N551   O553    1.302   .     A
N551   C597    1.445   .     S
N554   O555    1.299   .     A
N554   O556    1.302   .     A
N554   C656    1.445   1_455 S
N557   O559    1.301   .     A
N557   O558    1.301   .     A
N560   O562    1.301   .     A
N560   O561    1.301   .     A
N563   O564    1.301   .     A
N563   O565    1.301   .     A
N566   O567    1.301   .     A
N566   O568    1.301   .     A
N569   O570    1.300   .     A
N569   O571    1.300   .     A
N572   O573    1.300   .     A
N572   O574    1.300   .     A
N575   H577    1.044   .     S
N575   H576    1.035   .     S
N578   H579    1.035   .     S
N578   H580    1.044   .     S
O581   C585    1.294   .     A
O581   Zn593   1.991   .     S
O582   C586    1.294   .     A
O582   Zn594   1.991   .     S
O583   Zn594   2.024   .     S
O583   C585    1.292   .     A
O584   C586    1.292   .     A
O584   Zn593   2.024   .     S
C585   C604    1.430   .     S
C586   C603    1.430   .     S
O587   C591    1.280   .     A
O587   Zn593   1.972   .     S
O588   C592    1.280   .     A
O588   Zn594   1.972   .     S
O589   Zn594   1.984   .     S
O589   C591    1.295   .     A
O590   C592    1.295   .     A
O590   Zn593   1.984   .     S
C591   C597    1.412   .     S
C592   C598    1.412   .     S
Zn593  N595    2.031   .     S
Zn594  N596    2.031   .     S
N595   C607    1.377   .     A
N595   C606    1.369   .     A
N596   C608    1.377   .     A
N596   C605    1.369   .     A
C598   C655    1.354   .     S
C598   N670    1.445   .     S
C599   N615    1.428   .     S
C599   C604    1.406   .     A
C599   C949    1.382   1_545 S
C600   N618    1.428   .     S
C600   C603    1.406   .     A
C600   C776    1.382   .     S
C601   N621    1.440   .     S
C601   C603    1.406   .     A
C601   C773    1.382   .     S
C602   C604    1.406   .     A
C602   N624    1.440   .     S
C602   C948    1.382   1_545 S
C605   N627    1.430   .     S
C606   N630    1.430   .     S
C606   C1130   1.429   .     S
C607   N633    1.432   .     S
C607   C1127   1.429   .     S
C608   N636    1.432   .     S
N609   O610    1.299   .     A
N609   O611    1.302   .     A
N609   C655    1.445   .     S
N612   O613    1.299   .     A
N612   O614    1.302   .     A
N615   O617    1.301   .     A
N615   O616    1.301   .     A
N618   O620    1.301   .     A
N618   O619    1.301   .     A
N621   O622    1.301   .     A
N621   O623    1.301   .     A
N624   O625    1.301   .     A
N624   O626    1.301   .     A
N627   O628    1.300   .     A
N627   O629    1.300   .     A
N630   O631    1.300   .     A
N630   O632    1.300   .     A
N633   H635    1.044   .     S
N633   H634    1.035   .     S
N636   H637    1.035   .     S
N636   H638    1.044   .     S
O639   C643    1.294   .     A
O639   Zn651   1.991   .     S
O640   C644    1.294   .     A
O640   Zn652   1.991   .     S
O641   Zn652   2.024   .     S
O641   C643    1.292   .     A
O642   C644    1.292   .     A
O642   Zn651   2.024   .     S
C643   C662    1.430   .     S
C644   C661    1.430   .     S
O645   C649    1.280   .     A
O645   Zn651   1.972   .     S
O646   C650    1.280   .     A
O646   Zn652   1.972   .     S
O647   Zn652   1.984   .     S
O647   C649    1.295   .     A
O648   C650    1.295   .     A
O648   Zn651   1.984   .     S
C649   C655    1.412   .     S
C650   C656    1.412   .     S
Zn651  N653    2.031   .     S
Zn652  N654    2.031   .     S
N653   C665    1.377   .     A
N653   C664    1.369   .     A
N654   C666    1.377   .     A
N654   C663    1.369   .     A
C656   C539    1.354   1_655 S
C656   N554    1.445   1_655 S
C657   N673    1.428   .     S
C657   C662    1.406   .     A
C657   C1007   1.382   1_545 S
C658   N676    1.428   .     S
C658   C661    1.406   .     A
C658   C834    1.382   .     S
C659   N679    1.440   .     S
C659   C661    1.406   .     A
C659   C831    1.382   .     S
C660   C662    1.406   .     A
C660   N682    1.440   .     S
C660   C1006   1.382   1_545 S
C663   N685    1.430   .     S
C664   N688    1.430   .     S
C664   C1188   1.429   .     S
C665   N691    1.432   .     S
C665   C1185   1.429   .     S
C666   N694    1.432   .     S
N667   O668    1.299   .     A
N667   O669    1.302   .     A
N667   C539    1.445   1_655 S
N670   O671    1.299   .     A
N670   O672    1.302   .     A
N673   O675    1.301   .     A
N673   O674    1.301   .     A
N676   O678    1.301   .     A
N676   O677    1.301   .     A
N679   O680    1.301   .     A
N679   O681    1.301   .     A
N682   O683    1.301   .     A
N682   O684    1.301   .     A
N685   O686    1.300   .     A
N685   O687    1.300   .     A
N688   O689    1.300   .     A
N688   O690    1.300   .     A
N691   H693    1.044   .     S
N691   H692    1.035   .     S
N694   H695    1.035   .     S
N694   H696    1.044   .     S
O697   C701    1.294   .     A
O697   Zn709   1.991   .     S
O698   C702    1.294   .     A
O698   Zn710   1.991   .     S
O699   Zn710   2.024   .     S
O699   C701    1.292   .     A
O700   C702    1.292   .     A
O700   Zn709   2.024   .     S
C701   C720    1.430   .     S
C702   C719    1.430   .     S
O703   C707    1.280   .     A
O703   Zn709   1.972   .     S
O704   C708    1.280   .     A
O704   Zn710   1.972   .     S
O705   Zn710   1.984   .     S
O705   C707    1.295   .     A
O706   C708    1.295   .     A
O706   Zn709   1.984   .     S
C707   C713    1.412   .     S
C708   C714    1.412   .     S
Zn709  N711    2.031   .     S
Zn710  N712    2.031   .     S
N711   C723    1.377   .     A
N711   C722    1.369   .     A
N712   C724    1.377   .     A
N712   C721    1.369   .     A
C713   C830    1.354   1_455 S
C713   N841    1.445   1_455 S
C714   C771    1.354   .     S
C714   N786    1.445   .     S
C715   N731    1.428   .     S
C715   C720    1.406   .     A
C716   N734    1.428   .     S
C716   C719    1.406   .     A
C716   C892    1.382   .     S
C717   N737    1.440   .     S
C717   C719    1.406   .     A
C717   C889    1.382   .     S
C718   C720    1.406   .     A
C718   N740    1.440   .     S
C721   N743    1.430   .     S
C722   N746    1.430   .     S
C722   C1246   1.429   .     S
C723   N749    1.432   .     S
C723   C1243   1.429   .     S
C724   N752    1.432   .     S
N725   O726    1.299   .     A
N725   O727    1.302   .     A
N725   C771    1.445   .     S
N728   O729    1.299   .     A
N728   O730    1.302   .     A
N728   C830    1.445   1_455 S
N731   O733    1.301   .     A
N731   O732    1.301   .     A
N734   O736    1.301   .     A
N734   O735    1.301   .     A
N737   O738    1.301   .     A
N737   O739    1.301   .     A
N740   O741    1.301   .     A
N740   O742    1.301   .     A
N743   O744    1.300   .     A
N743   O745    1.300   .     A
N746   O747    1.300   .     A
N746   O748    1.300   .     A
N749   H751    1.044   .     S
N749   H750    1.035   .     S
N752   H753    1.035   .     S
N752   H754    1.044   .     S
O755   C759    1.294   .     A
O755   Zn767   1.991   .     S
O756   C760    1.294   .     A
O756   Zn768   1.991   .     S
O757   Zn768   2.024   .     S
O757   C759    1.292   .     A
O758   C760    1.292   .     A
O758   Zn767   2.024   .     S
C759   C778    1.430   .     S
C760   C777    1.430   .     S
O761   C765    1.280   .     A
O761   Zn767   1.972   .     S
O762   C766    1.280   .     A
O762   Zn768   1.972   .     S
O763   Zn768   1.984   .     S
O763   C765    1.295   .     A
O764   C766    1.295   .     A
O764   Zn767   1.984   .     S
C765   C771    1.412   .     S
C766   C772    1.412   .     S
Zn767  N769    2.031   .     S
Zn768  N770    2.031   .     S
N769   C781    1.377   .     A
N769   C780    1.369   .     A
N770   C782    1.377   .     A
N770   C779    1.369   .     A
C772   C829    1.354   .     S
C772   N844    1.445   .     S
C773   N789    1.428   .     S
C773   C778    1.406   .     A
C774   N792    1.428   .     S
C774   C777    1.406   .     A
C774   C950    1.382   .     S
C775   N795    1.440   .     S
C775   C777    1.406   .     A
C775   C947    1.382   .     S
C776   C778    1.406   .     A
C776   N798    1.440   .     S
C779   N801    1.430   .     S
C780   N804    1.430   .     S
C780   C1304   1.429   .     S
C781   N807    1.432   .     S
C781   C1301   1.429   .     S
C782   N810    1.432   .     S
N783   O784    1.299   .     A
N783   O785    1.302   .     A
N783   C829    1.445   .     S
N786   O787    1.299   .     A
N786   O788    1.302   .     A
N789   O791    1.301   .     A
N789   O790    1.301   .     A
N792   O794    1.301   .     A
N792   O793    1.301   .     A
N795   O796    1.301   .     A
N795   O797    1.301   .     A
N798   O799    1.301   .     A
N798   O800    1.301   .     A
N801   O802    1.300   .     A
N801   O803    1.300   .     A
N804   O805    1.300   .     A
N804   O806    1.300   .     A
N807   H809    1.044   .     S
N807   H808    1.035   .     S
N810   H811    1.035   .     S
N810   H812    1.044   .     S
O813   C817    1.294   .     A
O813   Zn825   1.991   .     S
O814   C818    1.294   .     A
O814   Zn826   1.991   .     S
O815   Zn826   2.024   .     S
O815   C817    1.292   .     A
O816   C818    1.292   .     A
O816   Zn825   2.024   .     S
C817   C836    1.430   .     S
C818   C835    1.430   .     S
O819   C823    1.280   .     A
O819   Zn825   1.972   .     S
O820   C824    1.280   .     A
O820   Zn826   1.972   .     S
O821   Zn826   1.984   .     S
O821   C823    1.295   .     A
O822   C824    1.295   .     A
O822   Zn825   1.984   .     S
C823   C829    1.412   .     S
C824   C830    1.412   .     S
Zn825  N827    2.031   .     S
Zn826  N828    2.031   .     S
N827   C839    1.377   .     A
N827   C838    1.369   .     A
N828   C840    1.377   .     A
N828   C837    1.369   .     A
C830   C713    1.354   1_655 S
C830   N728    1.445   1_655 S
C831   N847    1.428   .     S
C831   C836    1.406   .     A
C832   N850    1.428   .     S
C832   C835    1.406   .     A
C832   C1008   1.382   .     S
C833   N853    1.440   .     S
C833   C835    1.406   .     A
C833   C1005   1.382   .     S
C834   C836    1.406   .     A
C834   N856    1.440   .     S
C837   N859    1.430   .     S
C838   N862    1.430   .     S
C838   C1362   1.429   .     S
C839   N865    1.432   .     S
C839   C1359   1.429   .     S
C840   N868    1.432   .     S
N841   O842    1.299   .     A
N841   O843    1.302   .     A
N841   C713    1.445   1_655 S
N844   O845    1.299   .     A
N844   O846    1.302   .     A
N847   O849    1.301   .     A
N847   O848    1.301   .     A
N850   O852    1.301   .     A
N850   O851    1.301   .     A
N853   O854    1.301   .     A
N853   O855    1.301   .     A
N856   O857    1.301   .     A
N856   O858    1.301   .     A
N859   O860    1.300   .     A
N859   O861    1.300   .     A
N862   O863    1.300   .     A
N862   O864    1.300   .     A
N865   H867    1.044   .     S
N865   H866    1.035   .     S
N868   H869    1.035   .     S
N868   H870    1.044   .     S
O871   C875    1.294   .     A
O871   Zn883   1.991   .     S
O872   C876    1.294   .     A
O872   Zn884   1.991   .     S
O873   Zn884   2.024   .     S
O873   C875    1.292   .     A
O874   C876    1.292   .     A
O874   Zn883   2.024   .     S
C875   C894    1.430   .     S
C876   C893    1.430   .     S
O877   C881    1.280   .     A
O877   Zn883   1.972   .     S
O878   C882    1.280   .     A
O878   Zn884   1.972   .     S
O879   Zn884   1.984   .     S
O879   C881    1.295   .     A
O880   C882    1.295   .     A
O880   Zn883   1.984   .     S
C881   C887    1.412   .     S
C882   C888    1.412   .     S
Zn883  N885    2.031   .     S
Zn884  N886    2.031   .     S
N885   C897    1.377   .     A
N885   C896    1.369   .     A
N886   C898    1.377   .     A
N886   C895    1.369   .     A
C887   C1004   1.354   1_455 S
C887   N1015   1.445   1_455 S
C888   C945    1.354   .     S
C888   N960    1.445   .     S
C889   N905    1.428   .     S
C889   C894    1.406   .     A
C890   N908    1.428   .     S
C890   C893    1.406   .     A
C890   C544    1.382   1_565 S
C891   N911    1.440   .     S
C891   C893    1.406   .     A
C891   C541    1.382   1_565 S
C892   C894    1.406   .     A
C892   N914    1.440   .     S
C895   N917    1.430   .     S
C896   N920    1.430   .     S
C896   C1420   1.429   .     S
C897   N923    1.432   .     S
C897   C1417   1.429   .     S
C898   N926    1.432   .     S
N899   O900    1.299   .     A
N899   O901    1.302   .     A
N899   C945    1.445   .     S
N902   O903    1.299   .     A
N902   O904    1.302   .     A
N902   C1004   1.445   1_455 S
N905   O907    1.301   .     A
N905   O906    1.301   .     A
N908   O910    1.301   .     A
N908   O909    1.301   .     A
N911   O912    1.301   .     A
N911   O913    1.301   .     A
N914   O915    1.301   .     A
N914   O916    1.301   .     A
N917   O918    1.300   .     A
N917   O919    1.300   .     A
N920   O921    1.300   .     A
N920   O922    1.300   .     A
N923   H925    1.044   .     S
N923   H924    1.035   .     S
N926   H927    1.035   .     S
N926   H928    1.044   .     S
O929   C933    1.294   .     A
O929   Zn941   1.991   .     S
O930   C934    1.294   .     A
O930   Zn942   1.991   .     S
O931   Zn942   2.024   .     S
O931   C933    1.292   .     A
O932   C934    1.292   .     A
O932   Zn941   2.024   .     S
C933   C952    1.430   .     S
C934   C951    1.430   .     S
O935   C939    1.280   .     A
O935   Zn941   1.972   .     S
O936   C940    1.280   .     A
O936   Zn942   1.972   .     S
O937   Zn942   1.984   .     S
O937   C939    1.295   .     A
O938   C940    1.295   .     A
O938   Zn941   1.984   .     S
C939   C945    1.412   .     S
C940   C946    1.412   .     S
Zn941  N943    2.031   .     S
Zn942  N944    2.031   .     S
N943   C955    1.377   .     A
N943   C954    1.369   .     A
N944   C956    1.377   .     A
N944   C953    1.369   .     A
C946   C1003   1.354   .     S
C946   N1018   1.445   .     S
C947   N963    1.428   .     S
C947   C952    1.406   .     A
C948   N966    1.428   .     S
C948   C951    1.406   .     A
C948   C602    1.382   1_565 S
C949   N969    1.440   .     S
C949   C951    1.406   .     A
C949   C599    1.382   1_565 S
C950   C952    1.406   .     A
C950   N972    1.440   .     S
C953   N975    1.430   .     S
C954   N978    1.430   .     S
C954   C1478   1.429   .     S
C955   N981    1.432   .     S
C955   C1475   1.429   .     S
C956   N984    1.432   .     S
N957   O958    1.299   .     A
N957   O959    1.302   .     A
N957   C1003   1.445   .     S
N960   O961    1.299   .     A
N960   O962    1.302   .     A
N963   O965    1.301   .     A
N963   O964    1.301   .     A
N966   O968    1.301   .     A
N966   O967    1.301   .     A
N969   O970    1.301   .     A
N969   O971    1.301   .     A
N972   O973    1.301   .     A
N972   O974    1.301   .     A
N975   O976    1.300   .     A
N975   O977    1.300   .     A
N978   O979    1.300   .     A
N978   O980    1.300   .     A
N981   H983    1.044   .     S
N981   H982    1.035   .     S
N984   H985    1.035   .     S
N984   H986    1.044   .     S
O987   C991    1.294   .     A
O987   Zn999   1.991   .     S
O988   C992    1.294   .     A
O988   Zn1000  1.991   .     S
O989   Zn1000  2.024   .     S
O989   C991    1.292   .     A
O990   C992    1.292   .     A
O990   Zn999   2.024   .     S
C991   C1010   1.430   .     S
C992   C1009   1.430   .     S
O993   C997    1.280   .     A
O993   Zn999   1.972   .     S
O994   C998    1.280   .     A
O994   Zn1000  1.972   .     S
O995   Zn1000  1.984   .     S
O995   C997    1.295   .     A
O996   C998    1.295   .     A
O996   Zn999   1.984   .     S
C997   C1003   1.412   .     S
C998   C1004   1.412   .     S
Zn999  N1001   2.031   .     S
Zn1000 N1002   2.031   .     S
N1001  C1013   1.377   .     A
N1001  C1012   1.369   .     A
N1002  C1014   1.377   .     A
N1002  C1011   1.369   .     A
C1004  C887    1.354   1_655 S
C1004  N902    1.445   1_655 S
C1005  N1021   1.428   .     S
C1005  C1010   1.406   .     A
C1006  N1024   1.428   .     S
C1006  C1009   1.406   .     A
C1006  C660    1.382   1_565 S
C1007  N1027   1.440   .     S
C1007  C1009   1.406   .     A
C1007  C657    1.382   1_565 S
C1008  C1010   1.406   .     A
C1008  N1030   1.440   .     S
C1011  N1033   1.430   .     S
C1012  N1036   1.430   .     S
C1012  C1536   1.429   .     S
C1013  N1039   1.432   .     S
C1013  C1533   1.429   .     S
C1014  N1042   1.432   .     S
N1015  O1016   1.299   .     A
N1015  O1017   1.302   .     A
N1015  C887    1.445   1_655 S
N1018  O1019   1.299   .     A
N1018  O1020   1.302   .     A
N1021  O1023   1.301   .     A
N1021  O1022   1.301   .     A
N1024  O1026   1.301   .     A
N1024  O1025   1.301   .     A
N1027  O1028   1.301   .     A
N1027  O1029   1.301   .     A
N1030  O1031   1.301   .     A
N1030  O1032   1.301   .     A
N1033  O1034   1.300   .     A
N1033  O1035   1.300   .     A
N1036  O1037   1.300   .     A
N1036  O1038   1.300   .     A
N1039  H1041   1.044   .     S
N1039  H1040   1.035   .     S
N1042  H1043   1.035   .     S
N1042  H1044   1.044   .     S
O1045  C1049   1.294   .     A
O1045  Zn1057  1.991   .     S
O1046  C1050   1.294   .     A
O1046  Zn1058  1.991   .     S
O1047  Zn1058  2.024   .     S
O1047  C1049   1.292   .     A
O1048  C1050   1.292   .     A
O1048  Zn1057  2.024   .     S
C1049  C1068   1.430   .     S
C1050  C1067   1.430   .     S
O1051  C1055   1.280   .     A
O1051  Zn1057  1.972   .     S
O1052  C1056   1.280   .     A
O1052  Zn1058  1.972   .     S
O1053  Zn1058  1.984   .     S
O1053  C1055   1.295   .     A
O1054  C1056   1.295   .     A
O1054  Zn1057  1.984   .     S
C1055  C1061   1.412   .     S
C1056  C1062   1.412   .     S
Zn1057 N1059   2.031   .     S
Zn1058 N1060   2.031   .     S
N1059  C1071   1.377   .     A
N1059  C1070   1.369   .     A
N1060  C1072   1.377   .     A
N1060  C1069   1.369   .     A
C1061  C1178   1.354   1_455 S
C1061  N1189   1.445   1_455 S
C1062  C1119   1.354   .     S
C1062  N1134   1.445   .     S
C1063  N1079   1.428   .     S
C1063  C1068   1.406   .     A
C1063  C1413   1.382   1_545 S
C1064  N1082   1.428   .     S
C1064  C1067   1.406   .     A
C1064  C1240   1.382   .     S
C1065  N1085   1.440   .     S
C1065  C1067   1.406   .     A
C1065  C1237   1.382   .     S
C1066  C1068   1.406   .     A
C1066  N1088   1.440   .     S
C1066  C1412   1.382   1_545 S
C1069  N1091   1.430   .     S
C1070  N1094   1.430   .     S
C1070  C28     1.429   1_556 S
C1071  N1097   1.432   .     S
C1071  C25     1.429   1_556 S
C1072  N1100   1.432   .     S
N1073  O1074   1.299   .     A
N1073  O1075   1.302   .     A
N1073  C1119   1.445   .     S
N1076  O1077   1.299   .     A
N1076  O1078   1.302   .     A
N1076  C1178   1.445   1_455 S
N1079  O1081   1.301   .     A
N1079  O1080   1.301   .     A
N1082  O1084   1.301   .     A
N1082  O1083   1.301   .     A
N1085  O1086   1.301   .     A
N1085  O1087   1.301   .     A
N1088  O1089   1.301   .     A
N1088  O1090   1.301   .     A
N1091  O1092   1.300   .     A
N1091  O1093   1.300   .     A
N1094  O1095   1.300   .     A
N1094  O1096   1.300   .     A
N1097  H1099   1.044   .     S
N1097  H1098   1.035   .     S
N1100  H1101   1.035   .     S
N1100  H1102   1.044   .     S
O1103  C1107   1.294   .     A
O1103  Zn1115  1.991   .     S
O1104  C1108   1.294   .     A
O1104  Zn1116  1.991   .     S
O1105  Zn1116  2.024   .     S
O1105  C1107   1.292   .     A
O1106  C1108   1.292   .     A
O1106  Zn1115  2.024   .     S
C1107  C1126   1.430   .     S
C1108  C1125   1.430   .     S
O1109  C1113   1.280   .     A
O1109  Zn1115  1.972   .     S
O1110  C1114   1.280   .     A
O1110  Zn1116  1.972   .     S
O1111  Zn1116  1.984   .     S
O1111  C1113   1.295   .     A
O1112  C1114   1.295   .     A
O1112  Zn1115  1.984   .     S
C1113  C1119   1.412   .     S
C1114  C1120   1.412   .     S
Zn1115 N1117   2.031   .     S
Zn1116 N1118   2.031   .     S
N1117  C1129   1.377   .     A
N1117  C1128   1.369   .     A
N1118  C1130   1.377   .     A
N1118  C1127   1.369   .     A
C1120  C1177   1.354   .     S
C1120  N1192   1.445   .     S
C1121  N1137   1.428   .     S
C1121  C1126   1.406   .     A
C1121  C1471   1.382   1_545 S
C1122  N1140   1.428   .     S
C1122  C1125   1.406   .     A
C1122  C1298   1.382   .     S
C1123  N1143   1.440   .     S
C1123  C1125   1.406   .     A
C1123  C1295   1.382   .     S
C1124  C1126   1.406   .     A
C1124  N1146   1.440   .     S
C1124  C1470   1.382   1_545 S
C1127  N1149   1.430   .     S
C1128  N1152   1.430   .     S
C1128  C86     1.429   1_556 S
C1129  N1155   1.432   .     S
C1129  C83     1.429   1_556 S
C1130  N1158   1.432   .     S
N1131  O1132   1.299   .     A
N1131  O1133   1.302   .     A
N1131  C1177   1.445   .     S
N1134  O1135   1.299   .     A
N1134  O1136   1.302   .     A
N1137  O1139   1.301   .     A
N1137  O1138   1.301   .     A
N1140  O1142   1.301   .     A
N1140  O1141   1.301   .     A
N1143  O1144   1.301   .     A
N1143  O1145   1.301   .     A
N1146  O1147   1.301   .     A
N1146  O1148   1.301   .     A
N1149  O1150   1.300   .     A
N1149  O1151   1.300   .     A
N1152  O1153   1.300   .     A
N1152  O1154   1.300   .     A
N1155  H1157   1.044   .     S
N1155  H1156   1.035   .     S
N1158  H1159   1.035   .     S
N1158  H1160   1.044   .     S
O1161  C1165   1.294   .     A
O1161  Zn1173  1.991   .     S
O1162  C1166   1.294   .     A
O1162  Zn1174  1.991   .     S
O1163  Zn1174  2.024   .     S
O1163  C1165   1.292   .     A
O1164  C1166   1.292   .     A
O1164  Zn1173  2.024   .     S
C1165  C1184   1.430   .     S
C1166  C1183   1.430   .     S
O1167  C1171   1.280   .     A
O1167  Zn1173  1.972   .     S
O1168  C1172   1.280   .     A
O1168  Zn1174  1.972   .     S
O1169  Zn1174  1.984   .     S
O1169  C1171   1.295   .     A
O1170  C1172   1.295   .     A
O1170  Zn1173  1.984   .     S
C1171  C1177   1.412   .     S
C1172  C1178   1.412   .     S
Zn1173 N1175   2.031   .     S
Zn1174 N1176   2.031   .     S
N1175  C1187   1.377   .     A
N1175  C1186   1.369   .     A
N1176  C1188   1.377   .     A
N1176  C1185   1.369   .     A
C1178  C1061   1.354   1_655 S
C1178  N1076   1.445   1_655 S
C1179  N1195   1.428   .     S
C1179  C1184   1.406   .     A
C1179  C1529   1.382   1_545 S
C1180  N1198   1.428   .     S
C1180  C1183   1.406   .     A
C1180  C1356   1.382   .     S
C1181  N1201   1.440   .     S
C1181  C1183   1.406   .     A
C1181  C1353   1.382   .     S
C1182  C1184   1.406   .     A
C1182  N1204   1.440   .     S
C1182  C1528   1.382   1_545 S
C1185  N1207   1.430   .     S
C1186  N1210   1.430   .     S
C1186  C144    1.429   1_556 S
C1187  N1213   1.432   .     S
C1187  C141    1.429   1_556 S
C1188  N1216   1.432   .     S
N1189  O1190   1.299   .     A
N1189  O1191   1.302   .     A
N1189  C1061   1.445   1_655 S
N1192  O1193   1.299   .     A
N1192  O1194   1.302   .     A
N1195  O1197   1.301   .     A
N1195  O1196   1.301   .     A
N1198  O1200   1.301   .     A
N1198  O1199   1.301   .     A
N1201  O1202   1.301   .     A
N1201  O1203   1.301   .     A
N1204  O1205   1.301   .     A
N1204  O1206   1.301   .     A
N1207  O1208   1.300   .     A
N1207  O1209   1.300   .     A
N1210  O1211   1.300   .     A
N1210  O1212   1.300   .     A
N1213  H1215   1.044   .     S
N1213  H1214   1.035   .     S
N1216  H1217   1.035   .     S
N1216  H1218   1.044   .     S
O1219  C1223   1.294   .     A
O1219  Zn1231  1.991   .     S
O1220  C1224   1.294   .     A
O1220  Zn1232  1.991   .     S
O1221  Zn1232  2.024   .     S
O1221  C1223   1.292   .     A
O1222  C1224   1.292   .     A
O1222  Zn1231  2.024   .     S
C1223  C1242   1.430   .     S
C1224  C1241   1.430   .     S
O1225  C1229   1.280   .     A
O1225  Zn1231  1.972   .     S
O1226  C1230   1.280   .     A
O1226  Zn1232  1.972   .     S
O1227  Zn1232  1.984   .     S
O1227  C1229   1.295   .     A
O1228  C1230   1.295   .     A
O1228  Zn1231  1.984   .     S
C1229  C1235   1.412   .     S
C1230  C1236   1.412   .     S
Zn1231 N1233   2.031   .     S
Zn1232 N1234   2.031   .     S
N1233  C1245   1.377   .     A
N1233  C1244   1.369   .     A
N1234  C1246   1.377   .     A
N1234  C1243   1.369   .     A
C1235  C1352   1.354   1_455 S
C1235  N1363   1.445   1_455 S
C1236  C1293   1.354   .     S
C1236  N1308   1.445   .     S
C1237  N1253   1.428   .     S
C1237  C1242   1.406   .     A
C1238  N1256   1.428   .     S
C1238  C1241   1.406   .     A
C1238  C1414   1.382   .     S
C1239  N1259   1.440   .     S
C1239  C1241   1.406   .     A
C1239  C1411   1.382   .     S
C1240  C1242   1.406   .     A
C1240  N1262   1.440   .     S
C1243  N1265   1.430   .     S
C1244  N1268   1.430   .     S
C1244  C202    1.429   1_556 S
C1245  N1271   1.432   .     S
C1245  C199    1.429   1_556 S
C1246  N1274   1.432   .     S
N1247  O1248   1.299   .     A
N1247  O1249   1.302   .     A
N1247  C1293   1.445   .     S
N1250  O1251   1.299   .     A
N1250  O1252   1.302   .     A
N1250  C1352   1.445   1_455 S
N1253  O1255   1.301   .     A
N1253  O1254   1.301   .     A
N1256  O1258   1.301   .     A
N1256  O1257   1.301   .     A
N1259  O1260   1.301   .     A
N1259  O1261   1.301   .     A
N1262  O1263   1.301   .     A
N1262  O1264   1.301   .     A
N1265  O1266   1.300   .     A
N1265  O1267   1.300   .     A
N1268  O1269   1.300   .     A
N1268  O1270   1.300   .     A
N1271  H1273   1.044   .     S
N1271  H1272   1.035   .     S
N1274  H1275   1.035   .     S
N1274  H1276   1.044   .     S
O1277  C1281   1.294   .     A
O1277  Zn1289  1.991   .     S
O1278  C1282   1.294   .     A
O1278  Zn1290  1.991   .     S
O1279  Zn1290  2.024   .     S
O1279  C1281   1.292   .     A
O1280  C1282   1.292   .     A
O1280  Zn1289  2.024   .     S
C1281  C1300   1.430   .     S
C1282  C1299   1.430   .     S
O1283  C1287   1.280   .     A
O1283  Zn1289  1.972   .     S
O1284  C1288   1.280   .     A
O1284  Zn1290  1.972   .     S
O1285  Zn1290  1.984   .     S
O1285  C1287   1.295   .     A
O1286  C1288   1.295   .     A
O1286  Zn1289  1.984   .     S
C1287  C1293   1.412   .     S
C1288  C1294   1.412   .     S
Zn1289 N1291   2.031   .     S
Zn1290 N1292   2.031   .     S
N1291  C1303   1.377   .     A
N1291  C1302   1.369   .     A
N1292  C1304   1.377   .     A
N1292  C1301   1.369   .     A
C1294  C1351   1.354   .     S
C1294  N1366   1.445   .     S
C1295  N1311   1.428   .     S
C1295  C1300   1.406   .     A
C1296  N1314   1.428   .     S
C1296  C1299   1.406   .     A
C1296  C1472   1.382   .     S
C1297  N1317   1.440   .     S
C1297  C1299   1.406   .     A
C1297  C1469   1.382   .     S
C1298  C1300   1.406   .     A
C1298  N1320   1.440   .     S
C1301  N1323   1.430   .     S
C1302  N1326   1.430   .     S
C1302  C260    1.429   1_556 S
C1303  N1329   1.432   .     S
C1303  C257    1.429   1_556 S
C1304  N1332   1.432   .     S
N1305  O1306   1.299   .     A
N1305  O1307   1.302   .     A
N1305  C1351   1.445   .     S
N1308  O1309   1.299   .     A
N1308  O1310   1.302   .     A
N1311  O1313   1.301   .     A
N1311  O1312   1.301   .     A
N1314  O1316   1.301   .     A
N1314  O1315   1.301   .     A
N1317  O1318   1.301   .     A
N1317  O1319   1.301   .     A
N1320  O1321   1.301   .     A
N1320  O1322   1.301   .     A
N1323  O1324   1.300   .     A
N1323  O1325   1.300   .     A
N1326  O1327   1.300   .     A
N1326  O1328   1.300   .     A
N1329  H1331   1.044   .     S
N1329  H1330   1.035   .     S
N1332  H1333   1.035   .     S
N1332  H1334   1.044   .     S
O1335  C1339   1.294   .     A
O1335  Zn1347  1.991   .     S
O1336  C1340   1.294   .     A
O1336  Zn1348  1.991   .     S
O1337  Zn1348  2.024   .     S
O1337  C1339   1.292   .     A
O1338  C1340   1.292   .     A
O1338  Zn1347  2.024   .     S
C1339  C1358   1.430   .     S
C1340  C1357   1.430   .     S
O1341  C1345   1.280   .     A
O1341  Zn1347  1.972   .     S
O1342  C1346   1.280   .     A
O1342  Zn1348  1.972   .     S
O1343  Zn1348  1.984   .     S
O1343  C1345   1.295   .     A
O1344  C1346   1.295   .     A
O1344  Zn1347  1.984   .     S
C1345  C1351   1.412   .     S
C1346  C1352   1.412   .     S
Zn1347 N1349   2.031   .     S
Zn1348 N1350   2.031   .     S
N1349  C1361   1.377   .     A
N1349  C1360   1.369   .     A
N1350  C1362   1.377   .     A
N1350  C1359   1.369   .     A
C1352  C1235   1.354   1_655 S
C1352  N1250   1.445   1_655 S
C1353  N1369   1.428   .     S
C1353  C1358   1.406   .     A
C1354  N1372   1.428   .     S
C1354  C1357   1.406   .     A
C1354  C1530   1.382   .     S
C1355  N1375   1.440   .     S
C1355  C1357   1.406   .     A
C1355  C1527   1.382   .     S
C1356  C1358   1.406   .     A
C1356  N1378   1.440   .     S
C1359  N1381   1.430   .     S
C1360  N1384   1.430   .     S
C1360  C318    1.429   1_556 S
C1361  N1387   1.432   .     S
C1361  C315    1.429   1_556 S
C1362  N1390   1.432   .     S
N1363  O1364   1.299   .     A
N1363  O1365   1.302   .     A
N1363  C1235   1.445   1_655 S
N1366  O1367   1.299   .     A
N1366  O1368   1.302   .     A
N1369  O1371   1.301   .     A
N1369  O1370   1.301   .     A
N1372  O1374   1.301   .     A
N1372  O1373   1.301   .     A
N1375  O1376   1.301   .     A
N1375  O1377   1.301   .     A
N1378  O1379   1.301   .     A
N1378  O1380   1.301   .     A
N1381  O1382   1.300   .     A
N1381  O1383   1.300   .     A
N1384  O1385   1.300   .     A
N1384  O1386   1.300   .     A
N1387  H1389   1.044   .     S
N1387  H1388   1.035   .     S
N1390  H1391   1.035   .     S
N1390  H1392   1.044   .     S
O1393  C1397   1.294   .     A
O1393  Zn1405  1.991   .     S
O1394  C1398   1.294   .     A
O1394  Zn1406  1.991   .     S
O1395  Zn1406  2.024   .     S
O1395  C1397   1.292   .     A
O1396  C1398   1.292   .     A
O1396  Zn1405  2.024   .     S
C1397  C1416   1.430   .     S
C1398  C1415   1.430   .     S
O1399  C1403   1.280   .     A
O1399  Zn1405  1.972   .     S
O1400  C1404   1.280   .     A
O1400  Zn1406  1.972   .     S
O1401  Zn1406  1.984   .     S
O1401  C1403   1.295   .     A
O1402  C1404   1.295   .     A
O1402  Zn1405  1.984   .     S
C1403  C1409   1.412   .     S
C1404  C1410   1.412   .     S
Zn1405 N1407   2.031   .     S
Zn1406 N1408   2.031   .     S
N1407  C1419   1.377   .     A
N1407  C1418   1.369   .     A
N1408  C1420   1.377   .     A
N1408  C1417   1.369   .     A
C1409  C1526   1.354   1_455 S
C1409  N1537   1.445   1_455 S
C1410  C1467   1.354   .     S
C1410  N1482   1.445   .     S
C1411  N1427   1.428   .     S
C1411  C1416   1.406   .     A
C1412  N1430   1.428   .     S
C1412  C1415   1.406   .     A
C1412  C1066   1.382   1_565 S
C1413  N1433   1.440   .     S
C1413  C1415   1.406   .     A
C1413  C1063   1.382   1_565 S
C1414  C1416   1.406   .     A
C1414  N1436   1.440   .     S
C1417  N1439   1.430   .     S
C1418  N1442   1.430   .     S
C1418  C376    1.429   1_556 S
C1419  N1445   1.432   .     S
C1419  C373    1.429   1_556 S
C1420  N1448   1.432   .     S
N1421  O1422   1.299   .     A
N1421  O1423   1.302   .     A
N1421  C1467   1.445   .     S
N1424  O1425   1.299   .     A
N1424  O1426   1.302   .     A
N1424  C1526   1.445   1_455 S
N1427  O1429   1.301   .     A
N1427  O1428   1.301   .     A
N1430  O1432   1.301   .     A
N1430  O1431   1.301   .     A
N1433  O1434   1.301   .     A
N1433  O1435   1.301   .     A
N1436  O1437   1.301   .     A
N1436  O1438   1.301   .     A
N1439  O1440   1.300   .     A
N1439  O1441   1.300   .     A
N1442  O1443   1.300   .     A
N1442  O1444   1.300   .     A
N1445  H1447   1.044   .     S
N1445  H1446   1.035   .     S
N1448  H1449   1.035   .     S
N1448  H1450   1.044   .     S
O1451  C1455   1.294   .     A
O1451  Zn1463  1.991   .     S
O1452  C1456   1.294   .     A
O1452  Zn1464  1.991   .     S
O1453  Zn1464  2.024   .     S
O1453  C1455   1.292   .     A
O1454  C1456   1.292   .     A
O1454  Zn1463  2.024   .     S
C1455  C1474   1.430   .     S
C1456  C1473   1.430   .     S
O1457  C1461   1.280   .     A
O1457  Zn1463  1.972   .     S
O1458  C1462   1.280   .     A
O1458  Zn1464  1.972   .     S
O1459  Zn1464  1.984   .     S
O1459  C1461   1.295   .     A
O1460  C1462   1.295   .     A
O1460  Zn1463  1.984   .     S
C1461  C1467   1.412   .     S
C1462  C1468   1.412   .     S
Zn1463 N1465   2.031   .     S
Zn1464 N1466   2.031   .     S
N1465  C1477   1.377   .     A
N1465  C1476   1.369   .     A
N1466  C1478   1.377   .     A
N1466  C1475   1.369   .     A
C1468  C1525   1.354   .     S
C1468  N1540   1.445   .     S
C1469  N1485   1.428   .     S
C1469  C1474   1.406   .     A
C1470  N1488   1.428   .     S
C1470  C1473   1.406   .     A
C1470  C1124   1.382   1_565 S
C1471  N1491   1.440   .     S
C1471  C1473   1.406   .     A
C1471  C1121   1.382   1_565 S
C1472  C1474   1.406   .     A
C1472  N1494   1.440   .     S
C1475  N1497   1.430   .     S
C1476  N1500   1.430   .     S
C1476  C434    1.429   1_556 S
C1477  N1503   1.432   .     S
C1477  C431    1.429   1_556 S
C1478  N1506   1.432   .     S
N1479  O1480   1.299   .     A
N1479  O1481   1.302   .     A
N1479  C1525   1.445   .     S
N1482  O1483   1.299   .     A
N1482  O1484   1.302   .     A
N1485  O1487   1.301   .     A
N1485  O1486   1.301   .     A
N1488  O1490   1.301   .     A
N1488  O1489   1.301   .     A
N1491  O1492   1.301   .     A
N1491  O1493   1.301   .     A
N1494  O1495   1.301   .     A
N1494  O1496   1.301   .     A
N1497  O1498   1.300   .     A
N1497  O1499   1.300   .     A
N1500  O1501   1.300   .     A
N1500  O1502   1.300   .     A
N1503  H1505   1.044   .     S
N1503  H1504   1.035   .     S
N1506  H1507   1.035   .     S
N1506  H1508   1.044   .     S
O1509  C1513   1.294   .     A
O1509  Zn1521  1.991   .     S
O1510  C1514   1.294   .     A
O1510  Zn1522  1.991   .     S
O1511  Zn1522  2.024   .     S
O1511  C1513   1.292   .     A
O1512  C1514   1.292   .     A
O1512  Zn1521  2.024   .     S
C1513  C1532   1.430   .     S
C1514  C1531   1.430   .     S
O1515  C1519   1.280   .     A
O1515  Zn1521  1.972   .     S
O1516  C1520   1.280   .     A
O1516  Zn1522  1.972   .     S
O1517  Zn1522  1.984   .     S
O1517  C1519   1.295   .     A
O1518  C1520   1.295   .     A
O1518  Zn1521  1.984   .     S
C1519  C1525   1.412   .     S
C1520  C1526   1.412   .     S
Zn1521 N1523   2.031   .     S
Zn1522 N1524   2.031   .     S
N1523  C1535   1.377   .     A
N1523  C1534   1.369   .     A
N1524  C1536   1.377   .     A
N1524  C1533   1.369   .     A
C1526  C1409   1.354   1_655 S
C1526  N1424   1.445   1_655 S
C1527  N1543   1.428   .     S
C1527  C1532   1.406   .     A
C1528  N1546   1.428   .     S
C1528  C1531   1.406   .     A
C1528  C1182   1.382   1_565 S
C1529  N1549   1.440   .     S
C1529  C1531   1.406   .     A
C1529  C1179   1.382   1_565 S
C1530  C1532   1.406   .     A
C1530  N1552   1.440   .     S
C1533  N1555   1.430   .     S
C1534  N1558   1.430   .     S
C1534  C492    1.429   1_556 S
C1535  N1561   1.432   .     S
C1535  C489    1.429   1_556 S
C1536  N1564   1.432   .     S
N1537  O1538   1.299   .     A
N1537  O1539   1.302   .     A
N1537  C1409   1.445   1_655 S
N1540  O1541   1.299   .     A
N1540  O1542   1.302   .     A
N1543  O1545   1.301   .     A
N1543  O1544   1.301   .     A
N1546  O1548   1.301   .     A
N1546  O1547   1.301   .     A
N1549  O1550   1.301   .     A
N1549  O1551   1.301   .     A
N1552  O1553   1.301   .     A
N1552  O1554   1.301   .     A
N1555  O1556   1.300   .     A
N1555  O1557   1.300   .     A
N1558  O1559   1.300   .     A
N1558  O1560   1.300   .     A
N1561  H1563   1.044   .     S
N1561  H1562   1.035   .     S
N1564  H1565   1.035   .     S
N1564  H1566   1.044   .     S
