data_str_m2_o1_o18_pcu_sym.121
_audit_creation_date              2020-01-03
_audit_creation_method            'Materials Studio'
_symmetry_space_group_name_H-M    'P1'
_symmetry_Int_Tables_number       1
_symmetry_cell_setting            triclinic
loop_
_symmetry_equiv_pos_as_xyz
  x,y,z
_cell_length_a                    28.5697
_cell_length_b                    32.4505
_cell_length_c                    31.1036
_cell_angle_alpha                 89.6284
_cell_angle_beta                  73.9042
_cell_angle_gamma                 89.9591
loop_
_atom_site_label
_atom_site_type_symbol
_atom_site_fract_x
_atom_site_fract_y
_atom_site_fract_z
_atom_site_U_iso_or_equiv
_atom_site_adp_type
_atom_site_occupancy
O1     O     0.03958   0.10655   0.25000   0.00000  Uiso   1.00
O2     O     0.29375   0.22678   0.25000   0.00000  Uiso   1.00
O3     O     0.29372   0.10654   0.25000   0.00000  Uiso   1.00
O4     O     0.03961   0.22679   0.24999   0.00000  Uiso   1.00
C5     C     0.00025   0.08741   0.24944   0.00000  Uiso   1.00
C6     C     0.33310   0.24593   0.25049   0.00000  Uiso   1.00
O7     O     0.01852   0.16668   0.31491   0.00000  Uiso   1.00
O8     O     0.31481   0.16666   0.18508   0.00000  Uiso   1.00
O9     O     0.27267   0.16667   0.31492   0.00000  Uiso   1.00
O10    O     0.06067   0.16667   0.18508   0.00000  Uiso   1.00
C11    C     0.30573   0.16609   0.33619   0.00000  Uiso   1.00
C12    C     0.02747   0.16755   0.16406   0.00000  Uiso   1.00
Cu13   Cu    0.04689   0.16667   0.25000   0.00000  Uiso   1.00
Cu14   Cu    0.28645   0.16666   0.25000   0.00000  Uiso   1.00
C15    C     0.29017   0.16572   0.38560   0.00000  Uiso   1.00
C16    C     0.04323   0.17499   0.11575   0.00000  Uiso   1.00
C17    C     0.31057   0.16028   0.45641   0.00000  Uiso   1.00
C18    C     0.03267   0.21212   0.05114   0.00000  Uiso   1.00
C19    C     0.32496   0.16302   0.40962   0.00000  Uiso   1.00
C20    C     0.01434   0.19864   0.09538   0.00000  Uiso   1.00
C21    C     0.24032   0.16696   0.40897   0.00000  Uiso   1.00
C22    C     0.08999   0.16270   0.09134   0.00000  Uiso   1.00
C23    C     0.22620   0.17254   0.45587   0.00000  Uiso   1.00
C24    C     0.11130   0.18013   0.04853   0.00000  Uiso   1.00
C25    C     0.26120   0.16593   0.47979   0.00000  Uiso   1.00
C26    C     0.08095   0.20236   0.02727   0.00000  Uiso   1.00
C27    C     0.17795   0.18364   0.47967   0.00000  Uiso   1.00
C28    C     0.16176   0.17634   0.02625   0.00000  Uiso   1.00
C29    C     0.19699   0.16896   0.04948   0.00000  Uiso   1.00
C30    C     0.14682   0.20478   0.45891   0.00000  Uiso   1.00
C31    C     0.24608   0.16493   0.02663   0.00000  Uiso   1.00
C32    C     0.09958   0.21497   0.48269   0.00000  Uiso   1.00
H33    H     0.27199   0.16019   0.04587   0.00000  Uiso   1.00
H34    H     0.07740   0.23216   0.46569   0.00000  Uiso   1.00
H35    H     0.31113   0.20743   0.11405   0.00000  Uiso   1.00
H36    H     0.03007   0.16154   0.39213   0.00000  Uiso   1.00
H37    H     0.18744   0.16853   0.08563   0.00000  Uiso   1.00
H38    H     0.15954   0.21571   0.42473   0.00000  Uiso   1.00
C39    C     0.29046   0.02182   0.26875   0.00000  Uiso   1.00
C40    C     0.04289   0.31151   0.23103   0.00000  Uiso   1.00
H41    H     0.25767   0.03878   0.28476   0.00000  Uiso   1.00
H42    H     0.07567   0.29453   0.21501   0.00000  Uiso   1.00
C43    C     0.28919   0.31227   0.26912   0.00000  Uiso   1.00
C44    C     0.04415   0.02108   0.23064   0.00000  Uiso   1.00
C45    C     0.33272   0.29055   0.25068   0.00000  Uiso   1.00
C46    C     0.00063   0.04278   0.24915   0.00000  Uiso   1.00
C47    C     0.18330   0.14028   0.27742   0.00000  Uiso   1.00
C48    C     0.15010   0.19284   0.22232   0.00000  Uiso   1.00
C49    C     0.13342   0.14061   0.27737   0.00000  Uiso   1.00
C50    C     0.19993   0.19267   0.22256   0.00000  Uiso   1.00
H51    H     0.10761   0.11990   0.29911   0.00000  Uiso   1.00
H52    H     0.22576   0.21332   0.20075   0.00000  Uiso   1.00
N53    N     0.11736   0.16668   0.24999   0.00000  Uiso   1.00
N54    N     0.21597   0.16666   0.25001   0.00000  Uiso   1.00
O55    O     0.11199   0.13145   0.10902   0.00000  Uiso   1.00
H56    H     0.13110   0.11438   0.08393   0.00000  Uiso   1.00
O57    O     0.20630   0.15918   0.38595   0.00000  Uiso   1.00
H58    H     0.17898   0.14342   0.40590   0.00000  Uiso   1.00
O59    O     0.01193   0.15582   0.47949   0.00000  Uiso   1.00
C60    C     0.02960   0.11505   0.47472   0.00000  Uiso   1.00
H61    H     0.05080   0.10869   0.43962   0.00000  Uiso   1.00
H62    H     0.33280   0.09229   0.48624   0.00000  Uiso   1.00
H63    H     0.05464   0.11102   0.49606   0.00000  Uiso   1.00
O64    O     0.00285   0.23388   0.03085   0.00000  Uiso   1.00
C65    C     0.00084   0.27523   0.04488   0.00000  Uiso   1.00
H66    H     0.03782   0.28937   0.03648   0.00000  Uiso   1.00
H67    H     0.31598   0.27796   0.08134   0.00000  Uiso   1.00
H68    H     0.31223   0.29303   0.02686   0.00000  Uiso   1.00
O69    O     0.24703   0.29140   0.29142   0.00000  Uiso   1.00
C70    C     0.21080   0.29809   0.26916   0.00000  Uiso   1.00
H71    H     0.18069   0.27587   0.28250   0.00000  Uiso   1.00
H72    H     0.22476   0.29265   0.23247   0.00000  Uiso   1.00
H73    H     0.19526   0.32957   0.27571   0.00000  Uiso   1.00
O74    O     0.08627   0.04197   0.20826   0.00000  Uiso   1.00
C75    C     0.12268   0.03517   0.23028   0.00000  Uiso   1.00
H76    H     0.10889   0.04043   0.26702   0.00000  Uiso   1.00
H77    H     0.15272   0.05745   0.21695   0.00000  Uiso   1.00
H78    H     0.13826   0.00372   0.22348   0.00000  Uiso   1.00
O79    O     0.19962   0.11348   0.30464   0.00000  Uiso   1.00
H80    H     0.17190   0.09646   0.32199   0.00000  Uiso   1.00
O81    O     0.13393   0.21910   0.19451   0.00000  Uiso   1.00
H82    H     0.16172   0.23592   0.17691   0.00000  Uiso   1.00
O83    O     0.37291   0.10655   0.25000   0.00000  Uiso   1.00
O84    O     0.62709   0.22678   0.25000   0.00000  Uiso   1.00
O85    O     0.62706   0.10654   0.25000   0.00000  Uiso   1.00
O86    O     0.37294   0.22679   0.24999   0.00000  Uiso   1.00
C87    C     0.33359   0.08741   0.24944   0.00000  Uiso   1.00
C88    C     0.66643   0.24593   0.25049   0.00000  Uiso   1.00
O89    O     0.35186   0.16668   0.31491   0.00000  Uiso   1.00
O90    O     0.64814   0.16666   0.18508   0.00000  Uiso   1.00
O91    O     0.60600   0.16667   0.31492   0.00000  Uiso   1.00
O92    O     0.39400   0.16667   0.18508   0.00000  Uiso   1.00
C93    C     0.63907   0.16609   0.33619   0.00000  Uiso   1.00
C94    C     0.36080   0.16755   0.16406   0.00000  Uiso   1.00
Cu95   Cu    0.38022   0.16667   0.25000   0.00000  Uiso   1.00
Cu96   Cu    0.61978   0.16666   0.25000   0.00000  Uiso   1.00
C97    C     0.62350   0.16572   0.38560   0.00000  Uiso   1.00
C98    C     0.37656   0.17499   0.11575   0.00000  Uiso   1.00
C99    C     0.64391   0.16028   0.45641   0.00000  Uiso   1.00
C100   C     0.36600   0.21212   0.05114   0.00000  Uiso   1.00
C101   C     0.65829   0.16302   0.40962   0.00000  Uiso   1.00
C102   C     0.34768   0.19864   0.09538   0.00000  Uiso   1.00
C103   C     0.57365   0.16696   0.40897   0.00000  Uiso   1.00
C104   C     0.42332   0.16270   0.09134   0.00000  Uiso   1.00
C105   C     0.55953   0.17254   0.45587   0.00000  Uiso   1.00
C106   C     0.44463   0.18013   0.04853   0.00000  Uiso   1.00
C107   C     0.59453   0.16593   0.47979   0.00000  Uiso   1.00
C108   C     0.41428   0.20236   0.02727   0.00000  Uiso   1.00
C109   C     0.51128   0.18364   0.47967   0.00000  Uiso   1.00
C110   C     0.49509   0.17634   0.02625   0.00000  Uiso   1.00
C111   C     0.53033   0.16896   0.04948   0.00000  Uiso   1.00
C112   C     0.48016   0.20478   0.45891   0.00000  Uiso   1.00
C113   C     0.57942   0.16493   0.02663   0.00000  Uiso   1.00
C114   C     0.43291   0.21497   0.48269   0.00000  Uiso   1.00
H115   H     0.60532   0.16019   0.04587   0.00000  Uiso   1.00
H116   H     0.41074   0.23216   0.46569   0.00000  Uiso   1.00
H117   H     0.64446   0.20743   0.11405   0.00000  Uiso   1.00
H118   H     0.36340   0.16154   0.39213   0.00000  Uiso   1.00
H119   H     0.52077   0.16853   0.08563   0.00000  Uiso   1.00
H120   H     0.49287   0.21571   0.42473   0.00000  Uiso   1.00
C121   C     0.62380   0.02182   0.26875   0.00000  Uiso   1.00
C122   C     0.37622   0.31151   0.23103   0.00000  Uiso   1.00
H123   H     0.59100   0.03878   0.28476   0.00000  Uiso   1.00
H124   H     0.40901   0.29453   0.21501   0.00000  Uiso   1.00
C125   C     0.62253   0.31227   0.26912   0.00000  Uiso   1.00
C126   C     0.37749   0.02108   0.23064   0.00000  Uiso   1.00
C127   C     0.66606   0.29055   0.25068   0.00000  Uiso   1.00
C128   C     0.33397   0.04278   0.24915   0.00000  Uiso   1.00
C129   C     0.51663   0.14028   0.27742   0.00000  Uiso   1.00
C130   C     0.48343   0.19284   0.22232   0.00000  Uiso   1.00
C131   C     0.46676   0.14061   0.27737   0.00000  Uiso   1.00
C132   C     0.53326   0.19267   0.22256   0.00000  Uiso   1.00
H133   H     0.44095   0.11990   0.29911   0.00000  Uiso   1.00
H134   H     0.55909   0.21332   0.20075   0.00000  Uiso   1.00
N135   N     0.45069   0.16668   0.24999   0.00000  Uiso   1.00
N136   N     0.54931   0.16666   0.25001   0.00000  Uiso   1.00
O137   O     0.44532   0.13145   0.10902   0.00000  Uiso   1.00
H138   H     0.46443   0.11438   0.08393   0.00000  Uiso   1.00
O139   O     0.53964   0.15918   0.38595   0.00000  Uiso   1.00
H140   H     0.51232   0.14342   0.40590   0.00000  Uiso   1.00
O141   O     0.34526   0.15582   0.47949   0.00000  Uiso   1.00
C142   C     0.36293   0.11505   0.47472   0.00000  Uiso   1.00
H143   H     0.38413   0.10869   0.43962   0.00000  Uiso   1.00
H144   H     0.66613   0.09229   0.48624   0.00000  Uiso   1.00
H145   H     0.38797   0.11102   0.49606   0.00000  Uiso   1.00
O146   O     0.33618   0.23388   0.03085   0.00000  Uiso   1.00
C147   C     0.33417   0.27523   0.04488   0.00000  Uiso   1.00
H148   H     0.37116   0.28937   0.03648   0.00000  Uiso   1.00
H149   H     0.64931   0.27796   0.08134   0.00000  Uiso   1.00
H150   H     0.64557   0.29303   0.02686   0.00000  Uiso   1.00
O151   O     0.58036   0.29140   0.29142   0.00000  Uiso   1.00
C152   C     0.54414   0.29809   0.26916   0.00000  Uiso   1.00
H153   H     0.51403   0.27587   0.28250   0.00000  Uiso   1.00
H154   H     0.55810   0.29265   0.23247   0.00000  Uiso   1.00
H155   H     0.52860   0.32957   0.27571   0.00000  Uiso   1.00
O156   O     0.41961   0.04197   0.20826   0.00000  Uiso   1.00
C157   C     0.45601   0.03517   0.23028   0.00000  Uiso   1.00
H158   H     0.44223   0.04043   0.26702   0.00000  Uiso   1.00
H159   H     0.48605   0.05745   0.21695   0.00000  Uiso   1.00
H160   H     0.47159   0.00372   0.22348   0.00000  Uiso   1.00
O161   O     0.53296   0.11348   0.30464   0.00000  Uiso   1.00
H162   H     0.50524   0.09646   0.32199   0.00000  Uiso   1.00
O163   O     0.46727   0.21910   0.19451   0.00000  Uiso   1.00
H164   H     0.49505   0.23592   0.17691   0.00000  Uiso   1.00
O165   O     0.70625   0.10655   0.25000   0.00000  Uiso   1.00
O166   O     0.96042   0.22678   0.25000   0.00000  Uiso   1.00
O167   O     0.96039   0.10654   0.25000   0.00000  Uiso   1.00
O168   O     0.70628   0.22679   0.24999   0.00000  Uiso   1.00
C169   C     0.66692   0.08741   0.24944   0.00000  Uiso   1.00
C170   C     0.99976   0.24593   0.25049   0.00000  Uiso   1.00
O171   O     0.68519   0.16668   0.31491   0.00000  Uiso   1.00
O172   O     0.98148   0.16666   0.18508   0.00000  Uiso   1.00
O173   O     0.93933   0.16667   0.31492   0.00000  Uiso   1.00
O174   O     0.72733   0.16667   0.18508   0.00000  Uiso   1.00
C175   C     0.97240   0.16609   0.33619   0.00000  Uiso   1.00
C176   C     0.69414   0.16755   0.16406   0.00000  Uiso   1.00
Cu177  Cu    0.71355   0.16667   0.25000   0.00000  Uiso   1.00
Cu178  Cu    0.95311   0.16666   0.25000   0.00000  Uiso   1.00
C179   C     0.95684   0.16572   0.38560   0.00000  Uiso   1.00
C180   C     0.70990   0.17499   0.11575   0.00000  Uiso   1.00
C181   C     0.97724   0.16028   0.45641   0.00000  Uiso   1.00
C182   C     0.69933   0.21212   0.05114   0.00000  Uiso   1.00
C183   C     0.99162   0.16302   0.40962   0.00000  Uiso   1.00
C184   C     0.68101   0.19864   0.09538   0.00000  Uiso   1.00
C185   C     0.90698   0.16696   0.40897   0.00000  Uiso   1.00
C186   C     0.75665   0.16270   0.09134   0.00000  Uiso   1.00
C187   C     0.89286   0.17254   0.45587   0.00000  Uiso   1.00
C188   C     0.77797   0.18013   0.04853   0.00000  Uiso   1.00
C189   C     0.92786   0.16593   0.47979   0.00000  Uiso   1.00
C190   C     0.74762   0.20236   0.02727   0.00000  Uiso   1.00
C191   C     0.84462   0.18364   0.47967   0.00000  Uiso   1.00
C192   C     0.82842   0.17634   0.02625   0.00000  Uiso   1.00
C193   C     0.86366   0.16896   0.04948   0.00000  Uiso   1.00
C194   C     0.81349   0.20478   0.45891   0.00000  Uiso   1.00
C195   C     0.91275   0.16493   0.02663   0.00000  Uiso   1.00
C196   C     0.76624   0.21497   0.48269   0.00000  Uiso   1.00
H197   H     0.93865   0.16019   0.04587   0.00000  Uiso   1.00
H198   H     0.74407   0.23216   0.46569   0.00000  Uiso   1.00
H199   H     0.97779   0.20743   0.11405   0.00000  Uiso   1.00
H200   H     0.69673   0.16154   0.39213   0.00000  Uiso   1.00
H201   H     0.85411   0.16853   0.08563   0.00000  Uiso   1.00
H202   H     0.82621   0.21571   0.42473   0.00000  Uiso   1.00
C203   C     0.95713   0.02182   0.26875   0.00000  Uiso   1.00
C204   C     0.70956   0.31151   0.23103   0.00000  Uiso   1.00
H205   H     0.92433   0.03878   0.28476   0.00000  Uiso   1.00
H206   H     0.74234   0.29453   0.21501   0.00000  Uiso   1.00
C207   C     0.95586   0.31227   0.26912   0.00000  Uiso   1.00
C208   C     0.71082   0.02108   0.23064   0.00000  Uiso   1.00
C209   C     0.99939   0.29055   0.25068   0.00000  Uiso   1.00
C210   C     0.66730   0.04278   0.24915   0.00000  Uiso   1.00
C211   C     0.84996   0.14028   0.27742   0.00000  Uiso   1.00
C212   C     0.81677   0.19284   0.22232   0.00000  Uiso   1.00
C213   C     0.80009   0.14061   0.27737   0.00000  Uiso   1.00
C214   C     0.86659   0.19267   0.22256   0.00000  Uiso   1.00
H215   H     0.77428   0.11990   0.29911   0.00000  Uiso   1.00
H216   H     0.89243   0.21332   0.20075   0.00000  Uiso   1.00
N217   N     0.78403   0.16668   0.24999   0.00000  Uiso   1.00
N218   N     0.88264   0.16666   0.25001   0.00000  Uiso   1.00
O219   O     0.77866   0.13145   0.10902   0.00000  Uiso   1.00
H220   H     0.79776   0.11438   0.08393   0.00000  Uiso   1.00
O221   O     0.87297   0.15918   0.38595   0.00000  Uiso   1.00
H222   H     0.84565   0.14342   0.40590   0.00000  Uiso   1.00
O223   O     0.67859   0.15582   0.47949   0.00000  Uiso   1.00
C224   C     0.69627   0.11505   0.47472   0.00000  Uiso   1.00
H225   H     0.71746   0.10869   0.43962   0.00000  Uiso   1.00
H226   H     0.99946   0.09229   0.48624   0.00000  Uiso   1.00
H227   H     0.72131   0.11102   0.49606   0.00000  Uiso   1.00
O228   O     0.66951   0.23388   0.03085   0.00000  Uiso   1.00
C229   C     0.66750   0.27523   0.04488   0.00000  Uiso   1.00
H230   H     0.70449   0.28937   0.03648   0.00000  Uiso   1.00
H231   H     0.98265   0.27796   0.08134   0.00000  Uiso   1.00
H232   H     0.97890   0.29303   0.02686   0.00000  Uiso   1.00
O233   O     0.91369   0.29140   0.29142   0.00000  Uiso   1.00
C234   C     0.87747   0.29809   0.26916   0.00000  Uiso   1.00
H235   H     0.84736   0.27587   0.28250   0.00000  Uiso   1.00
H236   H     0.89143   0.29265   0.23247   0.00000  Uiso   1.00
H237   H     0.86193   0.32957   0.27571   0.00000  Uiso   1.00
O238   O     0.75294   0.04197   0.20826   0.00000  Uiso   1.00
C239   C     0.78934   0.03517   0.23028   0.00000  Uiso   1.00
H240   H     0.77556   0.04043   0.26702   0.00000  Uiso   1.00
H241   H     0.81938   0.05745   0.21695   0.00000  Uiso   1.00
H242   H     0.80493   0.00372   0.22348   0.00000  Uiso   1.00
O243   O     0.86629   0.11348   0.30464   0.00000  Uiso   1.00
H244   H     0.83857   0.09646   0.32199   0.00000  Uiso   1.00
O245   O     0.80060   0.21910   0.19451   0.00000  Uiso   1.00
H246   H     0.82839   0.23592   0.17691   0.00000  Uiso   1.00
O247   O     0.03958   0.43989   0.25000   0.00000  Uiso   1.00
O248   O     0.29375   0.56011   0.25000   0.00000  Uiso   1.00
O249   O     0.29372   0.43988   0.25000   0.00000  Uiso   1.00
O250   O     0.03961   0.56012   0.24999   0.00000  Uiso   1.00
C251   C     0.00025   0.42074   0.24944   0.00000  Uiso   1.00
C252   C     0.33310   0.57926   0.25049   0.00000  Uiso   1.00
O253   O     0.01852   0.50001   0.31491   0.00000  Uiso   1.00
O254   O     0.31481   0.49999   0.18508   0.00000  Uiso   1.00
O255   O     0.27267   0.50000   0.31492   0.00000  Uiso   1.00
O256   O     0.06067   0.50000   0.18508   0.00000  Uiso   1.00
C257   C     0.30573   0.49942   0.33619   0.00000  Uiso   1.00
C258   C     0.02747   0.50088   0.16406   0.00000  Uiso   1.00
Cu259  Cu    0.04689   0.50001   0.25000   0.00000  Uiso   1.00
Cu260  Cu    0.28645   0.49999   0.25000   0.00000  Uiso   1.00
C261   C     0.29017   0.49905   0.38560   0.00000  Uiso   1.00
C262   C     0.04323   0.50832   0.11575   0.00000  Uiso   1.00
C263   C     0.31057   0.49361   0.45641   0.00000  Uiso   1.00
C264   C     0.03267   0.54545   0.05114   0.00000  Uiso   1.00
C265   C     0.32496   0.49635   0.40962   0.00000  Uiso   1.00
C266   C     0.01434   0.53197   0.09538   0.00000  Uiso   1.00
C267   C     0.24032   0.50029   0.40897   0.00000  Uiso   1.00
C268   C     0.08999   0.49604   0.09134   0.00000  Uiso   1.00
C269   C     0.22620   0.50587   0.45587   0.00000  Uiso   1.00
C270   C     0.11130   0.51347   0.04853   0.00000  Uiso   1.00
C271   C     0.26120   0.49927   0.47979   0.00000  Uiso   1.00
C272   C     0.08095   0.53570   0.02727   0.00000  Uiso   1.00
C273   C     0.17795   0.51697   0.47967   0.00000  Uiso   1.00
C274   C     0.16176   0.50967   0.02625   0.00000  Uiso   1.00
C275   C     0.19699   0.50229   0.04948   0.00000  Uiso   1.00
C276   C     0.14682   0.53811   0.45891   0.00000  Uiso   1.00
C277   C     0.24608   0.49827   0.02663   0.00000  Uiso   1.00
C278   C     0.09958   0.54830   0.48269   0.00000  Uiso   1.00
H279   H     0.27199   0.49352   0.04587   0.00000  Uiso   1.00
H280   H     0.07740   0.56549   0.46569   0.00000  Uiso   1.00
H281   H     0.31113   0.54076   0.11405   0.00000  Uiso   1.00
H282   H     0.03007   0.49488   0.39213   0.00000  Uiso   1.00
H283   H     0.18744   0.50186   0.08563   0.00000  Uiso   1.00
H284   H     0.15954   0.54905   0.42473   0.00000  Uiso   1.00
C285   C     0.29046   0.35515   0.26875   0.00000  Uiso   1.00
C286   C     0.04289   0.64485   0.23103   0.00000  Uiso   1.00
H287   H     0.25767   0.37212   0.28476   0.00000  Uiso   1.00
H288   H     0.07567   0.62787   0.21501   0.00000  Uiso   1.00
C289   C     0.28919   0.64560   0.26912   0.00000  Uiso   1.00
C290   C     0.04415   0.35441   0.23064   0.00000  Uiso   1.00
C291   C     0.33272   0.62388   0.25068   0.00000  Uiso   1.00
C292   C     0.00063   0.37612   0.24915   0.00000  Uiso   1.00
C293   C     0.18330   0.47361   0.27742   0.00000  Uiso   1.00
C294   C     0.15010   0.52618   0.22232   0.00000  Uiso   1.00
C295   C     0.13342   0.47395   0.27737   0.00000  Uiso   1.00
C296   C     0.19993   0.52600   0.22256   0.00000  Uiso   1.00
H297   H     0.10761   0.45324   0.29911   0.00000  Uiso   1.00
H298   H     0.22576   0.54665   0.20075   0.00000  Uiso   1.00
N299   N     0.11736   0.50001   0.24999   0.00000  Uiso   1.00
N300   N     0.21597   0.49999   0.25001   0.00000  Uiso   1.00
O301   O     0.11199   0.46478   0.10902   0.00000  Uiso   1.00
H302   H     0.13110   0.44772   0.08393   0.00000  Uiso   1.00
O303   O     0.20630   0.49251   0.38595   0.00000  Uiso   1.00
H304   H     0.17898   0.47675   0.40590   0.00000  Uiso   1.00
O305   O     0.01193   0.48916   0.47949   0.00000  Uiso   1.00
C306   C     0.02960   0.44839   0.47472   0.00000  Uiso   1.00
H307   H     0.05080   0.44202   0.43962   0.00000  Uiso   1.00
H308   H     0.33280   0.42562   0.48624   0.00000  Uiso   1.00
H309   H     0.05464   0.44435   0.49606   0.00000  Uiso   1.00
O310   O     0.00285   0.56721   0.03085   0.00000  Uiso   1.00
C311   C     0.00084   0.60857   0.04488   0.00000  Uiso   1.00
H312   H     0.03782   0.62270   0.03648   0.00000  Uiso   1.00
H313   H     0.31598   0.61129   0.08134   0.00000  Uiso   1.00
H314   H     0.31223   0.62637   0.02686   0.00000  Uiso   1.00
O315   O     0.24703   0.62473   0.29142   0.00000  Uiso   1.00
C316   C     0.21080   0.63142   0.26916   0.00000  Uiso   1.00
H317   H     0.18069   0.60921   0.28250   0.00000  Uiso   1.00
H318   H     0.22476   0.62598   0.23247   0.00000  Uiso   1.00
H319   H     0.19526   0.66290   0.27571   0.00000  Uiso   1.00
O320   O     0.08627   0.37530   0.20826   0.00000  Uiso   1.00
C321   C     0.12268   0.36850   0.23028   0.00000  Uiso   1.00
H322   H     0.10889   0.37377   0.26702   0.00000  Uiso   1.00
H323   H     0.15272   0.39078   0.21695   0.00000  Uiso   1.00
H324   H     0.13826   0.33706   0.22348   0.00000  Uiso   1.00
O325   O     0.19962   0.44682   0.30464   0.00000  Uiso   1.00
H326   H     0.17190   0.42979   0.32199   0.00000  Uiso   1.00
O327   O     0.13393   0.55244   0.19451   0.00000  Uiso   1.00
H328   H     0.16172   0.56925   0.17691   0.00000  Uiso   1.00
O329   O     0.37291   0.43989   0.25000   0.00000  Uiso   1.00
O330   O     0.62709   0.56011   0.25000   0.00000  Uiso   1.00
O331   O     0.62706   0.43988   0.25000   0.00000  Uiso   1.00
O332   O     0.37294   0.56012   0.24999   0.00000  Uiso   1.00
C333   C     0.33359   0.42074   0.24944   0.00000  Uiso   1.00
C334   C     0.66643   0.57926   0.25049   0.00000  Uiso   1.00
O335   O     0.35186   0.50001   0.31491   0.00000  Uiso   1.00
O336   O     0.64814   0.49999   0.18508   0.00000  Uiso   1.00
O337   O     0.60600   0.50000   0.31492   0.00000  Uiso   1.00
O338   O     0.39400   0.50000   0.18508   0.00000  Uiso   1.00
C339   C     0.63907   0.49942   0.33619   0.00000  Uiso   1.00
C340   C     0.36080   0.50088   0.16406   0.00000  Uiso   1.00
Cu341  Cu    0.38022   0.50001   0.25000   0.00000  Uiso   1.00
Cu342  Cu    0.61978   0.49999   0.25000   0.00000  Uiso   1.00
C343   C     0.62350   0.49905   0.38560   0.00000  Uiso   1.00
C344   C     0.37656   0.50832   0.11575   0.00000  Uiso   1.00
C345   C     0.64391   0.49361   0.45641   0.00000  Uiso   1.00
C346   C     0.36600   0.54545   0.05114   0.00000  Uiso   1.00
C347   C     0.65829   0.49635   0.40962   0.00000  Uiso   1.00
C348   C     0.34768   0.53197   0.09538   0.00000  Uiso   1.00
C349   C     0.57365   0.50029   0.40897   0.00000  Uiso   1.00
C350   C     0.42332   0.49604   0.09134   0.00000  Uiso   1.00
C351   C     0.55953   0.50587   0.45587   0.00000  Uiso   1.00
C352   C     0.44463   0.51347   0.04853   0.00000  Uiso   1.00
C353   C     0.59453   0.49927   0.47979   0.00000  Uiso   1.00
C354   C     0.41428   0.53570   0.02727   0.00000  Uiso   1.00
C355   C     0.51128   0.51697   0.47967   0.00000  Uiso   1.00
C356   C     0.49509   0.50967   0.02625   0.00000  Uiso   1.00
C357   C     0.53033   0.50229   0.04948   0.00000  Uiso   1.00
C358   C     0.48016   0.53811   0.45891   0.00000  Uiso   1.00
C359   C     0.57942   0.49827   0.02663   0.00000  Uiso   1.00
C360   C     0.43291   0.54830   0.48269   0.00000  Uiso   1.00
H361   H     0.60532   0.49352   0.04587   0.00000  Uiso   1.00
H362   H     0.41074   0.56549   0.46569   0.00000  Uiso   1.00
H363   H     0.64446   0.54076   0.11405   0.00000  Uiso   1.00
H364   H     0.36340   0.49488   0.39213   0.00000  Uiso   1.00
H365   H     0.52077   0.50186   0.08563   0.00000  Uiso   1.00
H366   H     0.49287   0.54905   0.42473   0.00000  Uiso   1.00
C367   C     0.62380   0.35515   0.26875   0.00000  Uiso   1.00
C368   C     0.37622   0.64485   0.23103   0.00000  Uiso   1.00
H369   H     0.59100   0.37212   0.28476   0.00000  Uiso   1.00
H370   H     0.40901   0.62787   0.21501   0.00000  Uiso   1.00
C371   C     0.62253   0.64560   0.26912   0.00000  Uiso   1.00
C372   C     0.37749   0.35441   0.23064   0.00000  Uiso   1.00
C373   C     0.66606   0.62388   0.25068   0.00000  Uiso   1.00
C374   C     0.33397   0.37612   0.24915   0.00000  Uiso   1.00
C375   C     0.51663   0.47361   0.27742   0.00000  Uiso   1.00
C376   C     0.48343   0.52618   0.22232   0.00000  Uiso   1.00
C377   C     0.46676   0.47395   0.27737   0.00000  Uiso   1.00
C378   C     0.53326   0.52600   0.22256   0.00000  Uiso   1.00
H379   H     0.44095   0.45324   0.29911   0.00000  Uiso   1.00
H380   H     0.55909   0.54665   0.20075   0.00000  Uiso   1.00
N381   N     0.45069   0.50001   0.24999   0.00000  Uiso   1.00
N382   N     0.54931   0.49999   0.25001   0.00000  Uiso   1.00
O383   O     0.44532   0.46478   0.10902   0.00000  Uiso   1.00
H384   H     0.46443   0.44772   0.08393   0.00000  Uiso   1.00
O385   O     0.53964   0.49251   0.38595   0.00000  Uiso   1.00
H386   H     0.51232   0.47675   0.40590   0.00000  Uiso   1.00
O387   O     0.34526   0.48916   0.47949   0.00000  Uiso   1.00
C388   C     0.36293   0.44839   0.47472   0.00000  Uiso   1.00
H389   H     0.38413   0.44202   0.43962   0.00000  Uiso   1.00
H390   H     0.66613   0.42562   0.48624   0.00000  Uiso   1.00
H391   H     0.38797   0.44435   0.49606   0.00000  Uiso   1.00
O392   O     0.33618   0.56721   0.03085   0.00000  Uiso   1.00
C393   C     0.33417   0.60857   0.04488   0.00000  Uiso   1.00
H394   H     0.37116   0.62270   0.03648   0.00000  Uiso   1.00
H395   H     0.64931   0.61129   0.08134   0.00000  Uiso   1.00
H396   H     0.64557   0.62637   0.02686   0.00000  Uiso   1.00
O397   O     0.58036   0.62473   0.29142   0.00000  Uiso   1.00
C398   C     0.54414   0.63142   0.26916   0.00000  Uiso   1.00
H399   H     0.51403   0.60921   0.28250   0.00000  Uiso   1.00
H400   H     0.55810   0.62598   0.23247   0.00000  Uiso   1.00
H401   H     0.52860   0.66290   0.27571   0.00000  Uiso   1.00
O402   O     0.41961   0.37530   0.20826   0.00000  Uiso   1.00
C403   C     0.45601   0.36850   0.23028   0.00000  Uiso   1.00
H404   H     0.44223   0.37377   0.26702   0.00000  Uiso   1.00
H405   H     0.48605   0.39078   0.21695   0.00000  Uiso   1.00
H406   H     0.47159   0.33706   0.22348   0.00000  Uiso   1.00
O407   O     0.53296   0.44682   0.30464   0.00000  Uiso   1.00
H408   H     0.50524   0.42979   0.32199   0.00000  Uiso   1.00
O409   O     0.46727   0.55244   0.19451   0.00000  Uiso   1.00
H410   H     0.49505   0.56925   0.17691   0.00000  Uiso   1.00
O411   O     0.70625   0.43989   0.25000   0.00000  Uiso   1.00
O412   O     0.96042   0.56011   0.25000   0.00000  Uiso   1.00
O413   O     0.96039   0.43988   0.25000   0.00000  Uiso   1.00
O414   O     0.70628   0.56012   0.24999   0.00000  Uiso   1.00
C415   C     0.66692   0.42074   0.24944   0.00000  Uiso   1.00
C416   C     0.99976   0.57926   0.25049   0.00000  Uiso   1.00
O417   O     0.68519   0.50001   0.31491   0.00000  Uiso   1.00
O418   O     0.98148   0.49999   0.18508   0.00000  Uiso   1.00
O419   O     0.93933   0.50000   0.31492   0.00000  Uiso   1.00
O420   O     0.72733   0.50000   0.18508   0.00000  Uiso   1.00
C421   C     0.97240   0.49942   0.33619   0.00000  Uiso   1.00
C422   C     0.69414   0.50088   0.16406   0.00000  Uiso   1.00
Cu423  Cu    0.71355   0.50001   0.25000   0.00000  Uiso   1.00
Cu424  Cu    0.95311   0.49999   0.25000   0.00000  Uiso   1.00
C425   C     0.95684   0.49905   0.38560   0.00000  Uiso   1.00
C426   C     0.70990   0.50832   0.11575   0.00000  Uiso   1.00
C427   C     0.97724   0.49361   0.45641   0.00000  Uiso   1.00
C428   C     0.69933   0.54545   0.05114   0.00000  Uiso   1.00
C429   C     0.99162   0.49635   0.40962   0.00000  Uiso   1.00
C430   C     0.68101   0.53197   0.09538   0.00000  Uiso   1.00
C431   C     0.90698   0.50029   0.40897   0.00000  Uiso   1.00
C432   C     0.75665   0.49604   0.09134   0.00000  Uiso   1.00
C433   C     0.89286   0.50587   0.45587   0.00000  Uiso   1.00
C434   C     0.77797   0.51347   0.04853   0.00000  Uiso   1.00
C435   C     0.92786   0.49927   0.47979   0.00000  Uiso   1.00
C436   C     0.74762   0.53570   0.02727   0.00000  Uiso   1.00
C437   C     0.84462   0.51697   0.47967   0.00000  Uiso   1.00
C438   C     0.82842   0.50967   0.02625   0.00000  Uiso   1.00
C439   C     0.86366   0.50229   0.04948   0.00000  Uiso   1.00
C440   C     0.81349   0.53811   0.45891   0.00000  Uiso   1.00
C441   C     0.91275   0.49827   0.02663   0.00000  Uiso   1.00
C442   C     0.76624   0.54830   0.48269   0.00000  Uiso   1.00
H443   H     0.93865   0.49352   0.04587   0.00000  Uiso   1.00
H444   H     0.74407   0.56549   0.46569   0.00000  Uiso   1.00
H445   H     0.97779   0.54076   0.11405   0.00000  Uiso   1.00
H446   H     0.69673   0.49488   0.39213   0.00000  Uiso   1.00
H447   H     0.85411   0.50186   0.08563   0.00000  Uiso   1.00
H448   H     0.82621   0.54905   0.42473   0.00000  Uiso   1.00
C449   C     0.95713   0.35515   0.26875   0.00000  Uiso   1.00
C450   C     0.70956   0.64485   0.23103   0.00000  Uiso   1.00
H451   H     0.92433   0.37212   0.28476   0.00000  Uiso   1.00
H452   H     0.74234   0.62787   0.21501   0.00000  Uiso   1.00
C453   C     0.95586   0.64560   0.26912   0.00000  Uiso   1.00
C454   C     0.71082   0.35441   0.23064   0.00000  Uiso   1.00
C455   C     0.99939   0.62388   0.25068   0.00000  Uiso   1.00
C456   C     0.66730   0.37612   0.24915   0.00000  Uiso   1.00
C457   C     0.84996   0.47361   0.27742   0.00000  Uiso   1.00
C458   C     0.81677   0.52618   0.22232   0.00000  Uiso   1.00
C459   C     0.80009   0.47395   0.27737   0.00000  Uiso   1.00
C460   C     0.86659   0.52600   0.22256   0.00000  Uiso   1.00
H461   H     0.77428   0.45324   0.29911   0.00000  Uiso   1.00
H462   H     0.89243   0.54665   0.20075   0.00000  Uiso   1.00
N463   N     0.78403   0.50001   0.24999   0.00000  Uiso   1.00
N464   N     0.88264   0.49999   0.25001   0.00000  Uiso   1.00
O465   O     0.77866   0.46478   0.10902   0.00000  Uiso   1.00
H466   H     0.79776   0.44772   0.08393   0.00000  Uiso   1.00
O467   O     0.87297   0.49251   0.38595   0.00000  Uiso   1.00
H468   H     0.84565   0.47675   0.40590   0.00000  Uiso   1.00
O469   O     0.67859   0.48916   0.47949   0.00000  Uiso   1.00
C470   C     0.69627   0.44839   0.47472   0.00000  Uiso   1.00
H471   H     0.71746   0.44202   0.43962   0.00000  Uiso   1.00
H472   H     0.99946   0.42562   0.48624   0.00000  Uiso   1.00
H473   H     0.72131   0.44435   0.49606   0.00000  Uiso   1.00
O474   O     0.66951   0.56721   0.03085   0.00000  Uiso   1.00
C475   C     0.66750   0.60857   0.04488   0.00000  Uiso   1.00
H476   H     0.70449   0.62270   0.03648   0.00000  Uiso   1.00
H477   H     0.98265   0.61129   0.08134   0.00000  Uiso   1.00
H478   H     0.97890   0.62637   0.02686   0.00000  Uiso   1.00
O479   O     0.91369   0.62473   0.29142   0.00000  Uiso   1.00
C480   C     0.87747   0.63142   0.26916   0.00000  Uiso   1.00
H481   H     0.84736   0.60921   0.28250   0.00000  Uiso   1.00
H482   H     0.89143   0.62598   0.23247   0.00000  Uiso   1.00
H483   H     0.86193   0.66290   0.27571   0.00000  Uiso   1.00
O484   O     0.75294   0.37530   0.20826   0.00000  Uiso   1.00
C485   C     0.78934   0.36850   0.23028   0.00000  Uiso   1.00
H486   H     0.77556   0.37377   0.26702   0.00000  Uiso   1.00
H487   H     0.81938   0.39078   0.21695   0.00000  Uiso   1.00
H488   H     0.80493   0.33706   0.22348   0.00000  Uiso   1.00
O489   O     0.86629   0.44682   0.30464   0.00000  Uiso   1.00
H490   H     0.83857   0.42979   0.32199   0.00000  Uiso   1.00
O491   O     0.80060   0.55244   0.19451   0.00000  Uiso   1.00
H492   H     0.82839   0.56925   0.17691   0.00000  Uiso   1.00
O493   O     0.03958   0.77322   0.25000   0.00000  Uiso   1.00
O494   O     0.29375   0.89345   0.25000   0.00000  Uiso   1.00
O495   O     0.29372   0.77321   0.25000   0.00000  Uiso   1.00
O496   O     0.03961   0.89346   0.24999   0.00000  Uiso   1.00
C497   C     0.00025   0.75407   0.24944   0.00000  Uiso   1.00
C498   C     0.33310   0.91260   0.25049   0.00000  Uiso   1.00
O499   O     0.01852   0.83334   0.31491   0.00000  Uiso   1.00
O500   O     0.31481   0.83332   0.18508   0.00000  Uiso   1.00
O501   O     0.27267   0.83333   0.31492   0.00000  Uiso   1.00
O502   O     0.06067   0.83333   0.18508   0.00000  Uiso   1.00
C503   C     0.30573   0.83275   0.33619   0.00000  Uiso   1.00
C504   C     0.02747   0.83421   0.16406   0.00000  Uiso   1.00
Cu505  Cu    0.04689   0.83334   0.25000   0.00000  Uiso   1.00
Cu506  Cu    0.28645   0.83333   0.25000   0.00000  Uiso   1.00
C507   C     0.29017   0.83238   0.38560   0.00000  Uiso   1.00
C508   C     0.04323   0.84165   0.11575   0.00000  Uiso   1.00
C509   C     0.31057   0.82694   0.45641   0.00000  Uiso   1.00
C510   C     0.03267   0.87879   0.05114   0.00000  Uiso   1.00
C511   C     0.32496   0.82968   0.40962   0.00000  Uiso   1.00
C512   C     0.01434   0.86531   0.09538   0.00000  Uiso   1.00
C513   C     0.24032   0.83363   0.40897   0.00000  Uiso   1.00
C514   C     0.08999   0.82937   0.09134   0.00000  Uiso   1.00
C515   C     0.22620   0.83921   0.45587   0.00000  Uiso   1.00
C516   C     0.11130   0.84680   0.04853   0.00000  Uiso   1.00
C517   C     0.26120   0.83260   0.47979   0.00000  Uiso   1.00
C518   C     0.08095   0.86903   0.02727   0.00000  Uiso   1.00
C519   C     0.17795   0.85030   0.47967   0.00000  Uiso   1.00
C520   C     0.16176   0.84301   0.02625   0.00000  Uiso   1.00
C521   C     0.19699   0.83563   0.04948   0.00000  Uiso   1.00
C522   C     0.14682   0.87144   0.45891   0.00000  Uiso   1.00
C523   C     0.24608   0.83160   0.02663   0.00000  Uiso   1.00
C524   C     0.09958   0.88164   0.48269   0.00000  Uiso   1.00
H525   H     0.27199   0.82685   0.04587   0.00000  Uiso   1.00
H526   H     0.07740   0.89883   0.46569   0.00000  Uiso   1.00
H527   H     0.31113   0.87409   0.11405   0.00000  Uiso   1.00
H528   H     0.03007   0.82821   0.39213   0.00000  Uiso   1.00
H529   H     0.18744   0.83520   0.08563   0.00000  Uiso   1.00
H530   H     0.15954   0.88238   0.42473   0.00000  Uiso   1.00
C531   C     0.29046   0.68848   0.26875   0.00000  Uiso   1.00
C532   C     0.04289   0.97818   0.23103   0.00000  Uiso   1.00
H533   H     0.25767   0.70545   0.28476   0.00000  Uiso   1.00
H534   H     0.07567   0.96120   0.21501   0.00000  Uiso   1.00
C535   C     0.28919   0.97893   0.26912   0.00000  Uiso   1.00
C536   C     0.04415   0.68774   0.23064   0.00000  Uiso   1.00
C537   C     0.33272   0.95722   0.25068   0.00000  Uiso   1.00
C538   C     0.00063   0.70945   0.24915   0.00000  Uiso   1.00
C539   C     0.18330   0.80695   0.27742   0.00000  Uiso   1.00
C540   C     0.15010   0.85951   0.22232   0.00000  Uiso   1.00
C541   C     0.13342   0.80728   0.27737   0.00000  Uiso   1.00
C542   C     0.19993   0.85933   0.22256   0.00000  Uiso   1.00
H543   H     0.10761   0.78657   0.29911   0.00000  Uiso   1.00
H544   H     0.22576   0.87998   0.20075   0.00000  Uiso   1.00
N545   N     0.11736   0.83334   0.24999   0.00000  Uiso   1.00
N546   N     0.21597   0.83332   0.25001   0.00000  Uiso   1.00
O547   O     0.11199   0.79812   0.10902   0.00000  Uiso   1.00
H548   H     0.13110   0.78105   0.08393   0.00000  Uiso   1.00
O549   O     0.20630   0.82584   0.38595   0.00000  Uiso   1.00
H550   H     0.17898   0.81009   0.40590   0.00000  Uiso   1.00
O551   O     0.01193   0.82249   0.47949   0.00000  Uiso   1.00
C552   C     0.02960   0.78172   0.47472   0.00000  Uiso   1.00
H553   H     0.05080   0.77536   0.43962   0.00000  Uiso   1.00
H554   H     0.33280   0.75895   0.48624   0.00000  Uiso   1.00
H555   H     0.05464   0.77769   0.49606   0.00000  Uiso   1.00
O556   O     0.00285   0.90055   0.03085   0.00000  Uiso   1.00
C557   C     0.00084   0.94190   0.04488   0.00000  Uiso   1.00
H558   H     0.03782   0.95603   0.03648   0.00000  Uiso   1.00
H559   H     0.31598   0.94462   0.08134   0.00000  Uiso   1.00
H560   H     0.31223   0.95970   0.02686   0.00000  Uiso   1.00
O561   O     0.24703   0.95807   0.29142   0.00000  Uiso   1.00
C562   C     0.21080   0.96475   0.26916   0.00000  Uiso   1.00
H563   H     0.18069   0.94254   0.28250   0.00000  Uiso   1.00
H564   H     0.22476   0.95931   0.23247   0.00000  Uiso   1.00
H565   H     0.19526   0.99623   0.27571   0.00000  Uiso   1.00
O566   O     0.08627   0.70864   0.20826   0.00000  Uiso   1.00
C567   C     0.12268   0.70184   0.23028   0.00000  Uiso   1.00
H568   H     0.10889   0.70710   0.26702   0.00000  Uiso   1.00
H569   H     0.15272   0.72412   0.21695   0.00000  Uiso   1.00
H570   H     0.13826   0.67039   0.22348   0.00000  Uiso   1.00
O571   O     0.19962   0.78015   0.30464   0.00000  Uiso   1.00
H572   H     0.17190   0.76313   0.32199   0.00000  Uiso   1.00
O573   O     0.13393   0.88577   0.19451   0.00000  Uiso   1.00
H574   H     0.16172   0.90259   0.17691   0.00000  Uiso   1.00
O575   O     0.37291   0.77322   0.25000   0.00000  Uiso   1.00
O576   O     0.62709   0.89345   0.25000   0.00000  Uiso   1.00
O577   O     0.62706   0.77321   0.25000   0.00000  Uiso   1.00
O578   O     0.37294   0.89346   0.24999   0.00000  Uiso   1.00
C579   C     0.33359   0.75407   0.24944   0.00000  Uiso   1.00
C580   C     0.66643   0.91260   0.25049   0.00000  Uiso   1.00
O581   O     0.35186   0.83334   0.31491   0.00000  Uiso   1.00
O582   O     0.64814   0.83332   0.18508   0.00000  Uiso   1.00
O583   O     0.60600   0.83333   0.31492   0.00000  Uiso   1.00
O584   O     0.39400   0.83333   0.18508   0.00000  Uiso   1.00
C585   C     0.63907   0.83275   0.33619   0.00000  Uiso   1.00
C586   C     0.36080   0.83421   0.16406   0.00000  Uiso   1.00
Cu587  Cu    0.38022   0.83334   0.25000   0.00000  Uiso   1.00
Cu588  Cu    0.61978   0.83333   0.25000   0.00000  Uiso   1.00
C589   C     0.62350   0.83238   0.38560   0.00000  Uiso   1.00
C590   C     0.37656   0.84165   0.11575   0.00000  Uiso   1.00
C591   C     0.64391   0.82694   0.45641   0.00000  Uiso   1.00
C592   C     0.36600   0.87879   0.05114   0.00000  Uiso   1.00
C593   C     0.65829   0.82968   0.40962   0.00000  Uiso   1.00
C594   C     0.34768   0.86531   0.09538   0.00000  Uiso   1.00
C595   C     0.57365   0.83363   0.40897   0.00000  Uiso   1.00
C596   C     0.42332   0.82937   0.09134   0.00000  Uiso   1.00
C597   C     0.55953   0.83921   0.45587   0.00000  Uiso   1.00
C598   C     0.44463   0.84680   0.04853   0.00000  Uiso   1.00
C599   C     0.59453   0.83260   0.47979   0.00000  Uiso   1.00
C600   C     0.41428   0.86903   0.02727   0.00000  Uiso   1.00
C601   C     0.51128   0.85030   0.47967   0.00000  Uiso   1.00
C602   C     0.49509   0.84301   0.02625   0.00000  Uiso   1.00
C603   C     0.53033   0.83563   0.04948   0.00000  Uiso   1.00
C604   C     0.48016   0.87144   0.45891   0.00000  Uiso   1.00
C605   C     0.57942   0.83160   0.02663   0.00000  Uiso   1.00
C606   C     0.43291   0.88164   0.48269   0.00000  Uiso   1.00
H607   H     0.60532   0.82685   0.04587   0.00000  Uiso   1.00
H608   H     0.41074   0.89883   0.46569   0.00000  Uiso   1.00
H609   H     0.64446   0.87409   0.11405   0.00000  Uiso   1.00
H610   H     0.36340   0.82821   0.39213   0.00000  Uiso   1.00
H611   H     0.52077   0.83520   0.08563   0.00000  Uiso   1.00
H612   H     0.49287   0.88238   0.42473   0.00000  Uiso   1.00
C613   C     0.62380   0.68848   0.26875   0.00000  Uiso   1.00
C614   C     0.37622   0.97818   0.23103   0.00000  Uiso   1.00
H615   H     0.59100   0.70545   0.28476   0.00000  Uiso   1.00
H616   H     0.40901   0.96120   0.21501   0.00000  Uiso   1.00
C617   C     0.62253   0.97893   0.26912   0.00000  Uiso   1.00
C618   C     0.37749   0.68774   0.23064   0.00000  Uiso   1.00
C619   C     0.66606   0.95722   0.25068   0.00000  Uiso   1.00
C620   C     0.33397   0.70945   0.24915   0.00000  Uiso   1.00
C621   C     0.51663   0.80695   0.27742   0.00000  Uiso   1.00
C622   C     0.48343   0.85951   0.22232   0.00000  Uiso   1.00
C623   C     0.46676   0.80728   0.27737   0.00000  Uiso   1.00
C624   C     0.53326   0.85933   0.22256   0.00000  Uiso   1.00
H625   H     0.44095   0.78657   0.29911   0.00000  Uiso   1.00
H626   H     0.55909   0.87998   0.20075   0.00000  Uiso   1.00
N627   N     0.45069   0.83334   0.24999   0.00000  Uiso   1.00
N628   N     0.54931   0.83332   0.25001   0.00000  Uiso   1.00
O629   O     0.44532   0.79812   0.10902   0.00000  Uiso   1.00
H630   H     0.46443   0.78105   0.08393   0.00000  Uiso   1.00
O631   O     0.53964   0.82584   0.38595   0.00000  Uiso   1.00
H632   H     0.51232   0.81009   0.40590   0.00000  Uiso   1.00
O633   O     0.34526   0.82249   0.47949   0.00000  Uiso   1.00
C634   C     0.36293   0.78172   0.47472   0.00000  Uiso   1.00
H635   H     0.38413   0.77536   0.43962   0.00000  Uiso   1.00
H636   H     0.66613   0.75895   0.48624   0.00000  Uiso   1.00
H637   H     0.38797   0.77769   0.49606   0.00000  Uiso   1.00
O638   O     0.33618   0.90055   0.03085   0.00000  Uiso   1.00
C639   C     0.33417   0.94190   0.04488   0.00000  Uiso   1.00
H640   H     0.37116   0.95603   0.03648   0.00000  Uiso   1.00
H641   H     0.64931   0.94462   0.08134   0.00000  Uiso   1.00
H642   H     0.64557   0.95970   0.02686   0.00000  Uiso   1.00
O643   O     0.58036   0.95807   0.29142   0.00000  Uiso   1.00
C644   C     0.54414   0.96475   0.26916   0.00000  Uiso   1.00
H645   H     0.51403   0.94254   0.28250   0.00000  Uiso   1.00
H646   H     0.55810   0.95931   0.23247   0.00000  Uiso   1.00
H647   H     0.52860   0.99623   0.27571   0.00000  Uiso   1.00
O648   O     0.41961   0.70864   0.20826   0.00000  Uiso   1.00
C649   C     0.45601   0.70184   0.23028   0.00000  Uiso   1.00
H650   H     0.44223   0.70710   0.26702   0.00000  Uiso   1.00
H651   H     0.48605   0.72412   0.21695   0.00000  Uiso   1.00
H652   H     0.47159   0.67039   0.22348   0.00000  Uiso   1.00
O653   O     0.53296   0.78015   0.30464   0.00000  Uiso   1.00
H654   H     0.50524   0.76313   0.32199   0.00000  Uiso   1.00
O655   O     0.46727   0.88577   0.19451   0.00000  Uiso   1.00
H656   H     0.49505   0.90259   0.17691   0.00000  Uiso   1.00
O657   O     0.70625   0.77322   0.25000   0.00000  Uiso   1.00
O658   O     0.96042   0.89345   0.25000   0.00000  Uiso   1.00
O659   O     0.96039   0.77321   0.25000   0.00000  Uiso   1.00
O660   O     0.70628   0.89346   0.24999   0.00000  Uiso   1.00
C661   C     0.66692   0.75407   0.24944   0.00000  Uiso   1.00
C662   C     0.99976   0.91260   0.25049   0.00000  Uiso   1.00
O663   O     0.68519   0.83334   0.31491   0.00000  Uiso   1.00
O664   O     0.98148   0.83332   0.18508   0.00000  Uiso   1.00
O665   O     0.93933   0.83333   0.31492   0.00000  Uiso   1.00
O666   O     0.72733   0.83333   0.18508   0.00000  Uiso   1.00
C667   C     0.97240   0.83275   0.33619   0.00000  Uiso   1.00
C668   C     0.69414   0.83421   0.16406   0.00000  Uiso   1.00
Cu669  Cu    0.71355   0.83334   0.25000   0.00000  Uiso   1.00
Cu670  Cu    0.95311   0.83333   0.25000   0.00000  Uiso   1.00
C671   C     0.95684   0.83238   0.38560   0.00000  Uiso   1.00
C672   C     0.70990   0.84165   0.11575   0.00000  Uiso   1.00
C673   C     0.97724   0.82694   0.45641   0.00000  Uiso   1.00
C674   C     0.69933   0.87879   0.05114   0.00000  Uiso   1.00
C675   C     0.99162   0.82968   0.40962   0.00000  Uiso   1.00
C676   C     0.68101   0.86531   0.09538   0.00000  Uiso   1.00
C677   C     0.90698   0.83363   0.40897   0.00000  Uiso   1.00
C678   C     0.75665   0.82937   0.09134   0.00000  Uiso   1.00
C679   C     0.89286   0.83921   0.45587   0.00000  Uiso   1.00
C680   C     0.77797   0.84680   0.04853   0.00000  Uiso   1.00
C681   C     0.92786   0.83260   0.47979   0.00000  Uiso   1.00
C682   C     0.74762   0.86903   0.02727   0.00000  Uiso   1.00
C683   C     0.84462   0.85030   0.47967   0.00000  Uiso   1.00
C684   C     0.82842   0.84301   0.02625   0.00000  Uiso   1.00
C685   C     0.86366   0.83563   0.04948   0.00000  Uiso   1.00
C686   C     0.81349   0.87144   0.45891   0.00000  Uiso   1.00
C687   C     0.91275   0.83160   0.02663   0.00000  Uiso   1.00
C688   C     0.76624   0.88164   0.48269   0.00000  Uiso   1.00
H689   H     0.93865   0.82685   0.04587   0.00000  Uiso   1.00
H690   H     0.74407   0.89883   0.46569   0.00000  Uiso   1.00
H691   H     0.97779   0.87409   0.11405   0.00000  Uiso   1.00
H692   H     0.69673   0.82821   0.39213   0.00000  Uiso   1.00
H693   H     0.85411   0.83520   0.08563   0.00000  Uiso   1.00
H694   H     0.82621   0.88238   0.42473   0.00000  Uiso   1.00
C695   C     0.95713   0.68848   0.26875   0.00000  Uiso   1.00
C696   C     0.70956   0.97818   0.23103   0.00000  Uiso   1.00
H697   H     0.92433   0.70545   0.28476   0.00000  Uiso   1.00
H698   H     0.74234   0.96120   0.21501   0.00000  Uiso   1.00
C699   C     0.95586   0.97893   0.26912   0.00000  Uiso   1.00
C700   C     0.71082   0.68774   0.23064   0.00000  Uiso   1.00
C701   C     0.99939   0.95722   0.25068   0.00000  Uiso   1.00
C702   C     0.66730   0.70945   0.24915   0.00000  Uiso   1.00
C703   C     0.84996   0.80695   0.27742   0.00000  Uiso   1.00
C704   C     0.81677   0.85951   0.22232   0.00000  Uiso   1.00
C705   C     0.80009   0.80728   0.27737   0.00000  Uiso   1.00
C706   C     0.86659   0.85933   0.22256   0.00000  Uiso   1.00
H707   H     0.77428   0.78657   0.29911   0.00000  Uiso   1.00
H708   H     0.89243   0.87998   0.20075   0.00000  Uiso   1.00
N709   N     0.78403   0.83334   0.24999   0.00000  Uiso   1.00
N710   N     0.88264   0.83332   0.25001   0.00000  Uiso   1.00
O711   O     0.77866   0.79812   0.10902   0.00000  Uiso   1.00
H712   H     0.79776   0.78105   0.08393   0.00000  Uiso   1.00
O713   O     0.87297   0.82584   0.38595   0.00000  Uiso   1.00
H714   H     0.84565   0.81009   0.40590   0.00000  Uiso   1.00
O715   O     0.67859   0.82249   0.47949   0.00000  Uiso   1.00
C716   C     0.69627   0.78172   0.47472   0.00000  Uiso   1.00
H717   H     0.71746   0.77536   0.43962   0.00000  Uiso   1.00
H718   H     0.99946   0.75895   0.48624   0.00000  Uiso   1.00
H719   H     0.72131   0.77769   0.49606   0.00000  Uiso   1.00
O720   O     0.66951   0.90055   0.03085   0.00000  Uiso   1.00
C721   C     0.66750   0.94190   0.04488   0.00000  Uiso   1.00
H722   H     0.70449   0.95603   0.03648   0.00000  Uiso   1.00
H723   H     0.98265   0.94462   0.08134   0.00000  Uiso   1.00
H724   H     0.97890   0.95970   0.02686   0.00000  Uiso   1.00
O725   O     0.91369   0.95807   0.29142   0.00000  Uiso   1.00
C726   C     0.87747   0.96475   0.26916   0.00000  Uiso   1.00
H727   H     0.84736   0.94254   0.28250   0.00000  Uiso   1.00
H728   H     0.89143   0.95931   0.23247   0.00000  Uiso   1.00
H729   H     0.86193   0.99623   0.27571   0.00000  Uiso   1.00
O730   O     0.75294   0.70864   0.20826   0.00000  Uiso   1.00
C731   C     0.78934   0.70184   0.23028   0.00000  Uiso   1.00
H732   H     0.77556   0.70710   0.26702   0.00000  Uiso   1.00
H733   H     0.81938   0.72412   0.21695   0.00000  Uiso   1.00
H734   H     0.80493   0.67039   0.22348   0.00000  Uiso   1.00
O735   O     0.86629   0.78015   0.30464   0.00000  Uiso   1.00
H736   H     0.83857   0.76313   0.32199   0.00000  Uiso   1.00
O737   O     0.80060   0.88577   0.19451   0.00000  Uiso   1.00
H738   H     0.82839   0.90259   0.17691   0.00000  Uiso   1.00
O739   O     0.03958   0.10655   0.75000   0.00000  Uiso   1.00
O740   O     0.29375   0.22678   0.75000   0.00000  Uiso   1.00
O741   O     0.29372   0.10654   0.75000   0.00000  Uiso   1.00
O742   O     0.03961   0.22679   0.74999   0.00000  Uiso   1.00
C743   C     0.00025   0.08741   0.74944   0.00000  Uiso   1.00
C744   C     0.33310   0.24593   0.75049   0.00000  Uiso   1.00
O745   O     0.01852   0.16668   0.81491   0.00000  Uiso   1.00
O746   O     0.31481   0.16666   0.68508   0.00000  Uiso   1.00
O747   O     0.27267   0.16667   0.81492   0.00000  Uiso   1.00
O748   O     0.06067   0.16667   0.68508   0.00000  Uiso   1.00
C749   C     0.30573   0.16609   0.83619   0.00000  Uiso   1.00
C750   C     0.02747   0.16755   0.66406   0.00000  Uiso   1.00
Cu751  Cu    0.04689   0.16667   0.75000   0.00000  Uiso   1.00
Cu752  Cu    0.28645   0.16666   0.75000   0.00000  Uiso   1.00
C753   C     0.29017   0.16572   0.88560   0.00000  Uiso   1.00
C754   C     0.04323   0.17499   0.61575   0.00000  Uiso   1.00
C755   C     0.31057   0.16028   0.95641   0.00000  Uiso   1.00
C756   C     0.03267   0.21212   0.55114   0.00000  Uiso   1.00
C757   C     0.32496   0.16302   0.90962   0.00000  Uiso   1.00
C758   C     0.01434   0.19864   0.59538   0.00000  Uiso   1.00
C759   C     0.24032   0.16696   0.90897   0.00000  Uiso   1.00
C760   C     0.08999   0.16270   0.59134   0.00000  Uiso   1.00
C761   C     0.22620   0.17254   0.95587   0.00000  Uiso   1.00
C762   C     0.11130   0.18013   0.54853   0.00000  Uiso   1.00
C763   C     0.26120   0.16593   0.97979   0.00000  Uiso   1.00
C764   C     0.08095   0.20236   0.52727   0.00000  Uiso   1.00
C765   C     0.17795   0.18364   0.97967   0.00000  Uiso   1.00
C766   C     0.16176   0.17634   0.52625   0.00000  Uiso   1.00
C767   C     0.19699   0.16896   0.54948   0.00000  Uiso   1.00
C768   C     0.14682   0.20478   0.95891   0.00000  Uiso   1.00
C769   C     0.24608   0.16493   0.52663   0.00000  Uiso   1.00
C770   C     0.09958   0.21497   0.98269   0.00000  Uiso   1.00
H771   H     0.27199   0.16019   0.54587   0.00000  Uiso   1.00
H772   H     0.07740   0.23216   0.96569   0.00000  Uiso   1.00
H773   H     0.31113   0.20743   0.61405   0.00000  Uiso   1.00
H774   H     0.03007   0.16154   0.89213   0.00000  Uiso   1.00
H775   H     0.18744   0.16853   0.58563   0.00000  Uiso   1.00
H776   H     0.15954   0.21571   0.92473   0.00000  Uiso   1.00
C777   C     0.29046   0.02182   0.76875   0.00000  Uiso   1.00
C778   C     0.04289   0.31151   0.73103   0.00000  Uiso   1.00
H779   H     0.25767   0.03878   0.78476   0.00000  Uiso   1.00
H780   H     0.07567   0.29453   0.71501   0.00000  Uiso   1.00
C781   C     0.28919   0.31227   0.76912   0.00000  Uiso   1.00
C782   C     0.04415   0.02108   0.73064   0.00000  Uiso   1.00
C783   C     0.33272   0.29055   0.75068   0.00000  Uiso   1.00
C784   C     0.00063   0.04278   0.74915   0.00000  Uiso   1.00
C785   C     0.18330   0.14028   0.77742   0.00000  Uiso   1.00
C786   C     0.15010   0.19284   0.72232   0.00000  Uiso   1.00
C787   C     0.13342   0.14061   0.77737   0.00000  Uiso   1.00
C788   C     0.19993   0.19267   0.72256   0.00000  Uiso   1.00
H789   H     0.10761   0.11990   0.79911   0.00000  Uiso   1.00
H790   H     0.22576   0.21332   0.70075   0.00000  Uiso   1.00
N791   N     0.11736   0.16668   0.74999   0.00000  Uiso   1.00
N792   N     0.21597   0.16666   0.75001   0.00000  Uiso   1.00
O793   O     0.11199   0.13145   0.60902   0.00000  Uiso   1.00
H794   H     0.13110   0.11438   0.58393   0.00000  Uiso   1.00
O795   O     0.20630   0.15918   0.88595   0.00000  Uiso   1.00
H796   H     0.17898   0.14342   0.90590   0.00000  Uiso   1.00
O797   O     0.01193   0.15582   0.97949   0.00000  Uiso   1.00
C798   C     0.02960   0.11505   0.97472   0.00000  Uiso   1.00
H799   H     0.05080   0.10869   0.93962   0.00000  Uiso   1.00
H800   H     0.33280   0.09229   0.98624   0.00000  Uiso   1.00
H801   H     0.05464   0.11102   0.99606   0.00000  Uiso   1.00
O802   O     0.00285   0.23388   0.53085   0.00000  Uiso   1.00
C803   C     0.00084   0.27523   0.54488   0.00000  Uiso   1.00
H804   H     0.03782   0.28937   0.53648   0.00000  Uiso   1.00
H805   H     0.31598   0.27796   0.58134   0.00000  Uiso   1.00
H806   H     0.31223   0.29303   0.52686   0.00000  Uiso   1.00
O807   O     0.24703   0.29140   0.79142   0.00000  Uiso   1.00
C808   C     0.21080   0.29809   0.76916   0.00000  Uiso   1.00
H809   H     0.18069   0.27587   0.78250   0.00000  Uiso   1.00
H810   H     0.22476   0.29265   0.73247   0.00000  Uiso   1.00
H811   H     0.19526   0.32957   0.77571   0.00000  Uiso   1.00
O812   O     0.08627   0.04197   0.70826   0.00000  Uiso   1.00
C813   C     0.12268   0.03517   0.73028   0.00000  Uiso   1.00
H814   H     0.10889   0.04043   0.76702   0.00000  Uiso   1.00
H815   H     0.15272   0.05745   0.71695   0.00000  Uiso   1.00
H816   H     0.13826   0.00372   0.72348   0.00000  Uiso   1.00
O817   O     0.19962   0.11348   0.80464   0.00000  Uiso   1.00
H818   H     0.17190   0.09646   0.82199   0.00000  Uiso   1.00
O819   O     0.13393   0.21910   0.69451   0.00000  Uiso   1.00
H820   H     0.16172   0.23592   0.67691   0.00000  Uiso   1.00
O821   O     0.37291   0.10655   0.75000   0.00000  Uiso   1.00
O822   O     0.62709   0.22678   0.75000   0.00000  Uiso   1.00
O823   O     0.62706   0.10654   0.75000   0.00000  Uiso   1.00
O824   O     0.37294   0.22679   0.74999   0.00000  Uiso   1.00
C825   C     0.33359   0.08741   0.74944   0.00000  Uiso   1.00
C826   C     0.66643   0.24593   0.75049   0.00000  Uiso   1.00
O827   O     0.35186   0.16668   0.81491   0.00000  Uiso   1.00
O828   O     0.64814   0.16666   0.68508   0.00000  Uiso   1.00
O829   O     0.60600   0.16667   0.81492   0.00000  Uiso   1.00
O830   O     0.39400   0.16667   0.68508   0.00000  Uiso   1.00
C831   C     0.63907   0.16609   0.83619   0.00000  Uiso   1.00
C832   C     0.36080   0.16755   0.66406   0.00000  Uiso   1.00
Cu833  Cu    0.38022   0.16667   0.75000   0.00000  Uiso   1.00
Cu834  Cu    0.61978   0.16666   0.75000   0.00000  Uiso   1.00
C835   C     0.62350   0.16572   0.88560   0.00000  Uiso   1.00
C836   C     0.37656   0.17499   0.61575   0.00000  Uiso   1.00
C837   C     0.64391   0.16028   0.95641   0.00000  Uiso   1.00
C838   C     0.36600   0.21212   0.55114   0.00000  Uiso   1.00
C839   C     0.65829   0.16302   0.90962   0.00000  Uiso   1.00
C840   C     0.34768   0.19864   0.59538   0.00000  Uiso   1.00
C841   C     0.57365   0.16696   0.90897   0.00000  Uiso   1.00
C842   C     0.42332   0.16270   0.59134   0.00000  Uiso   1.00
C843   C     0.55953   0.17254   0.95587   0.00000  Uiso   1.00
C844   C     0.44463   0.18013   0.54853   0.00000  Uiso   1.00
C845   C     0.59453   0.16593   0.97979   0.00000  Uiso   1.00
C846   C     0.41428   0.20236   0.52727   0.00000  Uiso   1.00
C847   C     0.51128   0.18364   0.97967   0.00000  Uiso   1.00
C848   C     0.49509   0.17634   0.52625   0.00000  Uiso   1.00
C849   C     0.53033   0.16896   0.54948   0.00000  Uiso   1.00
C850   C     0.48016   0.20478   0.95891   0.00000  Uiso   1.00
C851   C     0.57942   0.16493   0.52663   0.00000  Uiso   1.00
C852   C     0.43291   0.21497   0.98269   0.00000  Uiso   1.00
H853   H     0.60532   0.16019   0.54587   0.00000  Uiso   1.00
H854   H     0.41074   0.23216   0.96569   0.00000  Uiso   1.00
H855   H     0.64446   0.20743   0.61405   0.00000  Uiso   1.00
H856   H     0.36340   0.16154   0.89213   0.00000  Uiso   1.00
H857   H     0.52077   0.16853   0.58563   0.00000  Uiso   1.00
H858   H     0.49287   0.21571   0.92473   0.00000  Uiso   1.00
C859   C     0.62380   0.02182   0.76875   0.00000  Uiso   1.00
C860   C     0.37622   0.31151   0.73103   0.00000  Uiso   1.00
H861   H     0.59100   0.03878   0.78476   0.00000  Uiso   1.00
H862   H     0.40901   0.29453   0.71501   0.00000  Uiso   1.00
C863   C     0.62253   0.31227   0.76912   0.00000  Uiso   1.00
C864   C     0.37749   0.02108   0.73064   0.00000  Uiso   1.00
C865   C     0.66606   0.29055   0.75068   0.00000  Uiso   1.00
C866   C     0.33397   0.04278   0.74915   0.00000  Uiso   1.00
C867   C     0.51663   0.14028   0.77742   0.00000  Uiso   1.00
C868   C     0.48343   0.19284   0.72232   0.00000  Uiso   1.00
C869   C     0.46676   0.14061   0.77737   0.00000  Uiso   1.00
C870   C     0.53326   0.19267   0.72256   0.00000  Uiso   1.00
H871   H     0.44095   0.11990   0.79911   0.00000  Uiso   1.00
H872   H     0.55909   0.21332   0.70075   0.00000  Uiso   1.00
N873   N     0.45069   0.16668   0.74999   0.00000  Uiso   1.00
N874   N     0.54931   0.16666   0.75001   0.00000  Uiso   1.00
O875   O     0.44532   0.13145   0.60902   0.00000  Uiso   1.00
H876   H     0.46443   0.11438   0.58393   0.00000  Uiso   1.00
O877   O     0.53964   0.15918   0.88595   0.00000  Uiso   1.00
H878   H     0.51232   0.14342   0.90590   0.00000  Uiso   1.00
O879   O     0.34526   0.15582   0.97949   0.00000  Uiso   1.00
C880   C     0.36293   0.11505   0.97472   0.00000  Uiso   1.00
H881   H     0.38413   0.10869   0.93962   0.00000  Uiso   1.00
H882   H     0.66613   0.09229   0.98624   0.00000  Uiso   1.00
H883   H     0.38797   0.11102   0.99606   0.00000  Uiso   1.00
O884   O     0.33618   0.23388   0.53085   0.00000  Uiso   1.00
C885   C     0.33417   0.27523   0.54488   0.00000  Uiso   1.00
H886   H     0.37116   0.28937   0.53648   0.00000  Uiso   1.00
H887   H     0.64931   0.27796   0.58134   0.00000  Uiso   1.00
H888   H     0.64557   0.29303   0.52686   0.00000  Uiso   1.00
O889   O     0.58036   0.29140   0.79142   0.00000  Uiso   1.00
C890   C     0.54414   0.29809   0.76916   0.00000  Uiso   1.00
H891   H     0.51403   0.27587   0.78250   0.00000  Uiso   1.00
H892   H     0.55810   0.29265   0.73247   0.00000  Uiso   1.00
H893   H     0.52860   0.32957   0.77571   0.00000  Uiso   1.00
O894   O     0.41961   0.04197   0.70826   0.00000  Uiso   1.00
C895   C     0.45601   0.03517   0.73028   0.00000  Uiso   1.00
H896   H     0.44223   0.04043   0.76702   0.00000  Uiso   1.00
H897   H     0.48605   0.05745   0.71695   0.00000  Uiso   1.00
H898   H     0.47159   0.00372   0.72348   0.00000  Uiso   1.00
O899   O     0.53296   0.11348   0.80464   0.00000  Uiso   1.00
H900   H     0.50524   0.09646   0.82199   0.00000  Uiso   1.00
O901   O     0.46727   0.21910   0.69451   0.00000  Uiso   1.00
H902   H     0.49505   0.23592   0.67691   0.00000  Uiso   1.00
O903   O     0.70625   0.10655   0.75000   0.00000  Uiso   1.00
O904   O     0.96042   0.22678   0.75000   0.00000  Uiso   1.00
O905   O     0.96039   0.10654   0.75000   0.00000  Uiso   1.00
O906   O     0.70628   0.22679   0.74999   0.00000  Uiso   1.00
C907   C     0.66692   0.08741   0.74944   0.00000  Uiso   1.00
C908   C     0.99976   0.24593   0.75049   0.00000  Uiso   1.00
O909   O     0.68519   0.16668   0.81491   0.00000  Uiso   1.00
O910   O     0.98148   0.16666   0.68508   0.00000  Uiso   1.00
O911   O     0.93933   0.16667   0.81492   0.00000  Uiso   1.00
O912   O     0.72733   0.16667   0.68508   0.00000  Uiso   1.00
C913   C     0.97240   0.16609   0.83619   0.00000  Uiso   1.00
C914   C     0.69414   0.16755   0.66406   0.00000  Uiso   1.00
Cu915  Cu    0.71355   0.16667   0.75000   0.00000  Uiso   1.00
Cu916  Cu    0.95311   0.16666   0.75000   0.00000  Uiso   1.00
C917   C     0.95684   0.16572   0.88560   0.00000  Uiso   1.00
C918   C     0.70990   0.17499   0.61575   0.00000  Uiso   1.00
C919   C     0.97724   0.16028   0.95641   0.00000  Uiso   1.00
C920   C     0.69933   0.21212   0.55114   0.00000  Uiso   1.00
C921   C     0.99162   0.16302   0.90962   0.00000  Uiso   1.00
C922   C     0.68101   0.19864   0.59538   0.00000  Uiso   1.00
C923   C     0.90698   0.16696   0.90897   0.00000  Uiso   1.00
C924   C     0.75665   0.16270   0.59134   0.00000  Uiso   1.00
C925   C     0.89286   0.17254   0.95587   0.00000  Uiso   1.00
C926   C     0.77797   0.18013   0.54853   0.00000  Uiso   1.00
C927   C     0.92786   0.16593   0.97979   0.00000  Uiso   1.00
C928   C     0.74762   0.20236   0.52727   0.00000  Uiso   1.00
C929   C     0.84462   0.18364   0.97967   0.00000  Uiso   1.00
C930   C     0.82842   0.17634   0.52625   0.00000  Uiso   1.00
C931   C     0.86366   0.16896   0.54948   0.00000  Uiso   1.00
C932   C     0.81349   0.20478   0.95891   0.00000  Uiso   1.00
C933   C     0.91275   0.16493   0.52663   0.00000  Uiso   1.00
C934   C     0.76624   0.21497   0.98269   0.00000  Uiso   1.00
H935   H     0.93865   0.16019   0.54587   0.00000  Uiso   1.00
H936   H     0.74407   0.23216   0.96569   0.00000  Uiso   1.00
H937   H     0.97779   0.20743   0.61405   0.00000  Uiso   1.00
H938   H     0.69673   0.16154   0.89213   0.00000  Uiso   1.00
H939   H     0.85411   0.16853   0.58563   0.00000  Uiso   1.00
H940   H     0.82621   0.21571   0.92473   0.00000  Uiso   1.00
C941   C     0.95713   0.02182   0.76875   0.00000  Uiso   1.00
C942   C     0.70956   0.31151   0.73103   0.00000  Uiso   1.00
H943   H     0.92433   0.03878   0.78476   0.00000  Uiso   1.00
H944   H     0.74234   0.29453   0.71501   0.00000  Uiso   1.00
C945   C     0.95586   0.31227   0.76912   0.00000  Uiso   1.00
C946   C     0.71082   0.02108   0.73064   0.00000  Uiso   1.00
C947   C     0.99939   0.29055   0.75068   0.00000  Uiso   1.00
C948   C     0.66730   0.04278   0.74915   0.00000  Uiso   1.00
C949   C     0.84996   0.14028   0.77742   0.00000  Uiso   1.00
C950   C     0.81677   0.19284   0.72232   0.00000  Uiso   1.00
C951   C     0.80009   0.14061   0.77737   0.00000  Uiso   1.00
C952   C     0.86659   0.19267   0.72256   0.00000  Uiso   1.00
H953   H     0.77428   0.11990   0.79911   0.00000  Uiso   1.00
H954   H     0.89243   0.21332   0.70075   0.00000  Uiso   1.00
N955   N     0.78403   0.16668   0.74999   0.00000  Uiso   1.00
N956   N     0.88264   0.16666   0.75001   0.00000  Uiso   1.00
O957   O     0.77866   0.13145   0.60902   0.00000  Uiso   1.00
H958   H     0.79776   0.11438   0.58393   0.00000  Uiso   1.00
O959   O     0.87297   0.15918   0.88595   0.00000  Uiso   1.00
H960   H     0.84565   0.14342   0.90590   0.00000  Uiso   1.00
O961   O     0.67859   0.15582   0.97949   0.00000  Uiso   1.00
C962   C     0.69627   0.11505   0.97472   0.00000  Uiso   1.00
H963   H     0.71746   0.10869   0.93962   0.00000  Uiso   1.00
H964   H     0.99946   0.09229   0.98624   0.00000  Uiso   1.00
H965   H     0.72131   0.11102   0.99606   0.00000  Uiso   1.00
O966   O     0.66951   0.23388   0.53085   0.00000  Uiso   1.00
C967   C     0.66750   0.27523   0.54488   0.00000  Uiso   1.00
H968   H     0.70449   0.28937   0.53648   0.00000  Uiso   1.00
H969   H     0.98265   0.27796   0.58134   0.00000  Uiso   1.00
H970   H     0.97890   0.29303   0.52686   0.00000  Uiso   1.00
O971   O     0.91369   0.29140   0.79142   0.00000  Uiso   1.00
C972   C     0.87747   0.29809   0.76916   0.00000  Uiso   1.00
H973   H     0.84736   0.27587   0.78250   0.00000  Uiso   1.00
H974   H     0.89143   0.29265   0.73247   0.00000  Uiso   1.00
H975   H     0.86193   0.32957   0.77571   0.00000  Uiso   1.00
O976   O     0.75294   0.04197   0.70826   0.00000  Uiso   1.00
C977   C     0.78934   0.03517   0.73028   0.00000  Uiso   1.00
H978   H     0.77556   0.04043   0.76702   0.00000  Uiso   1.00
H979   H     0.81938   0.05745   0.71695   0.00000  Uiso   1.00
H980   H     0.80493   0.00372   0.72348   0.00000  Uiso   1.00
O981   O     0.86629   0.11348   0.80464   0.00000  Uiso   1.00
H982   H     0.83857   0.09646   0.82199   0.00000  Uiso   1.00
O983   O     0.80060   0.21910   0.69451   0.00000  Uiso   1.00
H984   H     0.82839   0.23592   0.67691   0.00000  Uiso   1.00
O985   O     0.03958   0.43989   0.75000   0.00000  Uiso   1.00
O986   O     0.29375   0.56011   0.75000   0.00000  Uiso   1.00
O987   O     0.29372   0.43988   0.75000   0.00000  Uiso   1.00
O988   O     0.03961   0.56012   0.74999   0.00000  Uiso   1.00
C989   C     0.00025   0.42074   0.74944   0.00000  Uiso   1.00
C990   C     0.33310   0.57926   0.75049   0.00000  Uiso   1.00
O991   O     0.01852   0.50001   0.81491   0.00000  Uiso   1.00
O992   O     0.31481   0.49999   0.68508   0.00000  Uiso   1.00
O993   O     0.27267   0.50000   0.81492   0.00000  Uiso   1.00
O994   O     0.06067   0.50000   0.68508   0.00000  Uiso   1.00
C995   C     0.30573   0.49942   0.83619   0.00000  Uiso   1.00
C996   C     0.02747   0.50088   0.66406   0.00000  Uiso   1.00
Cu997  Cu    0.04689   0.50001   0.75000   0.00000  Uiso   1.00
Cu998  Cu    0.28645   0.49999   0.75000   0.00000  Uiso   1.00
C999   C     0.29017   0.49905   0.88560   0.00000  Uiso   1.00
C1000  C     0.04323   0.50832   0.61575   0.00000  Uiso   1.00
C1001  C     0.31057   0.49361   0.95641   0.00000  Uiso   1.00
C1002  C     0.03267   0.54545   0.55114   0.00000  Uiso   1.00
C1003  C     0.32496   0.49635   0.90962   0.00000  Uiso   1.00
C1004  C     0.01434   0.53197   0.59538   0.00000  Uiso   1.00
C1005  C     0.24032   0.50029   0.90897   0.00000  Uiso   1.00
C1006  C     0.08999   0.49604   0.59134   0.00000  Uiso   1.00
C1007  C     0.22620   0.50587   0.95587   0.00000  Uiso   1.00
C1008  C     0.11130   0.51347   0.54853   0.00000  Uiso   1.00
C1009  C     0.26120   0.49927   0.97979   0.00000  Uiso   1.00
C1010  C     0.08095   0.53570   0.52727   0.00000  Uiso   1.00
C1011  C     0.17795   0.51697   0.97967   0.00000  Uiso   1.00
C1012  C     0.16176   0.50967   0.52625   0.00000  Uiso   1.00
C1013  C     0.19699   0.50229   0.54948   0.00000  Uiso   1.00
C1014  C     0.14682   0.53811   0.95891   0.00000  Uiso   1.00
C1015  C     0.24608   0.49827   0.52663   0.00000  Uiso   1.00
C1016  C     0.09958   0.54830   0.98269   0.00000  Uiso   1.00
H1017  H     0.27199   0.49352   0.54587   0.00000  Uiso   1.00
H1018  H     0.07740   0.56549   0.96569   0.00000  Uiso   1.00
H1019  H     0.31113   0.54076   0.61405   0.00000  Uiso   1.00
H1020  H     0.03007   0.49488   0.89213   0.00000  Uiso   1.00
H1021  H     0.18744   0.50186   0.58563   0.00000  Uiso   1.00
H1022  H     0.15954   0.54905   0.92473   0.00000  Uiso   1.00
C1023  C     0.29046   0.35515   0.76875   0.00000  Uiso   1.00
C1024  C     0.04289   0.64485   0.73103   0.00000  Uiso   1.00
H1025  H     0.25767   0.37212   0.78476   0.00000  Uiso   1.00
H1026  H     0.07567   0.62787   0.71501   0.00000  Uiso   1.00
C1027  C     0.28919   0.64560   0.76912   0.00000  Uiso   1.00
C1028  C     0.04415   0.35441   0.73064   0.00000  Uiso   1.00
C1029  C     0.33272   0.62388   0.75068   0.00000  Uiso   1.00
C1030  C     0.00063   0.37612   0.74915   0.00000  Uiso   1.00
C1031  C     0.18330   0.47361   0.77742   0.00000  Uiso   1.00
C1032  C     0.15010   0.52618   0.72232   0.00000  Uiso   1.00
C1033  C     0.13342   0.47395   0.77737   0.00000  Uiso   1.00
C1034  C     0.19993   0.52600   0.72256   0.00000  Uiso   1.00
H1035  H     0.10761   0.45324   0.79911   0.00000  Uiso   1.00
H1036  H     0.22576   0.54665   0.70075   0.00000  Uiso   1.00
N1037  N     0.11736   0.50001   0.74999   0.00000  Uiso   1.00
N1038  N     0.21597   0.49999   0.75001   0.00000  Uiso   1.00
O1039  O     0.11199   0.46478   0.60902   0.00000  Uiso   1.00
H1040  H     0.13110   0.44772   0.58393   0.00000  Uiso   1.00
O1041  O     0.20630   0.49251   0.88595   0.00000  Uiso   1.00
H1042  H     0.17898   0.47675   0.90590   0.00000  Uiso   1.00
O1043  O     0.01193   0.48916   0.97949   0.00000  Uiso   1.00
C1044  C     0.02960   0.44839   0.97472   0.00000  Uiso   1.00
H1045  H     0.05080   0.44202   0.93962   0.00000  Uiso   1.00
H1046  H     0.33280   0.42562   0.98624   0.00000  Uiso   1.00
H1047  H     0.05464   0.44435   0.99606   0.00000  Uiso   1.00
O1048  O     0.00285   0.56721   0.53085   0.00000  Uiso   1.00
C1049  C     0.00084   0.60857   0.54488   0.00000  Uiso   1.00
H1050  H     0.03782   0.62270   0.53648   0.00000  Uiso   1.00
H1051  H     0.31598   0.61129   0.58134   0.00000  Uiso   1.00
H1052  H     0.31223   0.62637   0.52686   0.00000  Uiso   1.00
O1053  O     0.24703   0.62473   0.79142   0.00000  Uiso   1.00
C1054  C     0.21080   0.63142   0.76916   0.00000  Uiso   1.00
H1055  H     0.18069   0.60921   0.78250   0.00000  Uiso   1.00
H1056  H     0.22476   0.62598   0.73247   0.00000  Uiso   1.00
H1057  H     0.19526   0.66290   0.77571   0.00000  Uiso   1.00
O1058  O     0.08627   0.37530   0.70826   0.00000  Uiso   1.00
C1059  C     0.12268   0.36850   0.73028   0.00000  Uiso   1.00
H1060  H     0.10889   0.37377   0.76702   0.00000  Uiso   1.00
H1061  H     0.15272   0.39078   0.71695   0.00000  Uiso   1.00
H1062  H     0.13826   0.33706   0.72348   0.00000  Uiso   1.00
O1063  O     0.19962   0.44682   0.80464   0.00000  Uiso   1.00
H1064  H     0.17190   0.42979   0.82199   0.00000  Uiso   1.00
O1065  O     0.13393   0.55244   0.69451   0.00000  Uiso   1.00
H1066  H     0.16172   0.56925   0.67691   0.00000  Uiso   1.00
O1067  O     0.37291   0.43989   0.75000   0.00000  Uiso   1.00
O1068  O     0.62709   0.56011   0.75000   0.00000  Uiso   1.00
O1069  O     0.62706   0.43988   0.75000   0.00000  Uiso   1.00
O1070  O     0.37294   0.56012   0.74999   0.00000  Uiso   1.00
C1071  C     0.33359   0.42074   0.74944   0.00000  Uiso   1.00
C1072  C     0.66643   0.57926   0.75049   0.00000  Uiso   1.00
O1073  O     0.35186   0.50001   0.81491   0.00000  Uiso   1.00
O1074  O     0.64814   0.49999   0.68508   0.00000  Uiso   1.00
O1075  O     0.60600   0.50000   0.81492   0.00000  Uiso   1.00
O1076  O     0.39400   0.50000   0.68508   0.00000  Uiso   1.00
C1077  C     0.63907   0.49942   0.83619   0.00000  Uiso   1.00
C1078  C     0.36080   0.50088   0.66406   0.00000  Uiso   1.00
Cu1079 Cu    0.38022   0.50001   0.75000   0.00000  Uiso   1.00
Cu1080 Cu    0.61978   0.49999   0.75000   0.00000  Uiso   1.00
C1081  C     0.62350   0.49905   0.88560   0.00000  Uiso   1.00
C1082  C     0.37656   0.50832   0.61575   0.00000  Uiso   1.00
C1083  C     0.64391   0.49361   0.95641   0.00000  Uiso   1.00
C1084  C     0.36600   0.54545   0.55114   0.00000  Uiso   1.00
C1085  C     0.65829   0.49635   0.90962   0.00000  Uiso   1.00
C1086  C     0.34768   0.53197   0.59538   0.00000  Uiso   1.00
C1087  C     0.57365   0.50029   0.90897   0.00000  Uiso   1.00
C1088  C     0.42332   0.49604   0.59134   0.00000  Uiso   1.00
C1089  C     0.55953   0.50587   0.95587   0.00000  Uiso   1.00
C1090  C     0.44463   0.51347   0.54853   0.00000  Uiso   1.00
C1091  C     0.59453   0.49927   0.97979   0.00000  Uiso   1.00
C1092  C     0.41428   0.53570   0.52727   0.00000  Uiso   1.00
C1093  C     0.51128   0.51697   0.97967   0.00000  Uiso   1.00
C1094  C     0.49509   0.50967   0.52625   0.00000  Uiso   1.00
C1095  C     0.53033   0.50229   0.54948   0.00000  Uiso   1.00
C1096  C     0.48016   0.53811   0.95891   0.00000  Uiso   1.00
C1097  C     0.57942   0.49827   0.52663   0.00000  Uiso   1.00
C1098  C     0.43291   0.54830   0.98269   0.00000  Uiso   1.00
H1099  H     0.60532   0.49352   0.54587   0.00000  Uiso   1.00
H1100  H     0.41074   0.56549   0.96569   0.00000  Uiso   1.00
H1101  H     0.64446   0.54076   0.61405   0.00000  Uiso   1.00
H1102  H     0.36340   0.49488   0.89213   0.00000  Uiso   1.00
H1103  H     0.52077   0.50186   0.58563   0.00000  Uiso   1.00
H1104  H     0.49287   0.54905   0.92473   0.00000  Uiso   1.00
C1105  C     0.62380   0.35515   0.76875   0.00000  Uiso   1.00
C1106  C     0.37622   0.64485   0.73103   0.00000  Uiso   1.00
H1107  H     0.59100   0.37212   0.78476   0.00000  Uiso   1.00
H1108  H     0.40901   0.62787   0.71501   0.00000  Uiso   1.00
C1109  C     0.62253   0.64560   0.76912   0.00000  Uiso   1.00
C1110  C     0.37749   0.35441   0.73064   0.00000  Uiso   1.00
C1111  C     0.66606   0.62388   0.75068   0.00000  Uiso   1.00
C1112  C     0.33397   0.37612   0.74915   0.00000  Uiso   1.00
C1113  C     0.51663   0.47361   0.77742   0.00000  Uiso   1.00
C1114  C     0.48343   0.52618   0.72232   0.00000  Uiso   1.00
C1115  C     0.46676   0.47395   0.77737   0.00000  Uiso   1.00
C1116  C     0.53326   0.52600   0.72256   0.00000  Uiso   1.00
H1117  H     0.44095   0.45324   0.79911   0.00000  Uiso   1.00
H1118  H     0.55909   0.54665   0.70075   0.00000  Uiso   1.00
N1119  N     0.45069   0.50001   0.74999   0.00000  Uiso   1.00
N1120  N     0.54931   0.49999   0.75001   0.00000  Uiso   1.00
O1121  O     0.44532   0.46478   0.60902   0.00000  Uiso   1.00
H1122  H     0.46443   0.44772   0.58393   0.00000  Uiso   1.00
O1123  O     0.53964   0.49251   0.88595   0.00000  Uiso   1.00
H1124  H     0.51232   0.47675   0.90590   0.00000  Uiso   1.00
O1125  O     0.34526   0.48916   0.97949   0.00000  Uiso   1.00
C1126  C     0.36293   0.44839   0.97472   0.00000  Uiso   1.00
H1127  H     0.38413   0.44202   0.93962   0.00000  Uiso   1.00
H1128  H     0.66613   0.42562   0.98624   0.00000  Uiso   1.00
H1129  H     0.38797   0.44435   0.99606   0.00000  Uiso   1.00
O1130  O     0.33618   0.56721   0.53085   0.00000  Uiso   1.00
C1131  C     0.33417   0.60857   0.54488   0.00000  Uiso   1.00
H1132  H     0.37116   0.62270   0.53648   0.00000  Uiso   1.00
H1133  H     0.64931   0.61129   0.58134   0.00000  Uiso   1.00
H1134  H     0.64557   0.62637   0.52686   0.00000  Uiso   1.00
O1135  O     0.58036   0.62473   0.79142   0.00000  Uiso   1.00
C1136  C     0.54414   0.63142   0.76916   0.00000  Uiso   1.00
H1137  H     0.51403   0.60921   0.78250   0.00000  Uiso   1.00
H1138  H     0.55810   0.62598   0.73247   0.00000  Uiso   1.00
H1139  H     0.52860   0.66290   0.77571   0.00000  Uiso   1.00
O1140  O     0.41961   0.37530   0.70826   0.00000  Uiso   1.00
C1141  C     0.45601   0.36850   0.73028   0.00000  Uiso   1.00
H1142  H     0.44223   0.37377   0.76702   0.00000  Uiso   1.00
H1143  H     0.48605   0.39078   0.71695   0.00000  Uiso   1.00
H1144  H     0.47159   0.33706   0.72348   0.00000  Uiso   1.00
O1145  O     0.53296   0.44682   0.80464   0.00000  Uiso   1.00
H1146  H     0.50524   0.42979   0.82199   0.00000  Uiso   1.00
O1147  O     0.46727   0.55244   0.69451   0.00000  Uiso   1.00
H1148  H     0.49505   0.56925   0.67691   0.00000  Uiso   1.00
O1149  O     0.70625   0.43989   0.75000   0.00000  Uiso   1.00
O1150  O     0.96042   0.56011   0.75000   0.00000  Uiso   1.00
O1151  O     0.96039   0.43988   0.75000   0.00000  Uiso   1.00
O1152  O     0.70628   0.56012   0.74999   0.00000  Uiso   1.00
C1153  C     0.66692   0.42074   0.74944   0.00000  Uiso   1.00
C1154  C     0.99976   0.57926   0.75049   0.00000  Uiso   1.00
O1155  O     0.68519   0.50001   0.81491   0.00000  Uiso   1.00
O1156  O     0.98148   0.49999   0.68508   0.00000  Uiso   1.00
O1157  O     0.93933   0.50000   0.81492   0.00000  Uiso   1.00
O1158  O     0.72733   0.50000   0.68508   0.00000  Uiso   1.00
C1159  C     0.97240   0.49942   0.83619   0.00000  Uiso   1.00
C1160  C     0.69414   0.50088   0.66406   0.00000  Uiso   1.00
Cu1161 Cu    0.71355   0.50001   0.75000   0.00000  Uiso   1.00
Cu1162 Cu    0.95311   0.49999   0.75000   0.00000  Uiso   1.00
C1163  C     0.95684   0.49905   0.88560   0.00000  Uiso   1.00
C1164  C     0.70990   0.50832   0.61575   0.00000  Uiso   1.00
C1165  C     0.97724   0.49361   0.95641   0.00000  Uiso   1.00
C1166  C     0.69933   0.54545   0.55114   0.00000  Uiso   1.00
C1167  C     0.99162   0.49635   0.90962   0.00000  Uiso   1.00
C1168  C     0.68101   0.53197   0.59538   0.00000  Uiso   1.00
C1169  C     0.90698   0.50029   0.90897   0.00000  Uiso   1.00
C1170  C     0.75665   0.49604   0.59134   0.00000  Uiso   1.00
C1171  C     0.89286   0.50587   0.95587   0.00000  Uiso   1.00
C1172  C     0.77797   0.51347   0.54853   0.00000  Uiso   1.00
C1173  C     0.92786   0.49927   0.97979   0.00000  Uiso   1.00
C1174  C     0.74762   0.53570   0.52727   0.00000  Uiso   1.00
C1175  C     0.84462   0.51697   0.97967   0.00000  Uiso   1.00
C1176  C     0.82842   0.50967   0.52625   0.00000  Uiso   1.00
C1177  C     0.86366   0.50229   0.54948   0.00000  Uiso   1.00
C1178  C     0.81349   0.53811   0.95891   0.00000  Uiso   1.00
C1179  C     0.91275   0.49827   0.52663   0.00000  Uiso   1.00
C1180  C     0.76624   0.54830   0.98269   0.00000  Uiso   1.00
H1181  H     0.93865   0.49352   0.54587   0.00000  Uiso   1.00
H1182  H     0.74407   0.56549   0.96569   0.00000  Uiso   1.00
H1183  H     0.97779   0.54076   0.61405   0.00000  Uiso   1.00
H1184  H     0.69673   0.49488   0.89213   0.00000  Uiso   1.00
H1185  H     0.85411   0.50186   0.58563   0.00000  Uiso   1.00
H1186  H     0.82621   0.54905   0.92473   0.00000  Uiso   1.00
C1187  C     0.95713   0.35515   0.76875   0.00000  Uiso   1.00
C1188  C     0.70956   0.64485   0.73103   0.00000  Uiso   1.00
H1189  H     0.92433   0.37212   0.78476   0.00000  Uiso   1.00
H1190  H     0.74234   0.62787   0.71501   0.00000  Uiso   1.00
C1191  C     0.95586   0.64560   0.76912   0.00000  Uiso   1.00
C1192  C     0.71082   0.35441   0.73064   0.00000  Uiso   1.00
C1193  C     0.99939   0.62388   0.75068   0.00000  Uiso   1.00
C1194  C     0.66730   0.37612   0.74915   0.00000  Uiso   1.00
C1195  C     0.84996   0.47361   0.77742   0.00000  Uiso   1.00
C1196  C     0.81677   0.52618   0.72232   0.00000  Uiso   1.00
C1197  C     0.80009   0.47395   0.77737   0.00000  Uiso   1.00
C1198  C     0.86659   0.52600   0.72256   0.00000  Uiso   1.00
H1199  H     0.77428   0.45324   0.79911   0.00000  Uiso   1.00
H1200  H     0.89243   0.54665   0.70075   0.00000  Uiso   1.00
N1201  N     0.78403   0.50001   0.74999   0.00000  Uiso   1.00
N1202  N     0.88264   0.49999   0.75001   0.00000  Uiso   1.00
O1203  O     0.77866   0.46478   0.60902   0.00000  Uiso   1.00
H1204  H     0.79776   0.44772   0.58393   0.00000  Uiso   1.00
O1205  O     0.87297   0.49251   0.88595   0.00000  Uiso   1.00
H1206  H     0.84565   0.47675   0.90590   0.00000  Uiso   1.00
O1207  O     0.67859   0.48916   0.97949   0.00000  Uiso   1.00
C1208  C     0.69627   0.44839   0.97472   0.00000  Uiso   1.00
H1209  H     0.71746   0.44202   0.93962   0.00000  Uiso   1.00
H1210  H     0.99946   0.42562   0.98624   0.00000  Uiso   1.00
H1211  H     0.72131   0.44435   0.99606   0.00000  Uiso   1.00
O1212  O     0.66951   0.56721   0.53085   0.00000  Uiso   1.00
C1213  C     0.66750   0.60857   0.54488   0.00000  Uiso   1.00
H1214  H     0.70449   0.62270   0.53648   0.00000  Uiso   1.00
H1215  H     0.98265   0.61129   0.58134   0.00000  Uiso   1.00
H1216  H     0.97890   0.62637   0.52686   0.00000  Uiso   1.00
O1217  O     0.91369   0.62473   0.79142   0.00000  Uiso   1.00
C1218  C     0.87747   0.63142   0.76916   0.00000  Uiso   1.00
H1219  H     0.84736   0.60921   0.78250   0.00000  Uiso   1.00
H1220  H     0.89143   0.62598   0.73247   0.00000  Uiso   1.00
H1221  H     0.86193   0.66290   0.77571   0.00000  Uiso   1.00
O1222  O     0.75294   0.37530   0.70826   0.00000  Uiso   1.00
C1223  C     0.78934   0.36850   0.73028   0.00000  Uiso   1.00
H1224  H     0.77556   0.37377   0.76702   0.00000  Uiso   1.00
H1225  H     0.81938   0.39078   0.71695   0.00000  Uiso   1.00
H1226  H     0.80493   0.33706   0.72348   0.00000  Uiso   1.00
O1227  O     0.86629   0.44682   0.80464   0.00000  Uiso   1.00
H1228  H     0.83857   0.42979   0.82199   0.00000  Uiso   1.00
O1229  O     0.80060   0.55244   0.69451   0.00000  Uiso   1.00
H1230  H     0.82839   0.56925   0.67691   0.00000  Uiso   1.00
O1231  O     0.03958   0.77322   0.75000   0.00000  Uiso   1.00
O1232  O     0.29375   0.89345   0.75000   0.00000  Uiso   1.00
O1233  O     0.29372   0.77321   0.75000   0.00000  Uiso   1.00
O1234  O     0.03961   0.89346   0.74999   0.00000  Uiso   1.00
C1235  C     0.00025   0.75407   0.74944   0.00000  Uiso   1.00
C1236  C     0.33310   0.91260   0.75049   0.00000  Uiso   1.00
O1237  O     0.01852   0.83334   0.81491   0.00000  Uiso   1.00
O1238  O     0.31481   0.83332   0.68508   0.00000  Uiso   1.00
O1239  O     0.27267   0.83333   0.81492   0.00000  Uiso   1.00
O1240  O     0.06067   0.83333   0.68508   0.00000  Uiso   1.00
C1241  C     0.30573   0.83275   0.83619   0.00000  Uiso   1.00
C1242  C     0.02747   0.83421   0.66406   0.00000  Uiso   1.00
Cu1243 Cu    0.04689   0.83334   0.75000   0.00000  Uiso   1.00
Cu1244 Cu    0.28645   0.83333   0.75000   0.00000  Uiso   1.00
C1245  C     0.29017   0.83238   0.88560   0.00000  Uiso   1.00
C1246  C     0.04323   0.84165   0.61575   0.00000  Uiso   1.00
C1247  C     0.31057   0.82694   0.95641   0.00000  Uiso   1.00
C1248  C     0.03267   0.87879   0.55114   0.00000  Uiso   1.00
C1249  C     0.32496   0.82968   0.90962   0.00000  Uiso   1.00
C1250  C     0.01434   0.86531   0.59538   0.00000  Uiso   1.00
C1251  C     0.24032   0.83363   0.90897   0.00000  Uiso   1.00
C1252  C     0.08999   0.82937   0.59134   0.00000  Uiso   1.00
C1253  C     0.22620   0.83921   0.95587   0.00000  Uiso   1.00
C1254  C     0.11130   0.84680   0.54853   0.00000  Uiso   1.00
C1255  C     0.26120   0.83260   0.97979   0.00000  Uiso   1.00
C1256  C     0.08095   0.86903   0.52727   0.00000  Uiso   1.00
C1257  C     0.17795   0.85030   0.97967   0.00000  Uiso   1.00
C1258  C     0.16176   0.84301   0.52625   0.00000  Uiso   1.00
C1259  C     0.19699   0.83563   0.54948   0.00000  Uiso   1.00
C1260  C     0.14682   0.87144   0.95891   0.00000  Uiso   1.00
C1261  C     0.24608   0.83160   0.52663   0.00000  Uiso   1.00
C1262  C     0.09958   0.88164   0.98269   0.00000  Uiso   1.00
H1263  H     0.27199   0.82685   0.54587   0.00000  Uiso   1.00
H1264  H     0.07740   0.89883   0.96569   0.00000  Uiso   1.00
H1265  H     0.31113   0.87409   0.61405   0.00000  Uiso   1.00
H1266  H     0.03007   0.82821   0.89213   0.00000  Uiso   1.00
H1267  H     0.18744   0.83520   0.58563   0.00000  Uiso   1.00
H1268  H     0.15954   0.88238   0.92473   0.00000  Uiso   1.00
C1269  C     0.29046   0.68848   0.76875   0.00000  Uiso   1.00
C1270  C     0.04289   0.97818   0.73103   0.00000  Uiso   1.00
H1271  H     0.25767   0.70545   0.78476   0.00000  Uiso   1.00
H1272  H     0.07567   0.96120   0.71501   0.00000  Uiso   1.00
C1273  C     0.28919   0.97893   0.76912   0.00000  Uiso   1.00
C1274  C     0.04415   0.68774   0.73064   0.00000  Uiso   1.00
C1275  C     0.33272   0.95722   0.75068   0.00000  Uiso   1.00
C1276  C     0.00063   0.70945   0.74915   0.00000  Uiso   1.00
C1277  C     0.18330   0.80695   0.77742   0.00000  Uiso   1.00
C1278  C     0.15010   0.85951   0.72232   0.00000  Uiso   1.00
C1279  C     0.13342   0.80728   0.77737   0.00000  Uiso   1.00
C1280  C     0.19993   0.85933   0.72256   0.00000  Uiso   1.00
H1281  H     0.10761   0.78657   0.79911   0.00000  Uiso   1.00
H1282  H     0.22576   0.87998   0.70075   0.00000  Uiso   1.00
N1283  N     0.11736   0.83334   0.74999   0.00000  Uiso   1.00
N1284  N     0.21597   0.83332   0.75001   0.00000  Uiso   1.00
O1285  O     0.11199   0.79812   0.60902   0.00000  Uiso   1.00
H1286  H     0.13110   0.78105   0.58393   0.00000  Uiso   1.00
O1287  O     0.20630   0.82584   0.88595   0.00000  Uiso   1.00
H1288  H     0.17898   0.81009   0.90590   0.00000  Uiso   1.00
O1289  O     0.01193   0.82249   0.97949   0.00000  Uiso   1.00
C1290  C     0.02960   0.78172   0.97472   0.00000  Uiso   1.00
H1291  H     0.05080   0.77536   0.93962   0.00000  Uiso   1.00
H1292  H     0.33280   0.75895   0.98624   0.00000  Uiso   1.00
H1293  H     0.05464   0.77769   0.99606   0.00000  Uiso   1.00
O1294  O     0.00285   0.90055   0.53085   0.00000  Uiso   1.00
C1295  C     0.00084   0.94190   0.54488   0.00000  Uiso   1.00
H1296  H     0.03782   0.95603   0.53648   0.00000  Uiso   1.00
H1297  H     0.31598   0.94462   0.58134   0.00000  Uiso   1.00
H1298  H     0.31223   0.95970   0.52686   0.00000  Uiso   1.00
O1299  O     0.24703   0.95807   0.79142   0.00000  Uiso   1.00
C1300  C     0.21080   0.96475   0.76916   0.00000  Uiso   1.00
H1301  H     0.18069   0.94254   0.78250   0.00000  Uiso   1.00
H1302  H     0.22476   0.95931   0.73247   0.00000  Uiso   1.00
H1303  H     0.19526   0.99623   0.77571   0.00000  Uiso   1.00
O1304  O     0.08627   0.70864   0.70826   0.00000  Uiso   1.00
C1305  C     0.12268   0.70184   0.73028   0.00000  Uiso   1.00
H1306  H     0.10889   0.70710   0.76702   0.00000  Uiso   1.00
H1307  H     0.15272   0.72412   0.71695   0.00000  Uiso   1.00
H1308  H     0.13826   0.67039   0.72348   0.00000  Uiso   1.00
O1309  O     0.19962   0.78015   0.80464   0.00000  Uiso   1.00
H1310  H     0.17190   0.76313   0.82199   0.00000  Uiso   1.00
O1311  O     0.13393   0.88577   0.69451   0.00000  Uiso   1.00
H1312  H     0.16172   0.90259   0.67691   0.00000  Uiso   1.00
O1313  O     0.37291   0.77322   0.75000   0.00000  Uiso   1.00
O1314  O     0.62709   0.89345   0.75000   0.00000  Uiso   1.00
O1315  O     0.62706   0.77321   0.75000   0.00000  Uiso   1.00
O1316  O     0.37294   0.89346   0.74999   0.00000  Uiso   1.00
C1317  C     0.33359   0.75407   0.74944   0.00000  Uiso   1.00
C1318  C     0.66643   0.91260   0.75049   0.00000  Uiso   1.00
O1319  O     0.35186   0.83334   0.81491   0.00000  Uiso   1.00
O1320  O     0.64814   0.83332   0.68508   0.00000  Uiso   1.00
O1321  O     0.60600   0.83333   0.81492   0.00000  Uiso   1.00
O1322  O     0.39400   0.83333   0.68508   0.00000  Uiso   1.00
C1323  C     0.63907   0.83275   0.83619   0.00000  Uiso   1.00
C1324  C     0.36080   0.83421   0.66406   0.00000  Uiso   1.00
Cu1325 Cu    0.38022   0.83334   0.75000   0.00000  Uiso   1.00
Cu1326 Cu    0.61978   0.83333   0.75000   0.00000  Uiso   1.00
C1327  C     0.62350   0.83238   0.88560   0.00000  Uiso   1.00
C1328  C     0.37656   0.84165   0.61575   0.00000  Uiso   1.00
C1329  C     0.64391   0.82694   0.95641   0.00000  Uiso   1.00
C1330  C     0.36600   0.87879   0.55114   0.00000  Uiso   1.00
C1331  C     0.65829   0.82968   0.90962   0.00000  Uiso   1.00
C1332  C     0.34768   0.86531   0.59538   0.00000  Uiso   1.00
C1333  C     0.57365   0.83363   0.90897   0.00000  Uiso   1.00
C1334  C     0.42332   0.82937   0.59134   0.00000  Uiso   1.00
C1335  C     0.55953   0.83921   0.95587   0.00000  Uiso   1.00
C1336  C     0.44463   0.84680   0.54853   0.00000  Uiso   1.00
C1337  C     0.59453   0.83260   0.97979   0.00000  Uiso   1.00
C1338  C     0.41428   0.86903   0.52727   0.00000  Uiso   1.00
C1339  C     0.51128   0.85030   0.97967   0.00000  Uiso   1.00
C1340  C     0.49509   0.84301   0.52625   0.00000  Uiso   1.00
C1341  C     0.53033   0.83563   0.54948   0.00000  Uiso   1.00
C1342  C     0.48016   0.87144   0.95891   0.00000  Uiso   1.00
C1343  C     0.57942   0.83160   0.52663   0.00000  Uiso   1.00
C1344  C     0.43291   0.88164   0.98269   0.00000  Uiso   1.00
H1345  H     0.60532   0.82685   0.54587   0.00000  Uiso   1.00
H1346  H     0.41074   0.89883   0.96569   0.00000  Uiso   1.00
H1347  H     0.64446   0.87409   0.61405   0.00000  Uiso   1.00
H1348  H     0.36340   0.82821   0.89213   0.00000  Uiso   1.00
H1349  H     0.52077   0.83520   0.58563   0.00000  Uiso   1.00
H1350  H     0.49287   0.88238   0.92473   0.00000  Uiso   1.00
C1351  C     0.62380   0.68848   0.76875   0.00000  Uiso   1.00
C1352  C     0.37622   0.97818   0.73103   0.00000  Uiso   1.00
H1353  H     0.59100   0.70545   0.78476   0.00000  Uiso   1.00
H1354  H     0.40901   0.96120   0.71501   0.00000  Uiso   1.00
C1355  C     0.62253   0.97893   0.76912   0.00000  Uiso   1.00
C1356  C     0.37749   0.68774   0.73064   0.00000  Uiso   1.00
C1357  C     0.66606   0.95722   0.75068   0.00000  Uiso   1.00
C1358  C     0.33397   0.70945   0.74915   0.00000  Uiso   1.00
C1359  C     0.51663   0.80695   0.77742   0.00000  Uiso   1.00
C1360  C     0.48343   0.85951   0.72232   0.00000  Uiso   1.00
C1361  C     0.46676   0.80728   0.77737   0.00000  Uiso   1.00
C1362  C     0.53326   0.85933   0.72256   0.00000  Uiso   1.00
H1363  H     0.44095   0.78657   0.79911   0.00000  Uiso   1.00
H1364  H     0.55909   0.87998   0.70075   0.00000  Uiso   1.00
N1365  N     0.45069   0.83334   0.74999   0.00000  Uiso   1.00
N1366  N     0.54931   0.83332   0.75001   0.00000  Uiso   1.00
O1367  O     0.44532   0.79812   0.60902   0.00000  Uiso   1.00
H1368  H     0.46443   0.78105   0.58393   0.00000  Uiso   1.00
O1369  O     0.53964   0.82584   0.88595   0.00000  Uiso   1.00
H1370  H     0.51232   0.81009   0.90590   0.00000  Uiso   1.00
O1371  O     0.34526   0.82249   0.97949   0.00000  Uiso   1.00
C1372  C     0.36293   0.78172   0.97472   0.00000  Uiso   1.00
H1373  H     0.38413   0.77536   0.93962   0.00000  Uiso   1.00
H1374  H     0.66613   0.75895   0.98624   0.00000  Uiso   1.00
H1375  H     0.38797   0.77769   0.99606   0.00000  Uiso   1.00
O1376  O     0.33618   0.90055   0.53085   0.00000  Uiso   1.00
C1377  C     0.33417   0.94190   0.54488   0.00000  Uiso   1.00
H1378  H     0.37116   0.95603   0.53648   0.00000  Uiso   1.00
H1379  H     0.64931   0.94462   0.58134   0.00000  Uiso   1.00
H1380  H     0.64557   0.95970   0.52686   0.00000  Uiso   1.00
O1381  O     0.58036   0.95807   0.79142   0.00000  Uiso   1.00
C1382  C     0.54414   0.96475   0.76916   0.00000  Uiso   1.00
H1383  H     0.51403   0.94254   0.78250   0.00000  Uiso   1.00
H1384  H     0.55810   0.95931   0.73247   0.00000  Uiso   1.00
H1385  H     0.52860   0.99623   0.77571   0.00000  Uiso   1.00
O1386  O     0.41961   0.70864   0.70826   0.00000  Uiso   1.00
C1387  C     0.45601   0.70184   0.73028   0.00000  Uiso   1.00
H1388  H     0.44223   0.70710   0.76702   0.00000  Uiso   1.00
H1389  H     0.48605   0.72412   0.71695   0.00000  Uiso   1.00
H1390  H     0.47159   0.67039   0.72348   0.00000  Uiso   1.00
O1391  O     0.53296   0.78015   0.80464   0.00000  Uiso   1.00
H1392  H     0.50524   0.76313   0.82199   0.00000  Uiso   1.00
O1393  O     0.46727   0.88577   0.69451   0.00000  Uiso   1.00
H1394  H     0.49505   0.90259   0.67691   0.00000  Uiso   1.00
O1395  O     0.70625   0.77322   0.75000   0.00000  Uiso   1.00
O1396  O     0.96042   0.89345   0.75000   0.00000  Uiso   1.00
O1397  O     0.96039   0.77321   0.75000   0.00000  Uiso   1.00
O1398  O     0.70628   0.89346   0.74999   0.00000  Uiso   1.00
C1399  C     0.66692   0.75407   0.74944   0.00000  Uiso   1.00
C1400  C     0.99976   0.91260   0.75049   0.00000  Uiso   1.00
O1401  O     0.68519   0.83334   0.81491   0.00000  Uiso   1.00
O1402  O     0.98148   0.83332   0.68508   0.00000  Uiso   1.00
O1403  O     0.93933   0.83333   0.81492   0.00000  Uiso   1.00
O1404  O     0.72733   0.83333   0.68508   0.00000  Uiso   1.00
C1405  C     0.97240   0.83275   0.83619   0.00000  Uiso   1.00
C1406  C     0.69414   0.83421   0.66406   0.00000  Uiso   1.00
Cu1407 Cu    0.71355   0.83334   0.75000   0.00000  Uiso   1.00
Cu1408 Cu    0.95311   0.83333   0.75000   0.00000  Uiso   1.00
C1409  C     0.95684   0.83238   0.88560   0.00000  Uiso   1.00
C1410  C     0.70990   0.84165   0.61575   0.00000  Uiso   1.00
C1411  C     0.97724   0.82694   0.95641   0.00000  Uiso   1.00
C1412  C     0.69933   0.87879   0.55114   0.00000  Uiso   1.00
C1413  C     0.99162   0.82968   0.90962   0.00000  Uiso   1.00
C1414  C     0.68101   0.86531   0.59538   0.00000  Uiso   1.00
C1415  C     0.90698   0.83363   0.90897   0.00000  Uiso   1.00
C1416  C     0.75665   0.82937   0.59134   0.00000  Uiso   1.00
C1417  C     0.89286   0.83921   0.95587   0.00000  Uiso   1.00
C1418  C     0.77797   0.84680   0.54853   0.00000  Uiso   1.00
C1419  C     0.92786   0.83260   0.97979   0.00000  Uiso   1.00
C1420  C     0.74762   0.86903   0.52727   0.00000  Uiso   1.00
C1421  C     0.84462   0.85030   0.97967   0.00000  Uiso   1.00
C1422  C     0.82842   0.84301   0.52625   0.00000  Uiso   1.00
C1423  C     0.86366   0.83563   0.54948   0.00000  Uiso   1.00
C1424  C     0.81349   0.87144   0.95891   0.00000  Uiso   1.00
C1425  C     0.91275   0.83160   0.52663   0.00000  Uiso   1.00
C1426  C     0.76624   0.88164   0.98269   0.00000  Uiso   1.00
H1427  H     0.93865   0.82685   0.54587   0.00000  Uiso   1.00
H1428  H     0.74407   0.89883   0.96569   0.00000  Uiso   1.00
H1429  H     0.97779   0.87409   0.61405   0.00000  Uiso   1.00
H1430  H     0.69673   0.82821   0.89213   0.00000  Uiso   1.00
H1431  H     0.85411   0.83520   0.58563   0.00000  Uiso   1.00
H1432  H     0.82621   0.88238   0.92473   0.00000  Uiso   1.00
C1433  C     0.95713   0.68848   0.76875   0.00000  Uiso   1.00
C1434  C     0.70956   0.97818   0.73103   0.00000  Uiso   1.00
H1435  H     0.92433   0.70545   0.78476   0.00000  Uiso   1.00
H1436  H     0.74234   0.96120   0.71501   0.00000  Uiso   1.00
C1437  C     0.95586   0.97893   0.76912   0.00000  Uiso   1.00
C1438  C     0.71082   0.68774   0.73064   0.00000  Uiso   1.00
C1439  C     0.99939   0.95722   0.75068   0.00000  Uiso   1.00
C1440  C     0.66730   0.70945   0.74915   0.00000  Uiso   1.00
C1441  C     0.84996   0.80695   0.77742   0.00000  Uiso   1.00
C1442  C     0.81677   0.85951   0.72232   0.00000  Uiso   1.00
C1443  C     0.80009   0.80728   0.77737   0.00000  Uiso   1.00
C1444  C     0.86659   0.85933   0.72256   0.00000  Uiso   1.00
H1445  H     0.77428   0.78657   0.79911   0.00000  Uiso   1.00
H1446  H     0.89243   0.87998   0.70075   0.00000  Uiso   1.00
N1447  N     0.78403   0.83334   0.74999   0.00000  Uiso   1.00
N1448  N     0.88264   0.83332   0.75001   0.00000  Uiso   1.00
O1449  O     0.77866   0.79812   0.60902   0.00000  Uiso   1.00
H1450  H     0.79776   0.78105   0.58393   0.00000  Uiso   1.00
O1451  O     0.87297   0.82584   0.88595   0.00000  Uiso   1.00
H1452  H     0.84565   0.81009   0.90590   0.00000  Uiso   1.00
O1453  O     0.67859   0.82249   0.97949   0.00000  Uiso   1.00
C1454  C     0.69627   0.78172   0.97472   0.00000  Uiso   1.00
H1455  H     0.71746   0.77536   0.93962   0.00000  Uiso   1.00
H1456  H     0.99946   0.75895   0.98624   0.00000  Uiso   1.00
H1457  H     0.72131   0.77769   0.99606   0.00000  Uiso   1.00
O1458  O     0.66951   0.90055   0.53085   0.00000  Uiso   1.00
C1459  C     0.66750   0.94190   0.54488   0.00000  Uiso   1.00
H1460  H     0.70449   0.95603   0.53648   0.00000  Uiso   1.00
H1461  H     0.98265   0.94462   0.58134   0.00000  Uiso   1.00
H1462  H     0.97890   0.95970   0.52686   0.00000  Uiso   1.00
O1463  O     0.91369   0.95807   0.79142   0.00000  Uiso   1.00
C1464  C     0.87747   0.96475   0.76916   0.00000  Uiso   1.00
H1465  H     0.84736   0.94254   0.78250   0.00000  Uiso   1.00
H1466  H     0.89143   0.95931   0.73247   0.00000  Uiso   1.00
H1467  H     0.86193   0.99623   0.77571   0.00000  Uiso   1.00
O1468  O     0.75294   0.70864   0.70826   0.00000  Uiso   1.00
C1469  C     0.78934   0.70184   0.73028   0.00000  Uiso   1.00
H1470  H     0.77556   0.70710   0.76702   0.00000  Uiso   1.00
H1471  H     0.81938   0.72412   0.71695   0.00000  Uiso   1.00
H1472  H     0.80493   0.67039   0.72348   0.00000  Uiso   1.00
O1473  O     0.86629   0.78015   0.80464   0.00000  Uiso   1.00
H1474  H     0.83857   0.76313   0.82199   0.00000  Uiso   1.00
O1475  O     0.80060   0.88577   0.69451   0.00000  Uiso   1.00
H1476  H     0.82839   0.90259   0.67691   0.00000  Uiso   1.00
loop_
_geom_bond_atom_site_label_1
_geom_bond_atom_site_label_2
_geom_bond_distance
_geom_bond_site_symmetry_2
_ccdc_geom_bond_type
O1     C5      1.289   .     A
O1     Cu13    1.962   .     S
O2     C6      1.289   .     A
O2     Cu14    1.962   .     S
O3     Cu14    1.962   .     S
O3     C87     1.293   .     S
O4     Cu13    1.962   .     S
O4     C170    1.293   1_455 S
C5     C46     1.448   .     S
C5     O167    1.293   1_455 S
C6     C45     1.448   .     S
C6     O86     1.293   .     S
O7     Cu13    1.956   .     S
O7     C175    1.300   1_455 S
O8     Cu14    1.956   .     S
O8     C94     1.296   .     S
O9     Cu14    1.947   .     S
O9     C11     1.295   .     A
O10    C12     1.293   .     A
O10    Cu13    1.947   .     S
C11    C15     1.477   .     S
C11    O89     1.300   .     S
C12    C16     1.463   .     S
C12    O172    1.296   1_455 S
Cu13   N53     2.013   .     S
Cu13   Cu178   2.679   1_455 S
Cu14   N54     2.013   .     S
Cu14   Cu95    2.679   .     S
C15    C19     1.402   .     A
C15    C21     1.409   .     A
C16    C20     1.398   .     A
C16    C22     1.400   .     A
C17    C25     1.409   .     A
C17    C19     1.400   .     A
C17    O141    1.382   .     S
C18    C26     1.410   .     A
C18    O64     1.384   .     S
C18    C20     1.397   .     A
C19    H118    1.083   .     S
C20    H199    1.084   1_455 S
C21    O57     1.382   .     S
C21    C23     1.415   .     A
C22    C24     1.416   .     A
C22    O55     1.382   .     S
C23    C27     1.419   .     A
C23    C25     1.417   .     A
C24    C26     1.421   .     A
C24    C28     1.421   .     A
C25    C769    1.400   .     S
C26    C770    1.399   1_554 S
C27    C30     1.411   .     A
C27    C766    1.412   .     S
C28    C29     1.412   .     A
C28    C765    1.412   1_554 S
C29    C31     1.392   .     A
C29    H37     1.081   .     S
C30    H38     1.081   .     S
C30    C32     1.388   .     A
C31    H33     1.083   .     S
C31    C763    1.400   1_554 S
C32    H34     1.083   .     S
C32    C764    1.399   .     S
H35    C102    1.084   .     S
H36    C183    1.083   1_455 S
C39    H41     1.083   .     S
C39    C535    1.392   1_545 S
C39    C128    1.398   .     S
C40    H42     1.083   .     S
C40    C290    1.392   .     S
C40    C209    1.398   1_455 S
C43    O69     1.387   .     S
C43    C45     1.407   .     A
C43    C285    1.392   .     S
C44    C46     1.407   .     A
C44    O74     1.387   .     S
C44    C532    1.392   1_545 S
C45    C122    1.398   .     S
C46    C203    1.398   1_455 S
C47    O79     1.378   .     S
C47    C49     1.425   .     A
C47    N54     1.372   .     A
C48    O81     1.378   .     S
C48    N53     1.372   .     A
C48    C50     1.426   .     A
C49    H51     1.082   .     S
C49    N53     1.363   .     A
C50    N54     1.363   .     A
C50    H52     1.082   .     S
O55    H56     0.991   .     S
O57    H58     0.992   .     S
O59    C60     1.410   .     S
O59    C181    1.382   1_455 S
C60    H63     1.110   .     S
C60    H61     1.113   .     S
C60    H226    1.114   1_455 S
H62    C142    1.114   .     S
O64    C65     1.410   .     S
C65    H66     1.114   .     S
C65    H231    1.113   1_455 S
C65    H232    1.109   1_455 S
H67    C147    1.113   .     S
H68    C147    1.109   .     S
O69    C70     1.412   .     S
C70    H71     1.109   .     S
C70    H73     1.111   .     S
C70    H72     1.115   .     S
O74    C75     1.412   .     S
C75    H76     1.115   .     S
C75    H77     1.110   .     S
C75    H78     1.111   .     S
O79    H80     0.992   .     S
O81    H82     0.992   .     S
O83    C87     1.289   .     A
O83    Cu95    1.962   .     S
O84    C88     1.289   .     A
O84    Cu96    1.962   .     S
O85    Cu96    1.962   .     S
O85    C169    1.293   .     S
O86    Cu95    1.962   .     S
C87    C128    1.448   .     S
C88    C127    1.448   .     S
C88    O168    1.293   .     S
O89    Cu95    1.956   .     S
O90    Cu96    1.956   .     S
O90    C176    1.296   .     S
O91    Cu96    1.947   .     S
O91    C93     1.295   .     A
O92    C94     1.293   .     A
O92    Cu95    1.947   .     S
C93    C97     1.477   .     S
C93    O171    1.300   .     S
C94    C98     1.463   .     S
Cu95   N135    2.013   .     S
Cu96   N136    2.013   .     S
Cu96   Cu177   2.679   .     S
C97    C101    1.402   .     A
C97    C103    1.409   .     A
C98    C102    1.398   .     A
C98    C104    1.400   .     A
C99    C107    1.409   .     A
C99    C101    1.400   .     A
C99    O223    1.382   .     S
C100   C108    1.410   .     A
C100   O146    1.384   .     S
C100   C102    1.397   .     A
C101   H200    1.083   .     S
C103   O139    1.382   .     S
C103   C105    1.415   .     A
C104   C106    1.416   .     A
C104   O137    1.382   .     S
C105   C109    1.419   .     A
C105   C107    1.417   .     A
C106   C108    1.421   .     A
C106   C110    1.421   .     A
C107   C851    1.400   .     S
C108   C852    1.399   1_554 S
C109   C112    1.411   .     A
C109   C848    1.412   .     S
C110   C111    1.412   .     A
C110   C847    1.412   1_554 S
C111   C113    1.392   .     A
C111   H119    1.081   .     S
C112   H120    1.081   .     S
C112   C114    1.388   .     A
C113   H115    1.083   .     S
C113   C845    1.400   1_554 S
C114   H116    1.083   .     S
C114   C846    1.399   .     S
H117   C184    1.084   .     S
C121   H123    1.083   .     S
C121   C617    1.392   1_545 S
C121   C210    1.398   .     S
C122   H124    1.083   .     S
C122   C372    1.392   .     S
C125   O151    1.387   .     S
C125   C127    1.407   .     A
C125   C367    1.392   .     S
C126   C128    1.407   .     A
C126   O156    1.387   .     S
C126   C614    1.392   1_545 S
C127   C204    1.398   .     S
C129   O161    1.378   .     S
C129   C131    1.425   .     A
C129   N136    1.372   .     A
C130   O163    1.378   .     S
C130   N135    1.372   .     A
C130   C132    1.426   .     A
C131   H133    1.082   .     S
C131   N135    1.363   .     A
C132   N136    1.363   .     A
C132   H134    1.082   .     S
O137   H138    0.991   .     S
O139   H140    0.992   .     S
O141   C142    1.410   .     S
C142   H145    1.110   .     S
C142   H143    1.113   .     S
H144   C224    1.114   .     S
O146   C147    1.410   .     S
C147   H148    1.114   .     S
H149   C229    1.113   .     S
H150   C229    1.109   .     S
O151   C152    1.412   .     S
C152   H153    1.109   .     S
C152   H155    1.111   .     S
C152   H154    1.115   .     S
O156   C157    1.412   .     S
C157   H158    1.115   .     S
C157   H159    1.110   .     S
C157   H160    1.111   .     S
O161   H162    0.992   .     S
O163   H164    0.992   .     S
O165   C169    1.289   .     A
O165   Cu177   1.962   .     S
O166   C170    1.289   .     A
O166   Cu178   1.962   .     S
O167   Cu178   1.962   .     S
O167   C5      1.293   1_655 S
O168   Cu177   1.962   .     S
C169   C210    1.448   .     S
C170   C209    1.448   .     S
C170   O4      1.293   1_655 S
O171   Cu177   1.956   .     S
O172   Cu178   1.956   .     S
O172   C12     1.296   1_655 S
O173   Cu178   1.947   .     S
O173   C175    1.295   .     A
O174   C176    1.293   .     A
O174   Cu177   1.947   .     S
C175   C179    1.477   .     S
C175   O7      1.300   1_655 S
C176   C180    1.463   .     S
Cu177  N217    2.013   .     S
Cu178  N218    2.013   .     S
Cu178  Cu13    2.679   1_655 S
C179   C183    1.402   .     A
C179   C185    1.409   .     A
C180   C184    1.398   .     A
C180   C186    1.400   .     A
C181   C189    1.409   .     A
C181   C183    1.400   .     A
C181   O59     1.382   1_655 S
C182   C190    1.410   .     A
C182   O228    1.384   .     S
C182   C184    1.397   .     A
C183   H36     1.083   1_655 S
C185   O221    1.382   .     S
C185   C187    1.415   .     A
C186   C188    1.416   .     A
C186   O219    1.382   .     S
C187   C191    1.419   .     A
C187   C189    1.417   .     A
C188   C190    1.421   .     A
C188   C192    1.421   .     A
C189   C933    1.400   .     S
C190   C934    1.399   1_554 S
C191   C194    1.411   .     A
C191   C930    1.412   .     S
C192   C193    1.412   .     A
C192   C929    1.412   1_554 S
C193   C195    1.392   .     A
C193   H201    1.081   .     S
C194   H202    1.081   .     S
C194   C196    1.388   .     A
C195   H197    1.083   .     S
C195   C927    1.400   1_554 S
C196   H198    1.083   .     S
C196   C928    1.399   .     S
H199   C20     1.084   1_655 S
C203   H205    1.083   .     S
C203   C699    1.392   1_545 S
C203   C46     1.398   1_655 S
C204   H206    1.083   .     S
C204   C454    1.392   .     S
C207   O233    1.387   .     S
C207   C209    1.407   .     A
C207   C449    1.392   .     S
C208   C210    1.407   .     A
C208   O238    1.387   .     S
C208   C696    1.392   1_545 S
C209   C40     1.398   1_655 S
C211   O243    1.378   .     S
C211   C213    1.425   .     A
C211   N218    1.372   .     A
C212   O245    1.378   .     S
C212   N217    1.372   .     A
C212   C214    1.426   .     A
C213   H215    1.082   .     S
C213   N217    1.363   .     A
C214   N218    1.363   .     A
C214   H216    1.082   .     S
O219   H220    0.991   .     S
O221   H222    0.992   .     S
O223   C224    1.410   .     S
C224   H227    1.110   .     S
C224   H225    1.113   .     S
H226   C60     1.114   1_655 S
O228   C229    1.410   .     S
C229   H230    1.114   .     S
H231   C65     1.113   1_655 S
H232   C65     1.109   1_655 S
O233   C234    1.412   .     S
C234   H235    1.109   .     S
C234   H237    1.111   .     S
C234   H236    1.115   .     S
O238   C239    1.412   .     S
C239   H240    1.115   .     S
C239   H241    1.110   .     S
C239   H242    1.111   .     S
O243   H244    0.992   .     S
O245   H246    0.992   .     S
O247   C251    1.289   .     A
O247   Cu259   1.962   .     S
O248   C252    1.289   .     A
O248   Cu260   1.962   .     S
O249   Cu260   1.962   .     S
O249   C333    1.293   .     S
O250   Cu259   1.962   .     S
O250   C416    1.293   1_455 S
C251   C292    1.448   .     S
C251   O413    1.293   1_455 S
C252   C291    1.448   .     S
C252   O332    1.293   .     S
O253   Cu259   1.956   .     S
O253   C421    1.300   1_455 S
O254   Cu260   1.956   .     S
O254   C340    1.296   .     S
O255   Cu260   1.947   .     S
O255   C257    1.295   .     A
O256   C258    1.293   .     A
O256   Cu259   1.947   .     S
C257   C261    1.477   .     S
C257   O335    1.300   .     S
C258   C262    1.463   .     S
C258   O418    1.296   1_455 S
Cu259  N299    2.013   .     S
Cu259  Cu424   2.679   1_455 S
Cu260  N300    2.013   .     S
Cu260  Cu341   2.679   .     S
C261   C265    1.402   .     A
C261   C267    1.409   .     A
C262   C266    1.398   .     A
C262   C268    1.400   .     A
C263   C271    1.409   .     A
C263   C265    1.400   .     A
C263   O387    1.382   .     S
C264   C272    1.410   .     A
C264   O310    1.384   .     S
C264   C266    1.397   .     A
C265   H364    1.083   .     S
C266   H445    1.084   1_455 S
C267   O303    1.382   .     S
C267   C269    1.415   .     A
C268   C270    1.416   .     A
C268   O301    1.382   .     S
C269   C273    1.419   .     A
C269   C271    1.417   .     A
C270   C272    1.421   .     A
C270   C274    1.421   .     A
C271   C1015   1.400   .     S
C272   C1016   1.399   1_554 S
C273   C276    1.411   .     A
C273   C1012   1.412   .     S
C274   C275    1.412   .     A
C274   C1011   1.412   1_554 S
C275   C277    1.392   .     A
C275   H283    1.081   .     S
C276   H284    1.081   .     S
C276   C278    1.388   .     A
C277   H279    1.083   .     S
C277   C1009   1.400   1_554 S
C278   H280    1.083   .     S
C278   C1010   1.399   .     S
H281   C348    1.084   .     S
H282   C429    1.083   1_455 S
C285   H287    1.083   .     S
C285   C374    1.398   .     S
C286   H288    1.083   .     S
C286   C536    1.392   .     S
C286   C455    1.398   1_455 S
C289   O315    1.387   .     S
C289   C291    1.407   .     A
C289   C531    1.392   .     S
C290   C292    1.407   .     A
C290   O320    1.387   .     S
C291   C368    1.398   .     S
C292   C449    1.398   1_455 S
C293   O325    1.378   .     S
C293   C295    1.425   .     A
C293   N300    1.372   .     A
C294   O327    1.378   .     S
C294   N299    1.372   .     A
C294   C296    1.426   .     A
C295   H297    1.082   .     S
C295   N299    1.363   .     A
C296   N300    1.363   .     A
C296   H298    1.082   .     S
O301   H302    0.991   .     S
O303   H304    0.992   .     S
O305   C306    1.410   .     S
O305   C427    1.382   1_455 S
C306   H309    1.110   .     S
C306   H307    1.113   .     S
C306   H472    1.114   1_455 S
H308   C388    1.114   .     S
O310   C311    1.410   .     S
C311   H312    1.114   .     S
C311   H477    1.113   1_455 S
C311   H478    1.109   1_455 S
H313   C393    1.113   .     S
H314   C393    1.109   .     S
O315   C316    1.412   .     S
C316   H317    1.109   .     S
C316   H319    1.111   .     S
C316   H318    1.115   .     S
O320   C321    1.412   .     S
C321   H322    1.115   .     S
C321   H323    1.110   .     S
C321   H324    1.111   .     S
O325   H326    0.992   .     S
O327   H328    0.992   .     S
O329   C333    1.289   .     A
O329   Cu341   1.962   .     S
O330   C334    1.289   .     A
O330   Cu342   1.962   .     S
O331   Cu342   1.962   .     S
O331   C415    1.293   .     S
O332   Cu341   1.962   .     S
C333   C374    1.448   .     S
C334   C373    1.448   .     S
C334   O414    1.293   .     S
O335   Cu341   1.956   .     S
O336   Cu342   1.956   .     S
O336   C422    1.296   .     S
O337   Cu342   1.947   .     S
O337   C339    1.295   .     A
O338   C340    1.293   .     A
O338   Cu341   1.947   .     S
C339   C343    1.477   .     S
C339   O417    1.300   .     S
C340   C344    1.463   .     S
Cu341  N381    2.013   .     S
Cu342  N382    2.013   .     S
Cu342  Cu423   2.679   .     S
C343   C347    1.402   .     A
C343   C349    1.409   .     A
C344   C348    1.398   .     A
C344   C350    1.400   .     A
C345   C353    1.409   .     A
C345   C347    1.400   .     A
C345   O469    1.382   .     S
C346   C354    1.410   .     A
C346   O392    1.384   .     S
C346   C348    1.397   .     A
C347   H446    1.083   .     S
C349   O385    1.382   .     S
C349   C351    1.415   .     A
C350   C352    1.416   .     A
C350   O383    1.382   .     S
C351   C355    1.419   .     A
C351   C353    1.417   .     A
C352   C354    1.421   .     A
C352   C356    1.421   .     A
C353   C1097   1.400   .     S
C354   C1098   1.399   1_554 S
C355   C358    1.411   .     A
C355   C1094   1.412   .     S
C356   C357    1.412   .     A
C356   C1093   1.412   1_554 S
C357   C359    1.392   .     A
C357   H365    1.081   .     S
C358   H366    1.081   .     S
C358   C360    1.388   .     A
C359   H361    1.083   .     S
C359   C1091   1.400   1_554 S
C360   H362    1.083   .     S
C360   C1092   1.399   .     S
H363   C430    1.084   .     S
C367   H369    1.083   .     S
C367   C456    1.398   .     S
C368   H370    1.083   .     S
C368   C618    1.392   .     S
C371   O397    1.387   .     S
C371   C373    1.407   .     A
C371   C613    1.392   .     S
C372   C374    1.407   .     A
C372   O402    1.387   .     S
C373   C450    1.398   .     S
C375   O407    1.378   .     S
C375   C377    1.425   .     A
C375   N382    1.372   .     A
C376   O409    1.378   .     S
C376   N381    1.372   .     A
C376   C378    1.426   .     A
C377   H379    1.082   .     S
C377   N381    1.363   .     A
C378   N382    1.363   .     A
C378   H380    1.082   .     S
O383   H384    0.991   .     S
O385   H386    0.992   .     S
O387   C388    1.410   .     S
C388   H391    1.110   .     S
C388   H389    1.113   .     S
H390   C470    1.114   .     S
O392   C393    1.410   .     S
C393   H394    1.114   .     S
H395   C475    1.113   .     S
H396   C475    1.109   .     S
O397   C398    1.412   .     S
C398   H399    1.109   .     S
C398   H401    1.111   .     S
C398   H400    1.115   .     S
O402   C403    1.412   .     S
C403   H404    1.115   .     S
C403   H405    1.110   .     S
C403   H406    1.111   .     S
O407   H408    0.992   .     S
O409   H410    0.992   .     S
O411   C415    1.289   .     A
O411   Cu423   1.962   .     S
O412   C416    1.289   .     A
O412   Cu424   1.962   .     S
O413   Cu424   1.962   .     S
O413   C251    1.293   1_655 S
O414   Cu423   1.962   .     S
C415   C456    1.448   .     S
C416   C455    1.448   .     S
C416   O250    1.293   1_655 S
O417   Cu423   1.956   .     S
O418   Cu424   1.956   .     S
O418   C258    1.296   1_655 S
O419   Cu424   1.947   .     S
O419   C421    1.295   .     A
O420   C422    1.293   .     A
O420   Cu423   1.947   .     S
C421   C425    1.477   .     S
C421   O253    1.300   1_655 S
C422   C426    1.463   .     S
Cu423  N463    2.013   .     S
Cu424  N464    2.013   .     S
Cu424  Cu259   2.679   1_655 S
C425   C429    1.402   .     A
C425   C431    1.409   .     A
C426   C430    1.398   .     A
C426   C432    1.400   .     A
C427   C435    1.409   .     A
C427   C429    1.400   .     A
C427   O305    1.382   1_655 S
C428   C436    1.410   .     A
C428   O474    1.384   .     S
C428   C430    1.397   .     A
C429   H282    1.083   1_655 S
C431   O467    1.382   .     S
C431   C433    1.415   .     A
C432   C434    1.416   .     A
C432   O465    1.382   .     S
C433   C437    1.419   .     A
C433   C435    1.417   .     A
C434   C436    1.421   .     A
C434   C438    1.421   .     A
C435   C1179   1.400   .     S
C436   C1180   1.399   1_554 S
C437   C440    1.411   .     A
C437   C1176   1.412   .     S
C438   C439    1.412   .     A
C438   C1175   1.412   1_554 S
C439   C441    1.392   .     A
C439   H447    1.081   .     S
C440   H448    1.081   .     S
C440   C442    1.388   .     A
C441   H443    1.083   .     S
C441   C1173   1.400   1_554 S
C442   H444    1.083   .     S
C442   C1174   1.399   .     S
H445   C266    1.084   1_655 S
C449   H451    1.083   .     S
C449   C292    1.398   1_655 S
C450   H452    1.083   .     S
C450   C700    1.392   .     S
C453   O479    1.387   .     S
C453   C455    1.407   .     A
C453   C695    1.392   .     S
C454   C456    1.407   .     A
C454   O484    1.387   .     S
C455   C286    1.398   1_655 S
C457   O489    1.378   .     S
C457   C459    1.425   .     A
C457   N464    1.372   .     A
C458   O491    1.378   .     S
C458   N463    1.372   .     A
C458   C460    1.426   .     A
C459   H461    1.082   .     S
C459   N463    1.363   .     A
C460   N464    1.363   .     A
C460   H462    1.082   .     S
O465   H466    0.991   .     S
O467   H468    0.992   .     S
O469   C470    1.410   .     S
C470   H473    1.110   .     S
C470   H471    1.113   .     S
H472   C306    1.114   1_655 S
O474   C475    1.410   .     S
C475   H476    1.114   .     S
H477   C311    1.113   1_655 S
H478   C311    1.109   1_655 S
O479   C480    1.412   .     S
C480   H481    1.109   .     S
C480   H483    1.111   .     S
C480   H482    1.115   .     S
O484   C485    1.412   .     S
C485   H486    1.115   .     S
C485   H487    1.110   .     S
C485   H488    1.111   .     S
O489   H490    0.992   .     S
O491   H492    0.992   .     S
O493   C497    1.289   .     A
O493   Cu505   1.962   .     S
O494   C498    1.289   .     A
O494   Cu506   1.962   .     S
O495   Cu506   1.962   .     S
O495   C579    1.293   .     S
O496   Cu505   1.962   .     S
O496   C662    1.293   1_455 S
C497   C538    1.448   .     S
C497   O659    1.293   1_455 S
C498   C537    1.448   .     S
C498   O578    1.293   .     S
O499   Cu505   1.956   .     S
O499   C667    1.300   1_455 S
O500   Cu506   1.956   .     S
O500   C586    1.296   .     S
O501   Cu506   1.947   .     S
O501   C503    1.295   .     A
O502   C504    1.293   .     A
O502   Cu505   1.947   .     S
C503   C507    1.477   .     S
C503   O581    1.300   .     S
C504   C508    1.463   .     S
C504   O664    1.296   1_455 S
Cu505  N545    2.013   .     S
Cu505  Cu670   2.679   1_455 S
Cu506  N546    2.013   .     S
Cu506  Cu587   2.679   .     S
C507   C511    1.402   .     A
C507   C513    1.409   .     A
C508   C512    1.398   .     A
C508   C514    1.400   .     A
C509   C517    1.409   .     A
C509   C511    1.400   .     A
C509   O633    1.382   .     S
C510   C518    1.410   .     A
C510   O556    1.384   .     S
C510   C512    1.397   .     A
C511   H610    1.083   .     S
C512   H691    1.084   1_455 S
C513   O549    1.382   .     S
C513   C515    1.415   .     A
C514   C516    1.416   .     A
C514   O547    1.382   .     S
C515   C519    1.419   .     A
C515   C517    1.417   .     A
C516   C518    1.421   .     A
C516   C520    1.421   .     A
C517   C1261   1.400   .     S
C518   C1262   1.399   1_554 S
C519   C522    1.411   .     A
C519   C1258   1.412   .     S
C520   C521    1.412   .     A
C520   C1257   1.412   1_554 S
C521   C523    1.392   .     A
C521   H529    1.081   .     S
C522   H530    1.081   .     S
C522   C524    1.388   .     A
C523   H525    1.083   .     S
C523   C1255   1.400   1_554 S
C524   H526    1.083   .     S
C524   C1256   1.399   .     S
H527   C594    1.084   .     S
H528   C675    1.083   1_455 S
C531   H533    1.083   .     S
C531   C620    1.398   .     S
C532   H534    1.083   .     S
C532   C44     1.392   1_565 S
C532   C701    1.398   1_455 S
C535   O561    1.387   .     S
C535   C537    1.407   .     A
C535   C39     1.392   1_565 S
C536   C538    1.407   .     A
C536   O566    1.387   .     S
C537   C614    1.398   .     S
C538   C695    1.398   1_455 S
C539   O571    1.378   .     S
C539   C541    1.425   .     A
C539   N546    1.372   .     A
C540   O573    1.378   .     S
C540   N545    1.372   .     A
C540   C542    1.426   .     A
C541   H543    1.082   .     S
C541   N545    1.363   .     A
C542   N546    1.363   .     A
C542   H544    1.082   .     S
O547   H548    0.991   .     S
O549   H550    0.992   .     S
O551   C552    1.410   .     S
O551   C673    1.382   1_455 S
C552   H555    1.110   .     S
C552   H553    1.113   .     S
C552   H718    1.114   1_455 S
H554   C634    1.114   .     S
O556   C557    1.410   .     S
C557   H558    1.114   .     S
C557   H723    1.113   1_455 S
C557   H724    1.109   1_455 S
H559   C639    1.113   .     S
H560   C639    1.109   .     S
O561   C562    1.412   .     S
C562   H563    1.109   .     S
C562   H565    1.111   .     S
C562   H564    1.115   .     S
O566   C567    1.412   .     S
C567   H568    1.115   .     S
C567   H569    1.110   .     S
C567   H570    1.111   .     S
O571   H572    0.992   .     S
O573   H574    0.992   .     S
O575   C579    1.289   .     A
O575   Cu587   1.962   .     S
O576   C580    1.289   .     A
O576   Cu588   1.962   .     S
O577   Cu588   1.962   .     S
O577   C661    1.293   .     S
O578   Cu587   1.962   .     S
C579   C620    1.448   .     S
C580   C619    1.448   .     S
C580   O660    1.293   .     S
O581   Cu587   1.956   .     S
O582   Cu588   1.956   .     S
O582   C668    1.296   .     S
O583   Cu588   1.947   .     S
O583   C585    1.295   .     A
O584   C586    1.293   .     A
O584   Cu587   1.947   .     S
C585   C589    1.477   .     S
C585   O663    1.300   .     S
C586   C590    1.463   .     S
Cu587  N627    2.013   .     S
Cu588  N628    2.013   .     S
Cu588  Cu669   2.679   .     S
C589   C593    1.402   .     A
C589   C595    1.409   .     A
C590   C594    1.398   .     A
C590   C596    1.400   .     A
C591   C599    1.409   .     A
C591   C593    1.400   .     A
C591   O715    1.382   .     S
C592   C600    1.410   .     A
C592   O638    1.384   .     S
C592   C594    1.397   .     A
C593   H692    1.083   .     S
C595   O631    1.382   .     S
C595   C597    1.415   .     A
C596   C598    1.416   .     A
C596   O629    1.382   .     S
C597   C601    1.419   .     A
C597   C599    1.417   .     A
C598   C600    1.421   .     A
C598   C602    1.421   .     A
C599   C1343   1.400   .     S
C600   C1344   1.399   1_554 S
C601   C604    1.411   .     A
C601   C1340   1.412   .     S
C602   C603    1.412   .     A
C602   C1339   1.412   1_554 S
C603   C605    1.392   .     A
C603   H611    1.081   .     S
C604   H612    1.081   .     S
C604   C606    1.388   .     A
C605   H607    1.083   .     S
C605   C1337   1.400   1_554 S
C606   H608    1.083   .     S
C606   C1338   1.399   .     S
H609   C676    1.084   .     S
C613   H615    1.083   .     S
C613   C702    1.398   .     S
C614   H616    1.083   .     S
C614   C126    1.392   1_565 S
C617   O643    1.387   .     S
C617   C619    1.407   .     A
C617   C121    1.392   1_565 S
C618   C620    1.407   .     A
C618   O648    1.387   .     S
C619   C696    1.398   .     S
C621   O653    1.378   .     S
C621   C623    1.425   .     A
C621   N628    1.372   .     A
C622   O655    1.378   .     S
C622   N627    1.372   .     A
C622   C624    1.426   .     A
C623   H625    1.082   .     S
C623   N627    1.363   .     A
C624   N628    1.363   .     A
C624   H626    1.082   .     S
O629   H630    0.991   .     S
O631   H632    0.992   .     S
O633   C634    1.410   .     S
C634   H637    1.110   .     S
C634   H635    1.113   .     S
H636   C716    1.114   .     S
O638   C639    1.410   .     S
C639   H640    1.114   .     S
H641   C721    1.113   .     S
H642   C721    1.109   .     S
O643   C644    1.412   .     S
C644   H645    1.109   .     S
C644   H647    1.111   .     S
C644   H646    1.115   .     S
O648   C649    1.412   .     S
C649   H650    1.115   .     S
C649   H651    1.110   .     S
C649   H652    1.111   .     S
O653   H654    0.992   .     S
O655   H656    0.992   .     S
O657   C661    1.289   .     A
O657   Cu669   1.962   .     S
O658   C662    1.289   .     A
O658   Cu670   1.962   .     S
O659   Cu670   1.962   .     S
O659   C497    1.293   1_655 S
O660   Cu669   1.962   .     S
C661   C702    1.448   .     S
C662   C701    1.448   .     S
C662   O496    1.293   1_655 S
O663   Cu669   1.956   .     S
O664   Cu670   1.956   .     S
O664   C504    1.296   1_655 S
O665   Cu670   1.947   .     S
O665   C667    1.295   .     A
O666   C668    1.293   .     A
O666   Cu669   1.947   .     S
C667   C671    1.477   .     S
C667   O499    1.300   1_655 S
C668   C672    1.463   .     S
Cu669  N709    2.013   .     S
Cu670  N710    2.013   .     S
Cu670  Cu505   2.679   1_655 S
C671   C675    1.402   .     A
C671   C677    1.409   .     A
C672   C676    1.398   .     A
C672   C678    1.400   .     A
C673   C681    1.409   .     A
C673   C675    1.400   .     A
C673   O551    1.382   1_655 S
C674   C682    1.410   .     A
C674   O720    1.384   .     S
C674   C676    1.397   .     A
C675   H528    1.083   1_655 S
C677   O713    1.382   .     S
C677   C679    1.415   .     A
C678   C680    1.416   .     A
C678   O711    1.382   .     S
C679   C683    1.419   .     A
C679   C681    1.417   .     A
C680   C682    1.421   .     A
C680   C684    1.421   .     A
C681   C1425   1.400   .     S
C682   C1426   1.399   1_554 S
C683   C686    1.411   .     A
C683   C1422   1.412   .     S
C684   C685    1.412   .     A
C684   C1421   1.412   1_554 S
C685   C687    1.392   .     A
C685   H693    1.081   .     S
C686   H694    1.081   .     S
C686   C688    1.388   .     A
C687   H689    1.083   .     S
C687   C1419   1.400   1_554 S
C688   H690    1.083   .     S
C688   C1420   1.399   .     S
H691   C512    1.084   1_655 S
C695   H697    1.083   .     S
C695   C538    1.398   1_655 S
C696   H698    1.083   .     S
C696   C208    1.392   1_565 S
C699   O725    1.387   .     S
C699   C701    1.407   .     A
C699   C203    1.392   1_565 S
C700   C702    1.407   .     A
C700   O730    1.387   .     S
C701   C532    1.398   1_655 S
C703   O735    1.378   .     S
C703   C705    1.425   .     A
C703   N710    1.372   .     A
C704   O737    1.378   .     S
C704   N709    1.372   .     A
C704   C706    1.426   .     A
C705   H707    1.082   .     S
C705   N709    1.363   .     A
C706   N710    1.363   .     A
C706   H708    1.082   .     S
O711   H712    0.991   .     S
O713   H714    0.992   .     S
O715   C716    1.410   .     S
C716   H719    1.110   .     S
C716   H717    1.113   .     S
H718   C552    1.114   1_655 S
O720   C721    1.410   .     S
C721   H722    1.114   .     S
H723   C557    1.113   1_655 S
H724   C557    1.109   1_655 S
O725   C726    1.412   .     S
C726   H727    1.109   .     S
C726   H729    1.111   .     S
C726   H728    1.115   .     S
O730   C731    1.412   .     S
C731   H732    1.115   .     S
C731   H733    1.110   .     S
C731   H734    1.111   .     S
O735   H736    0.992   .     S
O737   H738    0.992   .     S
O739   C743    1.289   .     A
O739   Cu751   1.962   .     S
O740   C744    1.289   .     A
O740   Cu752   1.962   .     S
O741   Cu752   1.962   .     S
O741   C825    1.293   .     S
O742   Cu751   1.962   .     S
O742   C908    1.293   1_455 S
C743   C784    1.448   .     S
C743   O905    1.293   1_455 S
C744   C783    1.448   .     S
C744   O824    1.293   .     S
O745   Cu751   1.956   .     S
O745   C913    1.300   1_455 S
O746   Cu752   1.956   .     S
O746   C832    1.296   .     S
O747   Cu752   1.947   .     S
O747   C749    1.295   .     A
O748   C750    1.293   .     A
O748   Cu751   1.947   .     S
C749   C753    1.477   .     S
C749   O827    1.300   .     S
C750   C754    1.463   .     S
C750   O910    1.296   1_455 S
Cu751  N791    2.013   .     S
Cu751  Cu916   2.679   1_455 S
Cu752  N792    2.013   .     S
Cu752  Cu833   2.679   .     S
C753   C757    1.402   .     A
C753   C759    1.409   .     A
C754   C758    1.398   .     A
C754   C760    1.400   .     A
C755   C763    1.409   .     A
C755   C757    1.400   .     A
C755   O879    1.382   .     S
C756   C764    1.410   .     A
C756   O802    1.384   .     S
C756   C758    1.397   .     A
C757   H856    1.083   .     S
C758   H937    1.084   1_455 S
C759   O795    1.382   .     S
C759   C761    1.415   .     A
C760   C762    1.416   .     A
C760   O793    1.382   .     S
C761   C765    1.419   .     A
C761   C763    1.417   .     A
C762   C764    1.421   .     A
C762   C766    1.421   .     A
C763   C31     1.400   1_556 S
C765   C768    1.411   .     A
C765   C28     1.412   1_556 S
C766   C767    1.412   .     A
C767   C769    1.392   .     A
C767   H775    1.081   .     S
C768   H776    1.081   .     S
C768   C770    1.388   .     A
C769   H771    1.083   .     S
C770   H772    1.083   .     S
C770   C26     1.399   1_556 S
H773   C840    1.084   .     S
H774   C921    1.083   1_455 S
C777   H779    1.083   .     S
C777   C1273   1.392   1_545 S
C777   C866    1.398   .     S
C778   H780    1.083   .     S
C778   C1028   1.392   .     S
C778   C947    1.398   1_455 S
C781   O807    1.387   .     S
C781   C783    1.407   .     A
C781   C1023   1.392   .     S
C782   C784    1.407   .     A
C782   O812    1.387   .     S
C782   C1270   1.392   1_545 S
C783   C860    1.398   .     S
C784   C941    1.398   1_455 S
C785   O817    1.378   .     S
C785   C787    1.425   .     A
C785   N792    1.372   .     A
C786   O819    1.378   .     S
C786   N791    1.372   .     A
C786   C788    1.426   .     A
C787   H789    1.082   .     S
C787   N791    1.363   .     A
C788   N792    1.363   .     A
C788   H790    1.082   .     S
O793   H794    0.991   .     S
O795   H796    0.992   .     S
O797   C798    1.410   .     S
O797   C919    1.382   1_455 S
C798   H801    1.110   .     S
C798   H799    1.113   .     S
C798   H964    1.114   1_455 S
H800   C880    1.114   .     S
O802   C803    1.410   .     S
C803   H804    1.114   .     S
C803   H969    1.113   1_455 S
C803   H970    1.109   1_455 S
H805   C885    1.113   .     S
H806   C885    1.109   .     S
O807   C808    1.412   .     S
C808   H809    1.109   .     S
C808   H811    1.111   .     S
C808   H810    1.115   .     S
O812   C813    1.412   .     S
C813   H814    1.115   .     S
C813   H815    1.110   .     S
C813   H816    1.111   .     S
O817   H818    0.992   .     S
O819   H820    0.992   .     S
O821   C825    1.289   .     A
O821   Cu833   1.962   .     S
O822   C826    1.289   .     A
O822   Cu834   1.962   .     S
O823   Cu834   1.962   .     S
O823   C907    1.293   .     S
O824   Cu833   1.962   .     S
C825   C866    1.448   .     S
C826   C865    1.448   .     S
C826   O906    1.293   .     S
O827   Cu833   1.956   .     S
O828   Cu834   1.956   .     S
O828   C914    1.296   .     S
O829   Cu834   1.947   .     S
O829   C831    1.295   .     A
O830   C832    1.293   .     A
O830   Cu833   1.947   .     S
C831   C835    1.477   .     S
C831   O909    1.300   .     S
C832   C836    1.463   .     S
Cu833  N873    2.013   .     S
Cu834  N874    2.013   .     S
Cu834  Cu915   2.679   .     S
C835   C839    1.402   .     A
C835   C841    1.409   .     A
C836   C840    1.398   .     A
C836   C842    1.400   .     A
C837   C845    1.409   .     A
C837   C839    1.400   .     A
C837   O961    1.382   .     S
C838   C846    1.410   .     A
C838   O884    1.384   .     S
C838   C840    1.397   .     A
C839   H938    1.083   .     S
C841   O877    1.382   .     S
C841   C843    1.415   .     A
C842   C844    1.416   .     A
C842   O875    1.382   .     S
C843   C847    1.419   .     A
C843   C845    1.417   .     A
C844   C846    1.421   .     A
C844   C848    1.421   .     A
C845   C113    1.400   1_556 S
C847   C850    1.411   .     A
C847   C110    1.412   1_556 S
C848   C849    1.412   .     A
C849   C851    1.392   .     A
C849   H857    1.081   .     S
C850   H858    1.081   .     S
C850   C852    1.388   .     A
C851   H853    1.083   .     S
C852   H854    1.083   .     S
C852   C108    1.399   1_556 S
H855   C922    1.084   .     S
C859   H861    1.083   .     S
C859   C1355   1.392   1_545 S
C859   C948    1.398   .     S
C860   H862    1.083   .     S
C860   C1110   1.392   .     S
C863   O889    1.387   .     S
C863   C865    1.407   .     A
C863   C1105   1.392   .     S
C864   C866    1.407   .     A
C864   O894    1.387   .     S
C864   C1352   1.392   1_545 S
C865   C942    1.398   .     S
C867   O899    1.378   .     S
C867   C869    1.425   .     A
C867   N874    1.372   .     A
C868   O901    1.378   .     S
C868   N873    1.372   .     A
C868   C870    1.426   .     A
C869   H871    1.082   .     S
C869   N873    1.363   .     A
C870   N874    1.363   .     A
C870   H872    1.082   .     S
O875   H876    0.991   .     S
O877   H878    0.992   .     S
O879   C880    1.410   .     S
C880   H883    1.110   .     S
C880   H881    1.113   .     S
H882   C962    1.114   .     S
O884   C885    1.410   .     S
C885   H886    1.114   .     S
H887   C967    1.113   .     S
H888   C967    1.109   .     S
O889   C890    1.412   .     S
C890   H891    1.109   .     S
C890   H893    1.111   .     S
C890   H892    1.115   .     S
O894   C895    1.412   .     S
C895   H896    1.115   .     S
C895   H897    1.110   .     S
C895   H898    1.111   .     S
O899   H900    0.992   .     S
O901   H902    0.992   .     S
O903   C907    1.289   .     A
O903   Cu915   1.962   .     S
O904   C908    1.289   .     A
O904   Cu916   1.962   .     S
O905   Cu916   1.962   .     S
O905   C743    1.293   1_655 S
O906   Cu915   1.962   .     S
C907   C948    1.448   .     S
C908   C947    1.448   .     S
C908   O742    1.293   1_655 S
O909   Cu915   1.956   .     S
O910   Cu916   1.956   .     S
O910   C750    1.296   1_655 S
O911   Cu916   1.947   .     S
O911   C913    1.295   .     A
O912   C914    1.293   .     A
O912   Cu915   1.947   .     S
C913   C917    1.477   .     S
C913   O745    1.300   1_655 S
C914   C918    1.463   .     S
Cu915  N955    2.013   .     S
Cu916  N956    2.013   .     S
Cu916  Cu751   2.679   1_655 S
C917   C921    1.402   .     A
C917   C923    1.409   .     A
C918   C922    1.398   .     A
C918   C924    1.400   .     A
C919   C927    1.409   .     A
C919   C921    1.400   .     A
C919   O797    1.382   1_655 S
C920   C928    1.410   .     A
C920   O966    1.384   .     S
C920   C922    1.397   .     A
C921   H774    1.083   1_655 S
C923   O959    1.382   .     S
C923   C925    1.415   .     A
C924   C926    1.416   .     A
C924   O957    1.382   .     S
C925   C929    1.419   .     A
C925   C927    1.417   .     A
C926   C928    1.421   .     A
C926   C930    1.421   .     A
C927   C195    1.400   1_556 S
C929   C932    1.411   .     A
C929   C192    1.412   1_556 S
C930   C931    1.412   .     A
C931   C933    1.392   .     A
C931   H939    1.081   .     S
C932   H940    1.081   .     S
C932   C934    1.388   .     A
C933   H935    1.083   .     S
C934   H936    1.083   .     S
C934   C190    1.399   1_556 S
H937   C758    1.084   1_655 S
C941   H943    1.083   .     S
C941   C1437   1.392   1_545 S
C941   C784    1.398   1_655 S
C942   H944    1.083   .     S
C942   C1192   1.392   .     S
C945   O971    1.387   .     S
C945   C947    1.407   .     A
C945   C1187   1.392   .     S
C946   C948    1.407   .     A
C946   O976    1.387   .     S
C946   C1434   1.392   1_545 S
C947   C778    1.398   1_655 S
C949   O981    1.378   .     S
C949   C951    1.425   .     A
C949   N956    1.372   .     A
C950   O983    1.378   .     S
C950   N955    1.372   .     A
C950   C952    1.426   .     A
C951   H953    1.082   .     S
C951   N955    1.363   .     A
C952   N956    1.363   .     A
C952   H954    1.082   .     S
O957   H958    0.991   .     S
O959   H960    0.992   .     S
O961   C962    1.410   .     S
C962   H965    1.110   .     S
C962   H963    1.113   .     S
H964   C798    1.114   1_655 S
O966   C967    1.410   .     S
C967   H968    1.114   .     S
H969   C803    1.113   1_655 S
H970   C803    1.109   1_655 S
O971   C972    1.412   .     S
C972   H973    1.109   .     S
C972   H975    1.111   .     S
C972   H974    1.115   .     S
O976   C977    1.412   .     S
C977   H978    1.115   .     S
C977   H979    1.110   .     S
C977   H980    1.111   .     S
O981   H982    0.992   .     S
O983   H984    0.992   .     S
O985   C989    1.289   .     A
O985   Cu997   1.962   .     S
O986   C990    1.289   .     A
O986   Cu998   1.962   .     S
O987   Cu998   1.962   .     S
O987   C1071   1.293   .     S
O988   Cu997   1.962   .     S
O988   C1154   1.293   1_455 S
C989   C1030   1.448   .     S
C989   O1151   1.293   1_455 S
C990   C1029   1.448   .     S
C990   O1070   1.293   .     S
O991   Cu997   1.956   .     S
O991   C1159   1.300   1_455 S
O992   Cu998   1.956   .     S
O992   C1078   1.296   .     S
O993   Cu998   1.947   .     S
O993   C995    1.295   .     A
O994   C996    1.293   .     A
O994   Cu997   1.947   .     S
C995   C999    1.477   .     S
C995   O1073   1.300   .     S
C996   C1000   1.463   .     S
C996   O1156   1.296   1_455 S
Cu997  N1037   2.013   .     S
Cu997  Cu1162  2.679   1_455 S
Cu998  N1038   2.013   .     S
Cu998  Cu1079  2.679   .     S
C999   C1003   1.402   .     A
C999   C1005   1.409   .     A
C1000  C1004   1.398   .     A
C1000  C1006   1.400   .     A
C1001  C1009   1.409   .     A
C1001  C1003   1.400   .     A
C1001  O1125   1.382   .     S
C1002  C1010   1.410   .     A
C1002  O1048   1.384   .     S
C1002  C1004   1.397   .     A
C1003  H1102   1.083   .     S
C1004  H1183   1.084   1_455 S
C1005  O1041   1.382   .     S
C1005  C1007   1.415   .     A
C1006  C1008   1.416   .     A
C1006  O1039   1.382   .     S
C1007  C1011   1.419   .     A
C1007  C1009   1.417   .     A
C1008  C1010   1.421   .     A
C1008  C1012   1.421   .     A
C1009  C277    1.400   1_556 S
C1011  C1014   1.411   .     A
C1011  C274    1.412   1_556 S
C1012  C1013   1.412   .     A
C1013  C1015   1.392   .     A
C1013  H1021   1.081   .     S
C1014  H1022   1.081   .     S
C1014  C1016   1.388   .     A
C1015  H1017   1.083   .     S
C1016  H1018   1.083   .     S
C1016  C272    1.399   1_556 S
H1019  C1086   1.084   .     S
H1020  C1167   1.083   1_455 S
C1023  H1025   1.083   .     S
C1023  C1112   1.398   .     S
C1024  H1026   1.083   .     S
C1024  C1274   1.392   .     S
C1024  C1193   1.398   1_455 S
C1027  O1053   1.387   .     S
C1027  C1029   1.407   .     A
C1027  C1269   1.392   .     S
C1028  C1030   1.407   .     A
C1028  O1058   1.387   .     S
C1029  C1106   1.398   .     S
C1030  C1187   1.398   1_455 S
C1031  O1063   1.378   .     S
C1031  C1033   1.425   .     A
C1031  N1038   1.372   .     A
C1032  O1065   1.378   .     S
C1032  N1037   1.372   .     A
C1032  C1034   1.426   .     A
C1033  H1035   1.082   .     S
C1033  N1037   1.363   .     A
C1034  N1038   1.363   .     A
C1034  H1036   1.082   .     S
O1039  H1040   0.991   .     S
O1041  H1042   0.992   .     S
O1043  C1044   1.410   .     S
O1043  C1165   1.382   1_455 S
C1044  H1047   1.110   .     S
C1044  H1045   1.113   .     S
C1044  H1210   1.114   1_455 S
H1046  C1126   1.114   .     S
O1048  C1049   1.410   .     S
C1049  H1050   1.114   .     S
C1049  H1215   1.113   1_455 S
C1049  H1216   1.109   1_455 S
H1051  C1131   1.113   .     S
H1052  C1131   1.109   .     S
O1053  C1054   1.412   .     S
C1054  H1055   1.109   .     S
C1054  H1057   1.111   .     S
C1054  H1056   1.115   .     S
O1058  C1059   1.412   .     S
C1059  H1060   1.115   .     S
C1059  H1061   1.110   .     S
C1059  H1062   1.111   .     S
O1063  H1064   0.992   .     S
O1065  H1066   0.992   .     S
O1067  C1071   1.289   .     A
O1067  Cu1079  1.962   .     S
O1068  C1072   1.289   .     A
O1068  Cu1080  1.962   .     S
O1069  Cu1080  1.962   .     S
O1069  C1153   1.293   .     S
O1070  Cu1079  1.962   .     S
C1071  C1112   1.448   .     S
C1072  C1111   1.448   .     S
C1072  O1152   1.293   .     S
O1073  Cu1079  1.956   .     S
O1074  Cu1080  1.956   .     S
O1074  C1160   1.296   .     S
O1075  Cu1080  1.947   .     S
O1075  C1077   1.295   .     A
O1076  C1078   1.293   .     A
O1076  Cu1079  1.947   .     S
C1077  C1081   1.477   .     S
C1077  O1155   1.300   .     S
C1078  C1082   1.463   .     S
Cu1079 N1119   2.013   .     S
Cu1080 N1120   2.013   .     S
Cu1080 Cu1161  2.679   .     S
C1081  C1085   1.402   .     A
C1081  C1087   1.409   .     A
C1082  C1086   1.398   .     A
C1082  C1088   1.400   .     A
C1083  C1091   1.409   .     A
C1083  C1085   1.400   .     A
C1083  O1207   1.382   .     S
C1084  C1092   1.410   .     A
C1084  O1130   1.384   .     S
C1084  C1086   1.397   .     A
C1085  H1184   1.083   .     S
C1087  O1123   1.382   .     S
C1087  C1089   1.415   .     A
C1088  C1090   1.416   .     A
C1088  O1121   1.382   .     S
C1089  C1093   1.419   .     A
C1089  C1091   1.417   .     A
C1090  C1092   1.421   .     A
C1090  C1094   1.421   .     A
C1091  C359    1.400   1_556 S
C1093  C1096   1.411   .     A
C1093  C356    1.412   1_556 S
C1094  C1095   1.412   .     A
C1095  C1097   1.392   .     A
C1095  H1103   1.081   .     S
C1096  H1104   1.081   .     S
C1096  C1098   1.388   .     A
C1097  H1099   1.083   .     S
C1098  H1100   1.083   .     S
C1098  C354    1.399   1_556 S
H1101  C1168   1.084   .     S
C1105  H1107   1.083   .     S
C1105  C1194   1.398   .     S
C1106  H1108   1.083   .     S
C1106  C1356   1.392   .     S
C1109  O1135   1.387   .     S
C1109  C1111   1.407   .     A
C1109  C1351   1.392   .     S
C1110  C1112   1.407   .     A
C1110  O1140   1.387   .     S
C1111  C1188   1.398   .     S
C1113  O1145   1.378   .     S
C1113  C1115   1.425   .     A
C1113  N1120   1.372   .     A
C1114  O1147   1.378   .     S
C1114  N1119   1.372   .     A
C1114  C1116   1.426   .     A
C1115  H1117   1.082   .     S
C1115  N1119   1.363   .     A
C1116  N1120   1.363   .     A
C1116  H1118   1.082   .     S
O1121  H1122   0.991   .     S
O1123  H1124   0.992   .     S
O1125  C1126   1.410   .     S
C1126  H1129   1.110   .     S
C1126  H1127   1.113   .     S
H1128  C1208   1.114   .     S
O1130  C1131   1.410   .     S
C1131  H1132   1.114   .     S
H1133  C1213   1.113   .     S
H1134  C1213   1.109   .     S
O1135  C1136   1.412   .     S
C1136  H1137   1.109   .     S
C1136  H1139   1.111   .     S
C1136  H1138   1.115   .     S
O1140  C1141   1.412   .     S
C1141  H1142   1.115   .     S
C1141  H1143   1.110   .     S
C1141  H1144   1.111   .     S
O1145  H1146   0.992   .     S
O1147  H1148   0.992   .     S
O1149  C1153   1.289   .     A
O1149  Cu1161  1.962   .     S
O1150  C1154   1.289   .     A
O1150  Cu1162  1.962   .     S
O1151  Cu1162  1.962   .     S
O1151  C989    1.293   1_655 S
O1152  Cu1161  1.962   .     S
C1153  C1194   1.448   .     S
C1154  C1193   1.448   .     S
C1154  O988    1.293   1_655 S
O1155  Cu1161  1.956   .     S
O1156  Cu1162  1.956   .     S
O1156  C996    1.296   1_655 S
O1157  Cu1162  1.947   .     S
O1157  C1159   1.295   .     A
O1158  C1160   1.293   .     A
O1158  Cu1161  1.947   .     S
C1159  C1163   1.477   .     S
C1159  O991    1.300   1_655 S
C1160  C1164   1.463   .     S
Cu1161 N1201   2.013   .     S
Cu1162 N1202   2.013   .     S
Cu1162 Cu997   2.679   1_655 S
C1163  C1167   1.402   .     A
C1163  C1169   1.409   .     A
C1164  C1168   1.398   .     A
C1164  C1170   1.400   .     A
C1165  C1173   1.409   .     A
C1165  C1167   1.400   .     A
C1165  O1043   1.382   1_655 S
C1166  C1174   1.410   .     A
C1166  O1212   1.384   .     S
C1166  C1168   1.397   .     A
C1167  H1020   1.083   1_655 S
C1169  O1205   1.382   .     S
C1169  C1171   1.415   .     A
C1170  C1172   1.416   .     A
C1170  O1203   1.382   .     S
C1171  C1175   1.419   .     A
C1171  C1173   1.417   .     A
C1172  C1174   1.421   .     A
C1172  C1176   1.421   .     A
C1173  C441    1.400   1_556 S
C1175  C1178   1.411   .     A
C1175  C438    1.412   1_556 S
C1176  C1177   1.412   .     A
C1177  C1179   1.392   .     A
C1177  H1185   1.081   .     S
C1178  H1186   1.081   .     S
C1178  C1180   1.388   .     A
C1179  H1181   1.083   .     S
C1180  H1182   1.083   .     S
C1180  C436    1.399   1_556 S
H1183  C1004   1.084   1_655 S
C1187  H1189   1.083   .     S
C1187  C1030   1.398   1_655 S
C1188  H1190   1.083   .     S
C1188  C1438   1.392   .     S
C1191  O1217   1.387   .     S
C1191  C1193   1.407   .     A
C1191  C1433   1.392   .     S
C1192  C1194   1.407   .     A
C1192  O1222   1.387   .     S
C1193  C1024   1.398   1_655 S
C1195  O1227   1.378   .     S
C1195  C1197   1.425   .     A
C1195  N1202   1.372   .     A
C1196  O1229   1.378   .     S
C1196  N1201   1.372   .     A
C1196  C1198   1.426   .     A
C1197  H1199   1.082   .     S
C1197  N1201   1.363   .     A
C1198  N1202   1.363   .     A
C1198  H1200   1.082   .     S
O1203  H1204   0.991   .     S
O1205  H1206   0.992   .     S
O1207  C1208   1.410   .     S
C1208  H1211   1.110   .     S
C1208  H1209   1.113   .     S
H1210  C1044   1.114   1_655 S
O1212  C1213   1.410   .     S
C1213  H1214   1.114   .     S
H1215  C1049   1.113   1_655 S
H1216  C1049   1.109   1_655 S
O1217  C1218   1.412   .     S
C1218  H1219   1.109   .     S
C1218  H1221   1.111   .     S
C1218  H1220   1.115   .     S
O1222  C1223   1.412   .     S
C1223  H1224   1.115   .     S
C1223  H1225   1.110   .     S
C1223  H1226   1.111   .     S
O1227  H1228   0.992   .     S
O1229  H1230   0.992   .     S
O1231  C1235   1.289   .     A
O1231  Cu1243  1.962   .     S
O1232  C1236   1.289   .     A
O1232  Cu1244  1.962   .     S
O1233  Cu1244  1.962   .     S
O1233  C1317   1.293   .     S
O1234  Cu1243  1.962   .     S
O1234  C1400   1.293   1_455 S
C1235  C1276   1.448   .     S
C1235  O1397   1.293   1_455 S
C1236  C1275   1.448   .     S
C1236  O1316   1.293   .     S
O1237  Cu1243  1.956   .     S
O1237  C1405   1.300   1_455 S
O1238  Cu1244  1.956   .     S
O1238  C1324   1.296   .     S
O1239  Cu1244  1.947   .     S
O1239  C1241   1.295   .     A
O1240  C1242   1.293   .     A
O1240  Cu1243  1.947   .     S
C1241  C1245   1.477   .     S
C1241  O1319   1.300   .     S
C1242  C1246   1.463   .     S
C1242  O1402   1.296   1_455 S
Cu1243 N1283   2.013   .     S
Cu1243 Cu1408  2.679   1_455 S
Cu1244 N1284   2.013   .     S
Cu1244 Cu1325  2.679   .     S
C1245  C1249   1.402   .     A
C1245  C1251   1.409   .     A
C1246  C1250   1.398   .     A
C1246  C1252   1.400   .     A
C1247  C1255   1.409   .     A
C1247  C1249   1.400   .     A
C1247  O1371   1.382   .     S
C1248  C1256   1.410   .     A
C1248  O1294   1.384   .     S
C1248  C1250   1.397   .     A
C1249  H1348   1.083   .     S
C1250  H1429   1.084   1_455 S
C1251  O1287   1.382   .     S
C1251  C1253   1.415   .     A
C1252  C1254   1.416   .     A
C1252  O1285   1.382   .     S
C1253  C1257   1.419   .     A
C1253  C1255   1.417   .     A
C1254  C1256   1.421   .     A
C1254  C1258   1.421   .     A
C1255  C523    1.400   1_556 S
C1257  C1260   1.411   .     A
C1257  C520    1.412   1_556 S
C1258  C1259   1.412   .     A
C1259  C1261   1.392   .     A
C1259  H1267   1.081   .     S
C1260  H1268   1.081   .     S
C1260  C1262   1.388   .     A
C1261  H1263   1.083   .     S
C1262  H1264   1.083   .     S
C1262  C518    1.399   1_556 S
H1265  C1332   1.084   .     S
H1266  C1413   1.083   1_455 S
C1269  H1271   1.083   .     S
C1269  C1358   1.398   .     S
C1270  H1272   1.083   .     S
C1270  C782    1.392   1_565 S
C1270  C1439   1.398   1_455 S
C1273  O1299   1.387   .     S
C1273  C1275   1.407   .     A
C1273  C777    1.392   1_565 S
C1274  C1276   1.407   .     A
C1274  O1304   1.387   .     S
C1275  C1352   1.398   .     S
C1276  C1433   1.398   1_455 S
C1277  O1309   1.378   .     S
C1277  C1279   1.425   .     A
C1277  N1284   1.372   .     A
C1278  O1311   1.378   .     S
C1278  N1283   1.372   .     A
C1278  C1280   1.426   .     A
C1279  H1281   1.082   .     S
C1279  N1283   1.363   .     A
C1280  N1284   1.363   .     A
C1280  H1282   1.082   .     S
O1285  H1286   0.991   .     S
O1287  H1288   0.992   .     S
O1289  C1290   1.410   .     S
O1289  C1411   1.382   1_455 S
C1290  H1293   1.110   .     S
C1290  H1291   1.113   .     S
C1290  H1456   1.114   1_455 S
H1292  C1372   1.114   .     S
O1294  C1295   1.410   .     S
C1295  H1296   1.114   .     S
C1295  H1461   1.113   1_455 S
C1295  H1462   1.109   1_455 S
H1297  C1377   1.113   .     S
H1298  C1377   1.109   .     S
O1299  C1300   1.412   .     S
C1300  H1301   1.109   .     S
C1300  H1303   1.111   .     S
C1300  H1302   1.115   .     S
O1304  C1305   1.412   .     S
C1305  H1306   1.115   .     S
C1305  H1307   1.110   .     S
C1305  H1308   1.111   .     S
O1309  H1310   0.992   .     S
O1311  H1312   0.992   .     S
O1313  C1317   1.289   .     A
O1313  Cu1325  1.962   .     S
O1314  C1318   1.289   .     A
O1314  Cu1326  1.962   .     S
O1315  Cu1326  1.962   .     S
O1315  C1399   1.293   .     S
O1316  Cu1325  1.962   .     S
C1317  C1358   1.448   .     S
C1318  C1357   1.448   .     S
C1318  O1398   1.293   .     S
O1319  Cu1325  1.956   .     S
O1320  Cu1326  1.956   .     S
O1320  C1406   1.296   .     S
O1321  Cu1326  1.947   .     S
O1321  C1323   1.295   .     A
O1322  C1324   1.293   .     A
O1322  Cu1325  1.947   .     S
C1323  C1327   1.477   .     S
C1323  O1401   1.300   .     S
C1324  C1328   1.463   .     S
Cu1325 N1365   2.013   .     S
Cu1326 N1366   2.013   .     S
Cu1326 Cu1407  2.679   .     S
C1327  C1331   1.402   .     A
C1327  C1333   1.409   .     A
C1328  C1332   1.398   .     A
C1328  C1334   1.400   .     A
C1329  C1337   1.409   .     A
C1329  C1331   1.400   .     A
C1329  O1453   1.382   .     S
C1330  C1338   1.410   .     A
C1330  O1376   1.384   .     S
C1330  C1332   1.397   .     A
C1331  H1430   1.083   .     S
C1333  O1369   1.382   .     S
C1333  C1335   1.415   .     A
C1334  C1336   1.416   .     A
C1334  O1367   1.382   .     S
C1335  C1339   1.419   .     A
C1335  C1337   1.417   .     A
C1336  C1338   1.421   .     A
C1336  C1340   1.421   .     A
C1337  C605    1.400   1_556 S
C1339  C1342   1.411   .     A
C1339  C602    1.412   1_556 S
C1340  C1341   1.412   .     A
C1341  C1343   1.392   .     A
C1341  H1349   1.081   .     S
C1342  H1350   1.081   .     S
C1342  C1344   1.388   .     A
C1343  H1345   1.083   .     S
C1344  H1346   1.083   .     S
C1344  C600    1.399   1_556 S
H1347  C1414   1.084   .     S
C1351  H1353   1.083   .     S
C1351  C1440   1.398   .     S
C1352  H1354   1.083   .     S
C1352  C864    1.392   1_565 S
C1355  O1381   1.387   .     S
C1355  C1357   1.407   .     A
C1355  C859    1.392   1_565 S
C1356  C1358   1.407   .     A
C1356  O1386   1.387   .     S
C1357  C1434   1.398   .     S
C1359  O1391   1.378   .     S
C1359  C1361   1.425   .     A
C1359  N1366   1.372   .     A
C1360  O1393   1.378   .     S
C1360  N1365   1.372   .     A
C1360  C1362   1.426   .     A
C1361  H1363   1.082   .     S
C1361  N1365   1.363   .     A
C1362  N1366   1.363   .     A
C1362  H1364   1.082   .     S
O1367  H1368   0.991   .     S
O1369  H1370   0.992   .     S
O1371  C1372   1.410   .     S
C1372  H1375   1.110   .     S
C1372  H1373   1.113   .     S
H1374  C1454   1.114   .     S
O1376  C1377   1.410   .     S
C1377  H1378   1.114   .     S
H1379  C1459   1.113   .     S
H1380  C1459   1.109   .     S
O1381  C1382   1.412   .     S
C1382  H1383   1.109   .     S
C1382  H1385   1.111   .     S
C1382  H1384   1.115   .     S
O1386  C1387   1.412   .     S
C1387  H1388   1.115   .     S
C1387  H1389   1.110   .     S
C1387  H1390   1.111   .     S
O1391  H1392   0.992   .     S
O1393  H1394   0.992   .     S
O1395  C1399   1.289   .     A
O1395  Cu1407  1.962   .     S
O1396  C1400   1.289   .     A
O1396  Cu1408  1.962   .     S
O1397  Cu1408  1.962   .     S
O1397  C1235   1.293   1_655 S
O1398  Cu1407  1.962   .     S
C1399  C1440   1.448   .     S
C1400  C1439   1.448   .     S
C1400  O1234   1.293   1_655 S
O1401  Cu1407  1.956   .     S
O1402  Cu1408  1.956   .     S
O1402  C1242   1.296   1_655 S
O1403  Cu1408  1.947   .     S
O1403  C1405   1.295   .     A
O1404  C1406   1.293   .     A
O1404  Cu1407  1.947   .     S
C1405  C1409   1.477   .     S
C1405  O1237   1.300   1_655 S
C1406  C1410   1.463   .     S
Cu1407 N1447   2.013   .     S
Cu1408 N1448   2.013   .     S
Cu1408 Cu1243  2.679   1_655 S
C1409  C1413   1.402   .     A
C1409  C1415   1.409   .     A
C1410  C1414   1.398   .     A
C1410  C1416   1.400   .     A
C1411  C1419   1.409   .     A
C1411  C1413   1.400   .     A
C1411  O1289   1.382   1_655 S
C1412  C1420   1.410   .     A
C1412  O1458   1.384   .     S
C1412  C1414   1.397   .     A
C1413  H1266   1.083   1_655 S
C1415  O1451   1.382   .     S
C1415  C1417   1.415   .     A
C1416  C1418   1.416   .     A
C1416  O1449   1.382   .     S
C1417  C1421   1.419   .     A
C1417  C1419   1.417   .     A
C1418  C1420   1.421   .     A
C1418  C1422   1.421   .     A
C1419  C687    1.400   1_556 S
C1421  C1424   1.411   .     A
C1421  C684    1.412   1_556 S
C1422  C1423   1.412   .     A
C1423  C1425   1.392   .     A
C1423  H1431   1.081   .     S
C1424  H1432   1.081   .     S
C1424  C1426   1.388   .     A
C1425  H1427   1.083   .     S
C1426  H1428   1.083   .     S
C1426  C682    1.399   1_556 S
H1429  C1250   1.084   1_655 S
C1433  H1435   1.083   .     S
C1433  C1276   1.398   1_655 S
C1434  H1436   1.083   .     S
C1434  C946    1.392   1_565 S
C1437  O1463   1.387   .     S
C1437  C1439   1.407   .     A
C1437  C941    1.392   1_565 S
C1438  C1440   1.407   .     A
C1438  O1468   1.387   .     S
C1439  C1270   1.398   1_655 S
C1441  O1473   1.378   .     S
C1441  C1443   1.425   .     A
C1441  N1448   1.372   .     A
C1442  O1475   1.378   .     S
C1442  N1447   1.372   .     A
C1442  C1444   1.426   .     A
C1443  H1445   1.082   .     S
C1443  N1447   1.363   .     A
C1444  N1448   1.363   .     A
C1444  H1446   1.082   .     S
O1449  H1450   0.991   .     S
O1451  H1452   0.992   .     S
O1453  C1454   1.410   .     S
C1454  H1457   1.110   .     S
C1454  H1455   1.113   .     S
H1456  C1290   1.114   1_655 S
O1458  C1459   1.410   .     S
C1459  H1460   1.114   .     S
H1461  C1295   1.113   1_655 S
H1462  C1295   1.109   1_655 S
O1463  C1464   1.412   .     S
C1464  H1465   1.109   .     S
C1464  H1467   1.111   .     S
C1464  H1466   1.115   .     S
O1468  C1469   1.412   .     S
C1469  H1470   1.115   .     S
C1469  H1471   1.110   .     S
C1469  H1472   1.111   .     S
O1473  H1474   0.992   .     S
O1475  H1476   0.992   .     S
