data_str_m1_o5_o17_pcu_sym.28
_audit_creation_date              2020-01-03
_audit_creation_method            'Materials Studio'
_symmetry_space_group_name_H-M    'P1'
_symmetry_Int_Tables_number       1
_symmetry_cell_setting            triclinic
loop_
_symmetry_equiv_pos_as_xyz
  x,y,z
_cell_length_a                    31.7245
_cell_length_b                    31.7298
_cell_length_c                    34.6535
_cell_angle_alpha                 90.0020
_cell_angle_beta                  89.9948
_cell_angle_gamma                 90.0364
loop_
_atom_site_label
_atom_site_type_symbol
_atom_site_fract_x
_atom_site_fract_y
_atom_site_fract_z
_atom_site_U_iso_or_equiv
_atom_site_adp_type
_atom_site_occupancy
C1     C     0.24968   0.00001   0.35619   0.00000  Uiso   1.00
C2     C     0.33001   0.41999   0.75000   0.00000  Uiso   1.00
C3     C     0.45496   0.18608   0.01977   0.00000  Uiso   1.00
C4     C     0.32424   0.02019   0.97961   0.00000  Uiso   1.00
C5     C     0.17520   0.47898   0.01998   0.00000  Uiso   1.00
C6     C     0.45418   0.18641   0.97931   0.00000  Uiso   1.00
C7     C     0.04506   0.31149   0.01984   0.00000  Uiso   1.00
C8     C     0.07923   0.19483   0.39495   0.00000  Uiso   1.00
C9     C     0.09730   0.17294   0.43053   0.00000  Uiso   1.00
C10    C     0.44712   0.17056   0.60885   0.00000  Uiso   1.00
C11    C     0.43727   0.14120   0.57512   0.00000  Uiso   1.00
C12    C     0.26544   0.40079   0.40020   0.00000  Uiso   1.00
C13    C     0.42000   0.17000   0.25000   0.00000  Uiso   1.00
C14    C     0.25787   0.36203   0.37533   0.00000  Uiso   1.00
C15    C     0.33929   0.03852   0.60738   0.00000  Uiso   1.00
C16    C     0.36613   0.06633   0.63336   0.00000  Uiso   1.00
C17    C     0.41558   0.30144   0.40012   0.00000  Uiso   1.00
C18    C     0.37533   0.30984   0.37760   0.00000  Uiso   1.00
C19    C     0.05276   0.32980   0.60950   0.00000  Uiso   1.00
C20    C     0.06230   0.35973   0.57611   0.00000  Uiso   1.00
C21    C     0.22530   0.09451   0.39658   0.00000  Uiso   1.00
C22    C     0.21753   0.12579   0.42920   0.00000  Uiso   1.00
C23    C     0.16094   0.46099   0.60673   0.00000  Uiso   1.00
C24    C     0.08001   0.32999   0.75001   0.00000  Uiso   1.00
C25    C     0.13402   0.43387   0.63325   0.00000  Uiso   1.00
C26    C     0.29947   0.08136   0.89030   0.00000  Uiso   1.00
C27    C     0.30756   0.11184   0.92358   0.00000  Uiso   1.00
C28    C     0.16204   0.04527   0.09858   0.00000  Uiso   1.00
C29    C     0.12145   0.05144   0.12125   0.00000  Uiso   1.00
C30    C     0.40701   0.22006   0.89208   0.00000  Uiso   1.00
C31    C     0.37772   0.19516   0.86585   0.00000  Uiso   1.00
C32    C     0.48306   0.34646   0.10277   0.00000  Uiso   1.00
C33    C     0.47810   0.37778   0.06969   0.00000  Uiso   1.00
C34    C     0.19566   0.42043   0.89195   0.00000  Uiso   1.00
C35    C     0.33001   0.41999   0.25000   0.00000  Uiso   1.00
C36    C     0.16279   0.39912   0.86673   0.00000  Uiso   1.00
C37    C     0.33274   0.44904   0.10547   0.00000  Uiso   1.00
C38    C     0.35625   0.42929   0.07157   0.00000  Uiso   1.00
C39    C     0.09343   0.26791   0.89443   0.00000  Uiso   1.00
C40    C     0.13087   0.29101   0.87723   0.00000  Uiso   1.00
C41    C     0.00877   0.14999   0.09852   0.00000  Uiso   1.00
C42    C     0.49976   0.11148   0.12333   0.00000  Uiso   1.00
C43    C     0.16999   0.08000   0.75000   0.00000  Uiso   1.00
C44    C     0.08000   0.33000   0.25000   0.00000  Uiso   1.00
C45    C     0.42000   0.17000   0.74999   0.00000  Uiso   1.00
C46    C     0.17001   0.41999   0.75002   0.00000  Uiso   1.00
C47    C     0.33000   0.08000   0.25000   0.00000  Uiso   1.00
C48    C     0.41999   0.33000   0.75000   0.00000  Uiso   1.00
C49    C     0.25002   0.49998   0.64412   0.00000  Uiso   1.00
C50    C     0.08000   0.16999   0.25000   0.00000  Uiso   1.00
C51    C     0.32999   0.08001   0.75002   0.00000  Uiso   1.00
C52    C     0.17000   0.42000   0.25000   0.00000  Uiso   1.00
C53    C     0.08001   0.17000   0.75000   0.00000  Uiso   1.00
C54    C     0.42000   0.33001   0.25001   0.00000  Uiso   1.00
C55    C     0.13834   0.38834   0.25000   0.00000  Uiso   1.00
C56    C     0.36165   0.11166   0.75001   0.00000  Uiso   1.00
C57    C     0.11166   0.13833   0.25000   0.00000  Uiso   1.00
C58    C     0.38834   0.36166   0.75000   0.00000  Uiso   1.00
C59    C     0.36166   0.11166   0.24999   0.00000  Uiso   1.00
C60    C     0.49997   0.24983   0.35618   0.00000  Uiso   1.00
C61    C     0.13836   0.38833   0.75003   0.00000  Uiso   1.00
C62    C     0.38834   0.36166   0.25002   0.00000  Uiso   1.00
C63    C     0.11167   0.13834   0.75000   0.00000  Uiso   1.00
C64    C     0.13834   0.11166   0.75001   0.00000  Uiso   1.00
C65    C     0.36166   0.38834   0.25001   0.00000  Uiso   1.00
C66    C     0.11168   0.36164   0.75002   0.00000  Uiso   1.00
C67    C     0.38834   0.13834   0.25000   0.00000  Uiso   1.00
C68    C     0.36166   0.38834   0.75000   0.00000  Uiso   1.00
C69    C     0.13834   0.11166   0.24999   0.00000  Uiso   1.00
C70    C     0.38834   0.13835   0.75000   0.00000  Uiso   1.00
C71    C     0.00000   0.25003   0.64401   0.00000  Uiso   1.00
C72    C     0.11166   0.36166   0.25000   0.00000  Uiso   1.00
C73    C     0.03810   0.24783   0.41957   0.00000  Uiso   1.00
C74    C     0.46512   0.23396   0.58138   0.00000  Uiso   1.00
C75    C     0.23735   0.46331   0.41924   0.00000  Uiso   1.00
C76    C     0.27379   0.03010   0.58191   0.00000  Uiso   1.00
C77    C     0.46138   0.25079   0.41933   0.00000  Uiso   1.00
C78    C     0.03465   0.26679   0.58133   0.00000  Uiso   1.00
C79    C     0.26042   0.03653   0.41961   0.00000  Uiso   1.00
C80    C     0.22684   0.46926   0.58205   0.00000  Uiso   1.00
C81    C     0.28386   0.01776   0.91871   0.00000  Uiso   1.00
C82    C     0.49981   0.24992   0.85587   0.00000  Uiso   1.00
C83    C     0.21159   0.49758   0.08067   0.00000  Uiso   1.00
C84    C     0.47286   0.22184   0.91784   0.00000  Uiso   1.00
C85    C     0.01311   0.28550   0.08025   0.00000  Uiso   1.00
C86    C     0.21530   0.48294   0.91836   0.00000  Uiso   1.00
C87    C     0.28834   0.49914   0.08050   0.00000  Uiso   1.00
C88    C     0.02737   0.27587   0.91815   0.00000  Uiso   1.00
C89    C     0.48429   0.21436   0.08077   0.00000  Uiso   1.00
C90    C     0.49982   0.24941   0.39892   0.00000  Uiso   1.00
C91    C     0.49996   0.25022   0.60161   0.00000  Uiso   1.00
C92    C     0.24908   0.49998   0.39893   0.00000  Uiso   1.00
C93    C     0.49970   0.25002   0.14380   0.00000  Uiso   1.00
C94    C     0.25016   0.49985   0.60187   0.00000  Uiso   1.00
C95    C     0.24974   0.00029   0.89838   0.00000  Uiso   1.00
C96    C     0.24998   0.49883   0.10111   0.00000  Uiso   1.00
C97    C     0.49966   0.24954   0.89809   0.00000  Uiso   1.00
C98    C     0.49892   0.25001   0.10103   0.00000  Uiso   1.00
C99    C     0.46120   0.24512   0.45975   0.00000  Uiso   1.00
C100   C     0.03710   0.26122   0.54101   0.00000  Uiso   1.00
C101   C     0.26718   0.03403   0.45975   0.00000  Uiso   1.00
C102   C     0.22981   0.46633   0.54147   0.00000  Uiso   1.00
C103   C     0.03803   0.25523   0.45968   0.00000  Uiso   1.00
C104   C     0.24997   0.00019   0.85597   0.00000  Uiso   1.00
C105   C     0.46241   0.23996   0.54115   0.00000  Uiso   1.00
C106   C     0.23246   0.46479   0.45980   0.00000  Uiso   1.00
C107   C     0.27119   0.03250   0.54126   0.00000  Uiso   1.00
C108   C     0.21293   0.48675   0.95888   0.00000  Uiso   1.00
C109   C     0.28790   0.00605   0.04032   0.00000  Uiso   1.00
C110   C     0.02437   0.27925   0.95868   0.00000  Uiso   1.00
C111   C     0.47893   0.21641   0.04024   0.00000  Uiso   1.00
C112   C     0.28654   0.01202   0.95899   0.00000  Uiso   1.00
C113   C     0.21187   0.49127   0.04034   0.00000  Uiso   1.00
C114   C     0.47551   0.21851   0.95851   0.00000  Uiso   1.00
C115   C     0.25000   0.49973   0.14382   0.00000  Uiso   1.00
C116   C     0.01972   0.28222   0.04009   0.00000  Uiso   1.00
C117   C     0.49962   0.25037   0.48008   0.00000  Uiso   1.00
C118   C     0.49970   0.25057   0.52073   0.00000  Uiso   1.00
C119   C     0.25011   0.49932   0.48023   0.00000  Uiso   1.00
C120   C     0.25042   0.49934   0.52100   0.00000  Uiso   1.00
C121   C     0.24976   0.49918   0.97927   0.00000  Uiso   1.00
C122   C     0.24985   0.49882   0.01994   0.00000  Uiso   1.00
C123   C     0.49962   0.24909   0.97896   0.00000  Uiso   1.00
C124   C     0.49940   0.24922   0.01972   0.00000  Uiso   1.00
C125   C     0.42371   0.23591   0.48035   0.00000  Uiso   1.00
C126   C     0.17000   0.08001   0.24999   0.00000  Uiso   1.00
C127   C     0.07514   0.26754   0.52036   0.00000  Uiso   1.00
C128   C     0.28922   0.06589   0.47991   0.00000  Uiso   1.00
C129   C     0.21171   0.43222   0.52079   0.00000  Uiso   1.00
C130   C     0.07537   0.26546   0.47999   0.00000  Uiso   1.00
C131   C     0.42419   0.23407   0.52074   0.00000  Uiso   1.00
C132   C     0.21160   0.43234   0.48039   0.00000  Uiso   1.00
C133   C     0.28973   0.06616   0.52027   0.00000  Uiso   1.00
C134   C     0.17551   0.47723   0.97959   0.00000  Uiso   1.00
C135   C     0.32459   0.01831   0.01997   0.00000  Uiso   1.00
C136   C     0.04660   0.31070   0.97946   0.00000  Uiso   1.00
Cl137  Cl    0.37612   0.22181   0.45662   0.00000  Uiso   1.00
Cl138  Cl    0.37045   0.03657   0.04419   0.00000  Uiso   1.00
Cl139  Cl    0.07389   0.35243   0.95612   0.00000  Uiso   1.00
Cl140  Cl    0.42148   0.14962   0.04378   0.00000  Uiso   1.00
Cl141  Cl    0.37324   0.02839   0.95598   0.00000  Uiso   1.00
Cl142  Cl    0.12924   0.46085   0.04419   0.00000  Uiso   1.00
Cl143  Cl    0.42896   0.14333   0.95607   0.00000  Uiso   1.00
Cl144  Cl    0.07964   0.34651   0.04430   0.00000  Uiso   1.00
Cl145  Cl    0.12443   0.27344   0.54403   0.00000  Uiso   1.00
Cl146  Cl    0.32105   0.10346   0.45544   0.00000  Uiso   1.00
Cl147  Cl    0.19180   0.38642   0.54406   0.00000  Uiso   1.00
Cl148  Cl    0.12221   0.28084   0.45568   0.00000  Uiso   1.00
Cl149  Cl    0.37503   0.22893   0.54483   0.00000  Uiso   1.00
Cl150  Cl    0.18064   0.39337   0.45681   0.00000  Uiso   1.00
Cl151  Cl    0.31099   0.11167   0.54296   0.00000  Uiso   1.00
Cl152  Cl    0.12680   0.46645   0.95626   0.00000  Uiso   1.00
H153   H     0.10141   0.18965   0.37061   0.00000  Uiso   1.00
H154   H     0.40329   0.14292   0.56770   0.00000  Uiso   1.00
H155   H     0.27199   0.39020   0.43025   0.00000  Uiso   1.00
H156   H     0.29367   0.41761   0.38879   0.00000  Uiso   1.00
H157   H     0.25209   0.37160   0.34495   0.00000  Uiso   1.00
H158   H     0.28587   0.34115   0.37628   0.00000  Uiso   1.00
H159   H     0.23009   0.34431   0.38618   0.00000  Uiso   1.00
H160   H     0.35538   0.03553   0.57894   0.00000  Uiso   1.00
H161   H     0.33700   0.00679   0.62103   0.00000  Uiso   1.00
H162   H     0.35186   0.06808   0.66257   0.00000  Uiso   1.00
H163   H     0.39837   0.05301   0.63583   0.00000  Uiso   1.00
H164   H     0.04895   0.17957   0.38642   0.00000  Uiso   1.00
H165   H     0.36822   0.09861   0.62118   0.00000  Uiso   1.00
H166   H     0.44161   0.31966   0.38637   0.00000  Uiso   1.00
H167   H     0.41093   0.31284   0.43024   0.00000  Uiso   1.00
H168   H     0.34859   0.29264   0.39102   0.00000  Uiso   1.00
H169   H     0.36832   0.34412   0.37773   0.00000  Uiso   1.00
H170   H     0.37906   0.29914   0.34728   0.00000  Uiso   1.00
H171   H     0.07065   0.34084   0.63513   0.00000  Uiso   1.00
H172   H     0.01874   0.33200   0.61735   0.00000  Uiso   1.00
H173   H     0.04322   0.35123   0.55042   0.00000  Uiso   1.00
H174   H     0.05434   0.39250   0.58465   0.00000  Uiso   1.00
H175   H     0.07431   0.17384   0.45465   0.00000  Uiso   1.00
H176   H     0.09627   0.35838   0.56858   0.00000  Uiso   1.00
H177   H     0.19829   0.07201   0.39465   0.00000  Uiso   1.00
H178   H     0.22549   0.11240   0.36903   0.00000  Uiso   1.00
H179   H     0.24395   0.14866   0.43106   0.00000  Uiso   1.00
H180   H     0.18803   0.14342   0.42346   0.00000  Uiso   1.00
H181   H     0.21414   0.10899   0.45711   0.00000  Uiso   1.00
H182   H     0.14517   0.46289   0.57807   0.00000  Uiso   1.00
H183   H     0.16285   0.49318   0.61950   0.00000  Uiso   1.00
H184   H     0.14794   0.43329   0.66263   0.00000  Uiso   1.00
H185   H     0.10164   0.44699   0.63499   0.00000  Uiso   1.00
H186   H     0.10413   0.13945   0.42365   0.00000  Uiso   1.00
H187   H     0.13236   0.40116   0.62200   0.00000  Uiso   1.00
H188   H     0.26543   0.08214   0.88231   0.00000  Uiso   1.00
H189   H     0.31703   0.09298   0.86470   0.00000  Uiso   1.00
H190   H     0.34155   0.11209   0.93108   0.00000  Uiso   1.00
H191   H     0.29809   0.14416   0.91492   0.00000  Uiso   1.00
H192   H     0.28890   0.10255   0.94931   0.00000  Uiso   1.00
H193   H     0.15628   0.05520   0.06820   0.00000  Uiso   1.00
H194   H     0.18674   0.06588   0.11153   0.00000  Uiso   1.00
H195   H     0.12623   0.04206   0.15181   0.00000  Uiso   1.00
H196   H     0.11194   0.08510   0.12028   0.00000  Uiso   1.00
H197   H     0.12696   0.18858   0.43965   0.00000  Uiso   1.00
H198   H     0.09587   0.03196   0.10857   0.00000  Uiso   1.00
H199   H     0.41247   0.25149   0.87861   0.00000  Uiso   1.00
H200   H     0.39117   0.22442   0.92049   0.00000  Uiso   1.00
H201   H     0.37193   0.16337   0.87814   0.00000  Uiso   1.00
H202   H     0.34715   0.21188   0.86292   0.00000  Uiso   1.00
H203   H     0.39215   0.19169   0.83682   0.00000  Uiso   1.00
H204   H     0.48471   0.36472   0.13007   0.00000  Uiso   1.00
H205   H     0.45421   0.32641   0.10490   0.00000  Uiso   1.00
H206   H     0.47358   0.36088   0.04197   0.00000  Uiso   1.00
H207   H     0.45005   0.39784   0.07495   0.00000  Uiso   1.00
H208   H     0.42939   0.15915   0.63444   0.00000  Uiso   1.00
H209   H     0.00631   0.39838   0.06775   0.00000  Uiso   1.00
H210   H     0.19747   0.40331   0.91997   0.00000  Uiso   1.00
H211   H     0.22664   0.41807   0.87694   0.00000  Uiso   1.00
H212   H     0.15656   0.41848   0.84074   0.00000  Uiso   1.00
H213   H     0.17458   0.36788   0.85729   0.00000  Uiso   1.00
H214   H     0.13290   0.39514   0.88302   0.00000  Uiso   1.00
H215   H     0.30309   0.43112   0.11114   0.00000  Uiso   1.00
H216   H     0.35259   0.44529   0.13164   0.00000  Uiso   1.00
H217   H     0.38600   0.44669   0.06604   0.00000  Uiso   1.00
H218   H     0.36399   0.39599   0.07838   0.00000  Uiso   1.00
H219   H     0.48119   0.16818   0.61646   0.00000  Uiso   1.00
H220   H     0.33638   0.42987   0.04522   0.00000  Uiso   1.00
H221   H     0.08529   0.24118   0.87500   0.00000  Uiso   1.00
H222   H     0.10323   0.25523   0.92309   0.00000  Uiso   1.00
H223   H     0.14173   0.31562   0.89769   0.00000  Uiso   1.00
H224   H     0.15712   0.26855   0.87213   0.00000  Uiso   1.00
H225   H     0.12186   0.30580   0.84937   0.00000  Uiso   1.00
H226   H     0.03841   0.16487   0.10919   0.00000  Uiso   1.00
H227   H     0.01358   0.13930   0.06823   0.00000  Uiso   1.00
H228   H     0.47063   0.09554   0.11314   0.00000  Uiso   1.00
H229   H     0.02649   0.08901   0.12142   0.00000  Uiso   1.00
H230   H     0.45634   0.14993   0.54948   0.00000  Uiso   1.00
H231   H     0.49557   0.12106   0.15392   0.00000  Uiso   1.00
H232   H     0.44501   0.10825   0.58323   0.00000  Uiso   1.00
O233   O     0.25000  -0.00000   0.25000   0.00000  Uiso   1.00
O234   O     0.25000   0.46538   0.66251   0.00000  Uiso   1.00
O235   O     0.46538   0.25000   0.33749   0.00000  Uiso   1.00
O236   O     0.03461   0.25000   0.66251   0.00000  Uiso   1.00
O237   O    -0.00000   0.21538   0.83749   0.00000  Uiso   1.00
O238   O    -0.00000   0.28461   0.16251   0.00000  Uiso   1.00
O239   O     0.28461  -0.00000   0.83749   0.00000  Uiso   1.00
O240   O     0.21538  -0.00000   0.16251   0.00000  Uiso   1.00
O241   O    -0.00000   0.28461   0.83749   0.00000  Uiso   1.00
O242   O    -0.00000   0.21538   0.16251   0.00000  Uiso   1.00
O243   O     0.21538  -0.00000   0.83749   0.00000  Uiso   1.00
O244   O     0.25000  -0.00000   0.75000   0.00000  Uiso   1.00
O245   O     0.28461  -0.00000   0.16251   0.00000  Uiso   1.00
O246   O     0.20126   0.08332   0.27298   0.00000  Uiso   1.00
O247   O     0.29873   0.41668   0.72702   0.00000  Uiso   1.00
O248   O     0.41668   0.20126   0.27298   0.00000  Uiso   1.00
O249   O     0.08332   0.29873   0.72702   0.00000  Uiso   1.00
O250   O     0.29873   0.41668   0.27298   0.00000  Uiso   1.00
O251   O     0.20126   0.08332   0.72702   0.00000  Uiso   1.00
O252   O     0.08332   0.29873   0.27298   0.00000  Uiso   1.00
O253   O     0.41668   0.20126   0.72702   0.00000  Uiso   1.00
O254   O     0.20126   0.41668   0.72702   0.00000  Uiso   1.00
O255   O    -0.00000   0.25000   0.25000   0.00000  Uiso   1.00
O256   O     0.29873   0.08332   0.27298   0.00000  Uiso   1.00
O257   O     0.41668   0.29873   0.72702   0.00000  Uiso   1.00
O258   O     0.08332   0.20126   0.27298   0.00000  Uiso   1.00
O259   O     0.29873   0.08332   0.72702   0.00000  Uiso   1.00
O260   O     0.20126   0.41668   0.27298   0.00000  Uiso   1.00
O261   O     0.08332   0.20126   0.72702   0.00000  Uiso   1.00
O262   O     0.41668   0.29873   0.27298   0.00000  Uiso   1.00
O263   O     0.45126   0.33332   0.77298   0.00000  Uiso   1.00
O264   O     0.04873   0.16668   0.22702   0.00000  Uiso   1.00
O265   O     0.16668   0.45126   0.77298   0.00000  Uiso   1.00
O266   O    -0.00000   0.25000   0.75000   0.00000  Uiso   1.00
O267   O     0.33332   0.04873   0.22702   0.00000  Uiso   1.00
O268   O     0.04873   0.16668   0.77298   0.00000  Uiso   1.00
O269   O     0.45126   0.33332   0.22702   0.00000  Uiso   1.00
O270   O     0.33332   0.04873   0.77298   0.00000  Uiso   1.00
O271   O     0.16668   0.45126   0.22702   0.00000  Uiso   1.00
O272   O     0.45126   0.16668   0.22702   0.00000  Uiso   1.00
O273   O     0.04873   0.33332   0.77298   0.00000  Uiso   1.00
O274   O     0.16668   0.04873   0.22702   0.00000  Uiso   1.00
O275   O     0.33332   0.45126   0.77298   0.00000  Uiso   1.00
O276   O     0.04873   0.33332   0.22702   0.00000  Uiso   1.00
O277   O     0.25000   0.46538   0.33749   0.00000  Uiso   1.00
O278   O     0.45126   0.16668   0.77298   0.00000  Uiso   1.00
O279   O     0.33332   0.45126   0.22702   0.00000  Uiso   1.00
O280   O     0.16668   0.04873   0.77298   0.00000  Uiso   1.00
O281   O     0.07555   0.23896   0.40065   0.00000  Uiso   1.00
O282   O     0.43376   0.21236   0.60105   0.00000  Uiso   1.00
O283   O     0.22921   0.42669   0.39890   0.00000  Uiso   1.00
O284   O     0.29915   0.05721   0.60288   0.00000  Uiso   1.00
O285   O     0.42419   0.25775   0.39955   0.00000  Uiso   1.00
O286   O     0.06613   0.28815   0.60106   0.00000  Uiso   1.00
O287   O     0.26515   0.07464   0.40053   0.00000  Uiso   1.00
O288   O     0.25000   0.03461   0.66251   0.00000  Uiso   1.00
O289   O     0.20124   0.44243   0.60311   0.00000  Uiso   1.00
O290   O     0.31452   0.04035   0.89903   0.00000  Uiso   1.00
O291   O     0.17395   0.00239   0.10035   0.00000  Uiso   1.00
O292   O     0.44508   0.19751   0.89660   0.00000  Uiso   1.00
O293   O     0.02105   0.32311   0.09926   0.00000  Uiso   1.00
O294   O     0.18383   0.46287   0.89777   0.00000  Uiso   1.00
O295   O     0.32621   0.49281   0.09958   0.00000  Uiso   1.00
O296   O     0.05906   0.29605   0.89787   0.00000  Uiso   1.00
O297   O     0.47434   0.17815   0.10107   0.00000  Uiso   1.00
O298   O     0.03461   0.25000   0.33749   0.00000  Uiso   1.00
O299   O     0.46538   0.25000   0.66251   0.00000  Uiso   1.00
O300   O     0.25000   0.03461   0.33749   0.00000  Uiso   1.00
Zn301  Zn    0.20052  -0.00000   0.21730   0.00000  Uiso   1.00
Zn302  Zn    0.04947   0.25000   0.28270   0.00000  Uiso   1.00
Zn303  Zn    0.25000   0.45052   0.71730   0.00000  Uiso   1.00
Zn304  Zn    0.25000   0.04947   0.28270   0.00000  Uiso   1.00
Zn305  Zn    0.04947   0.25000   0.71730   0.00000  Uiso   1.00
Zn306  Zn    0.45052   0.25000   0.28270   0.00000  Uiso   1.00
Zn307  Zn    0.25000   0.04947   0.71730   0.00000  Uiso   1.00
Zn308  Zn    0.25000   0.45052   0.28270   0.00000  Uiso   1.00
Zn309  Zn    0.29947  -0.00000   0.78270   0.00000  Uiso   1.00
Zn310  Zn    0.00000   0.20052   0.21730   0.00000  Uiso   1.00
Zn311  Zn   -0.00000   0.29947   0.78270   0.00000  Uiso   1.00
Zn312  Zn    0.29947  -0.00000   0.21730   0.00000  Uiso   1.00
Zn313  Zn    0.20052  -0.00000   0.78270   0.00000  Uiso   1.00
Zn314  Zn   -0.00000   0.29947   0.21730   0.00000  Uiso   1.00
Zn315  Zn    0.00000   0.20052   0.78270   0.00000  Uiso   1.00
Zn316  Zn    0.45052   0.25000   0.71730   0.00000  Uiso   1.00
C317   C     0.74968   0.00001   0.35619   0.00000  Uiso   1.00
C318   C     0.83001   0.41999   0.75000   0.00000  Uiso   1.00
C319   C     0.95496   0.18608   0.01977   0.00000  Uiso   1.00
C320   C     0.82424   0.02019   0.97961   0.00000  Uiso   1.00
C321   C     0.67520   0.47898   0.01998   0.00000  Uiso   1.00
C322   C     0.95418   0.18641   0.97931   0.00000  Uiso   1.00
C323   C     0.54506   0.31149   0.01984   0.00000  Uiso   1.00
C324   C     0.57923   0.19483   0.39495   0.00000  Uiso   1.00
C325   C     0.59730   0.17294   0.43053   0.00000  Uiso   1.00
C326   C     0.94712   0.17056   0.60885   0.00000  Uiso   1.00
C327   C     0.93727   0.14120   0.57512   0.00000  Uiso   1.00
C328   C     0.76544   0.40079   0.40020   0.00000  Uiso   1.00
C329   C     0.92000   0.17000   0.25000   0.00000  Uiso   1.00
C330   C     0.75787   0.36203   0.37533   0.00000  Uiso   1.00
C331   C     0.83929   0.03852   0.60738   0.00000  Uiso   1.00
C332   C     0.86613   0.06633   0.63336   0.00000  Uiso   1.00
C333   C     0.91558   0.30144   0.40012   0.00000  Uiso   1.00
C334   C     0.87533   0.30984   0.37760   0.00000  Uiso   1.00
C335   C     0.55276   0.32980   0.60950   0.00000  Uiso   1.00
C336   C     0.56230   0.35973   0.57611   0.00000  Uiso   1.00
C337   C     0.72530   0.09451   0.39658   0.00000  Uiso   1.00
C338   C     0.71753   0.12579   0.42920   0.00000  Uiso   1.00
C339   C     0.66094   0.46099   0.60673   0.00000  Uiso   1.00
C340   C     0.58001   0.32999   0.75001   0.00000  Uiso   1.00
C341   C     0.63402   0.43387   0.63325   0.00000  Uiso   1.00
C342   C     0.79947   0.08136   0.89030   0.00000  Uiso   1.00
C343   C     0.80756   0.11184   0.92358   0.00000  Uiso   1.00
C344   C     0.66204   0.04527   0.09858   0.00000  Uiso   1.00
C345   C     0.62145   0.05144   0.12125   0.00000  Uiso   1.00
C346   C     0.90701   0.22006   0.89208   0.00000  Uiso   1.00
C347   C     0.87772   0.19516   0.86585   0.00000  Uiso   1.00
C348   C     0.98306   0.34646   0.10277   0.00000  Uiso   1.00
C349   C     0.97810   0.37778   0.06969   0.00000  Uiso   1.00
C350   C     0.69566   0.42043   0.89195   0.00000  Uiso   1.00
C351   C     0.83001   0.41999   0.25000   0.00000  Uiso   1.00
C352   C     0.66279   0.39912   0.86673   0.00000  Uiso   1.00
C353   C     0.83274   0.44904   0.10547   0.00000  Uiso   1.00
C354   C     0.85625   0.42929   0.07157   0.00000  Uiso   1.00
C355   C     0.59343   0.26791   0.89443   0.00000  Uiso   1.00
C356   C     0.63087   0.29101   0.87723   0.00000  Uiso   1.00
C357   C     0.50877   0.14999   0.09852   0.00000  Uiso   1.00
C358   C     0.99976   0.11148   0.12333   0.00000  Uiso   1.00
C359   C     0.66999   0.08000   0.75000   0.00000  Uiso   1.00
C360   C     0.58000   0.33000   0.25000   0.00000  Uiso   1.00
C361   C     0.92000   0.17000   0.74999   0.00000  Uiso   1.00
C362   C     0.67001   0.41999   0.75002   0.00000  Uiso   1.00
C363   C     0.83000   0.08000   0.25000   0.00000  Uiso   1.00
C364   C     0.91999   0.33000   0.75000   0.00000  Uiso   1.00
C365   C     0.75002   0.49998   0.64412   0.00000  Uiso   1.00
C366   C     0.58000   0.16999   0.25000   0.00000  Uiso   1.00
C367   C     0.82999   0.08001   0.75002   0.00000  Uiso   1.00
C368   C     0.67000   0.42000   0.25000   0.00000  Uiso   1.00
C369   C     0.58001   0.17000   0.75000   0.00000  Uiso   1.00
C370   C     0.92000   0.33001   0.25001   0.00000  Uiso   1.00
C371   C     0.63834   0.38834   0.25000   0.00000  Uiso   1.00
C372   C     0.86165   0.11166   0.75001   0.00000  Uiso   1.00
C373   C     0.61166   0.13833   0.25000   0.00000  Uiso   1.00
C374   C     0.88834   0.36166   0.75000   0.00000  Uiso   1.00
C375   C     0.86166   0.11166   0.24999   0.00000  Uiso   1.00
C376   C     0.99997   0.24983   0.35618   0.00000  Uiso   1.00
C377   C     0.63836   0.38833   0.75003   0.00000  Uiso   1.00
C378   C     0.88834   0.36166   0.25002   0.00000  Uiso   1.00
C379   C     0.61167   0.13834   0.75000   0.00000  Uiso   1.00
C380   C     0.63834   0.11166   0.75001   0.00000  Uiso   1.00
C381   C     0.86166   0.38834   0.25001   0.00000  Uiso   1.00
C382   C     0.61168   0.36164   0.75002   0.00000  Uiso   1.00
C383   C     0.88834   0.13834   0.25000   0.00000  Uiso   1.00
C384   C     0.86166   0.38834   0.75000   0.00000  Uiso   1.00
C385   C     0.63834   0.11166   0.24999   0.00000  Uiso   1.00
C386   C     0.88834   0.13835   0.75000   0.00000  Uiso   1.00
C387   C     0.50000   0.25003   0.64401   0.00000  Uiso   1.00
C388   C     0.61166   0.36166   0.25000   0.00000  Uiso   1.00
C389   C     0.53810   0.24783   0.41957   0.00000  Uiso   1.00
C390   C     0.96512   0.23396   0.58138   0.00000  Uiso   1.00
C391   C     0.73735   0.46331   0.41924   0.00000  Uiso   1.00
C392   C     0.77379   0.03010   0.58191   0.00000  Uiso   1.00
C393   C     0.96138   0.25079   0.41933   0.00000  Uiso   1.00
C394   C     0.53465   0.26679   0.58133   0.00000  Uiso   1.00
C395   C     0.76042   0.03653   0.41961   0.00000  Uiso   1.00
C396   C     0.72684   0.46926   0.58205   0.00000  Uiso   1.00
C397   C     0.78386   0.01776   0.91871   0.00000  Uiso   1.00
C398   C     0.99981   0.24992   0.85587   0.00000  Uiso   1.00
C399   C     0.71159   0.49758   0.08067   0.00000  Uiso   1.00
C400   C     0.97286   0.22184   0.91784   0.00000  Uiso   1.00
C401   C     0.51311   0.28550   0.08025   0.00000  Uiso   1.00
C402   C     0.71530   0.48294   0.91836   0.00000  Uiso   1.00
C403   C     0.78834   0.49914   0.08050   0.00000  Uiso   1.00
C404   C     0.52737   0.27587   0.91815   0.00000  Uiso   1.00
C405   C     0.98429   0.21436   0.08077   0.00000  Uiso   1.00
C406   C     0.99982   0.24941   0.39892   0.00000  Uiso   1.00
C407   C     0.99996   0.25022   0.60161   0.00000  Uiso   1.00
C408   C     0.74908   0.49998   0.39893   0.00000  Uiso   1.00
C409   C     0.99970   0.25002   0.14380   0.00000  Uiso   1.00
C410   C     0.75016   0.49985   0.60187   0.00000  Uiso   1.00
C411   C     0.74974   0.00029   0.89838   0.00000  Uiso   1.00
C412   C     0.74998   0.49883   0.10111   0.00000  Uiso   1.00
C413   C     0.99966   0.24954   0.89809   0.00000  Uiso   1.00
C414   C     0.99892   0.25001   0.10103   0.00000  Uiso   1.00
C415   C     0.96120   0.24512   0.45975   0.00000  Uiso   1.00
C416   C     0.53710   0.26122   0.54101   0.00000  Uiso   1.00
C417   C     0.76718   0.03403   0.45975   0.00000  Uiso   1.00
C418   C     0.72981   0.46633   0.54147   0.00000  Uiso   1.00
C419   C     0.53803   0.25523   0.45968   0.00000  Uiso   1.00
C420   C     0.74997   0.00019   0.85597   0.00000  Uiso   1.00
C421   C     0.96241   0.23996   0.54115   0.00000  Uiso   1.00
C422   C     0.73246   0.46479   0.45980   0.00000  Uiso   1.00
C423   C     0.77119   0.03250   0.54126   0.00000  Uiso   1.00
C424   C     0.71293   0.48675   0.95888   0.00000  Uiso   1.00
C425   C     0.78790   0.00605   0.04032   0.00000  Uiso   1.00
C426   C     0.52437   0.27925   0.95868   0.00000  Uiso   1.00
C427   C     0.97893   0.21641   0.04024   0.00000  Uiso   1.00
C428   C     0.78654   0.01202   0.95899   0.00000  Uiso   1.00
C429   C     0.71187   0.49127   0.04034   0.00000  Uiso   1.00
C430   C     0.97551   0.21851   0.95851   0.00000  Uiso   1.00
C431   C     0.75000   0.49973   0.14382   0.00000  Uiso   1.00
C432   C     0.51972   0.28222   0.04009   0.00000  Uiso   1.00
C433   C     0.99962   0.25037   0.48008   0.00000  Uiso   1.00
C434   C     0.99970   0.25057   0.52073   0.00000  Uiso   1.00
C435   C     0.75011   0.49932   0.48023   0.00000  Uiso   1.00
C436   C     0.75042   0.49934   0.52100   0.00000  Uiso   1.00
C437   C     0.74976   0.49918   0.97927   0.00000  Uiso   1.00
C438   C     0.74985   0.49882   0.01994   0.00000  Uiso   1.00
C439   C     0.99962   0.24909   0.97896   0.00000  Uiso   1.00
C440   C     0.99940   0.24922   0.01972   0.00000  Uiso   1.00
C441   C     0.92371   0.23591   0.48035   0.00000  Uiso   1.00
C442   C     0.67000   0.08001   0.24999   0.00000  Uiso   1.00
C443   C     0.57514   0.26754   0.52036   0.00000  Uiso   1.00
C444   C     0.78922   0.06589   0.47991   0.00000  Uiso   1.00
C445   C     0.71171   0.43222   0.52079   0.00000  Uiso   1.00
C446   C     0.57537   0.26546   0.47999   0.00000  Uiso   1.00
C447   C     0.92419   0.23407   0.52074   0.00000  Uiso   1.00
C448   C     0.71160   0.43234   0.48039   0.00000  Uiso   1.00
C449   C     0.78973   0.06616   0.52027   0.00000  Uiso   1.00
C450   C     0.67551   0.47723   0.97959   0.00000  Uiso   1.00
C451   C     0.82459   0.01831   0.01997   0.00000  Uiso   1.00
C452   C     0.54660   0.31070   0.97946   0.00000  Uiso   1.00
Cl453  Cl    0.87612   0.22181   0.45662   0.00000  Uiso   1.00
Cl454  Cl    0.87045   0.03657   0.04419   0.00000  Uiso   1.00
Cl455  Cl    0.57389   0.35243   0.95612   0.00000  Uiso   1.00
Cl456  Cl    0.92148   0.14962   0.04378   0.00000  Uiso   1.00
Cl457  Cl    0.87324   0.02839   0.95598   0.00000  Uiso   1.00
Cl458  Cl    0.62924   0.46085   0.04419   0.00000  Uiso   1.00
Cl459  Cl    0.92896   0.14333   0.95607   0.00000  Uiso   1.00
Cl460  Cl    0.57964   0.34651   0.04430   0.00000  Uiso   1.00
Cl461  Cl    0.62443   0.27344   0.54403   0.00000  Uiso   1.00
Cl462  Cl    0.82105   0.10346   0.45544   0.00000  Uiso   1.00
Cl463  Cl    0.69180   0.38642   0.54406   0.00000  Uiso   1.00
Cl464  Cl    0.62221   0.28084   0.45568   0.00000  Uiso   1.00
Cl465  Cl    0.87503   0.22893   0.54483   0.00000  Uiso   1.00
Cl466  Cl    0.68064   0.39337   0.45681   0.00000  Uiso   1.00
Cl467  Cl    0.81099   0.11167   0.54296   0.00000  Uiso   1.00
Cl468  Cl    0.62680   0.46645   0.95626   0.00000  Uiso   1.00
H469   H     0.60141   0.18965   0.37061   0.00000  Uiso   1.00
H470   H     0.90329   0.14292   0.56770   0.00000  Uiso   1.00
H471   H     0.77199   0.39020   0.43025   0.00000  Uiso   1.00
H472   H     0.79367   0.41761   0.38879   0.00000  Uiso   1.00
H473   H     0.75209   0.37160   0.34495   0.00000  Uiso   1.00
H474   H     0.78587   0.34115   0.37628   0.00000  Uiso   1.00
H475   H     0.73009   0.34431   0.38618   0.00000  Uiso   1.00
H476   H     0.85538   0.03553   0.57894   0.00000  Uiso   1.00
H477   H     0.83700   0.00679   0.62103   0.00000  Uiso   1.00
H478   H     0.85186   0.06808   0.66257   0.00000  Uiso   1.00
H479   H     0.89837   0.05301   0.63583   0.00000  Uiso   1.00
H480   H     0.54895   0.17957   0.38642   0.00000  Uiso   1.00
H481   H     0.86822   0.09861   0.62118   0.00000  Uiso   1.00
H482   H     0.94161   0.31966   0.38637   0.00000  Uiso   1.00
H483   H     0.91093   0.31284   0.43024   0.00000  Uiso   1.00
H484   H     0.84859   0.29264   0.39102   0.00000  Uiso   1.00
H485   H     0.86832   0.34412   0.37773   0.00000  Uiso   1.00
H486   H     0.87906   0.29914   0.34728   0.00000  Uiso   1.00
H487   H     0.57065   0.34084   0.63513   0.00000  Uiso   1.00
H488   H     0.51874   0.33200   0.61735   0.00000  Uiso   1.00
H489   H     0.54322   0.35123   0.55042   0.00000  Uiso   1.00
H490   H     0.55434   0.39250   0.58465   0.00000  Uiso   1.00
H491   H     0.57431   0.17384   0.45465   0.00000  Uiso   1.00
H492   H     0.59627   0.35838   0.56858   0.00000  Uiso   1.00
H493   H     0.69829   0.07201   0.39465   0.00000  Uiso   1.00
H494   H     0.72549   0.11240   0.36903   0.00000  Uiso   1.00
H495   H     0.74395   0.14866   0.43106   0.00000  Uiso   1.00
H496   H     0.68803   0.14342   0.42346   0.00000  Uiso   1.00
H497   H     0.71414   0.10899   0.45711   0.00000  Uiso   1.00
H498   H     0.64517   0.46289   0.57807   0.00000  Uiso   1.00
H499   H     0.66285   0.49318   0.61950   0.00000  Uiso   1.00
H500   H     0.64794   0.43329   0.66263   0.00000  Uiso   1.00
H501   H     0.60164   0.44699   0.63499   0.00000  Uiso   1.00
H502   H     0.60413   0.13945   0.42365   0.00000  Uiso   1.00
H503   H     0.63236   0.40116   0.62200   0.00000  Uiso   1.00
H504   H     0.76543   0.08214   0.88231   0.00000  Uiso   1.00
H505   H     0.81703   0.09298   0.86470   0.00000  Uiso   1.00
H506   H     0.84155   0.11209   0.93108   0.00000  Uiso   1.00
H507   H     0.79809   0.14416   0.91492   0.00000  Uiso   1.00
H508   H     0.78890   0.10255   0.94931   0.00000  Uiso   1.00
H509   H     0.65628   0.05520   0.06820   0.00000  Uiso   1.00
H510   H     0.68674   0.06588   0.11153   0.00000  Uiso   1.00
H511   H     0.62623   0.04206   0.15181   0.00000  Uiso   1.00
H512   H     0.61194   0.08510   0.12028   0.00000  Uiso   1.00
H513   H     0.62696   0.18858   0.43965   0.00000  Uiso   1.00
H514   H     0.59587   0.03196   0.10857   0.00000  Uiso   1.00
H515   H     0.91247   0.25149   0.87861   0.00000  Uiso   1.00
H516   H     0.89117   0.22442   0.92049   0.00000  Uiso   1.00
H517   H     0.87193   0.16337   0.87814   0.00000  Uiso   1.00
H518   H     0.84715   0.21188   0.86292   0.00000  Uiso   1.00
H519   H     0.89215   0.19169   0.83682   0.00000  Uiso   1.00
H520   H     0.98471   0.36472   0.13007   0.00000  Uiso   1.00
H521   H     0.95421   0.32641   0.10490   0.00000  Uiso   1.00
H522   H     0.97358   0.36088   0.04197   0.00000  Uiso   1.00
H523   H     0.95005   0.39784   0.07495   0.00000  Uiso   1.00
H524   H     0.92939   0.15915   0.63444   0.00000  Uiso   1.00
H525   H     0.50631   0.39838   0.06775   0.00000  Uiso   1.00
H526   H     0.69747   0.40331   0.91997   0.00000  Uiso   1.00
H527   H     0.72664   0.41807   0.87694   0.00000  Uiso   1.00
H528   H     0.65656   0.41848   0.84074   0.00000  Uiso   1.00
H529   H     0.67458   0.36788   0.85729   0.00000  Uiso   1.00
H530   H     0.63290   0.39514   0.88302   0.00000  Uiso   1.00
H531   H     0.80309   0.43112   0.11114   0.00000  Uiso   1.00
H532   H     0.85259   0.44529   0.13164   0.00000  Uiso   1.00
H533   H     0.88600   0.44669   0.06604   0.00000  Uiso   1.00
H534   H     0.86399   0.39599   0.07838   0.00000  Uiso   1.00
H535   H     0.98119   0.16818   0.61646   0.00000  Uiso   1.00
H536   H     0.83638   0.42987   0.04522   0.00000  Uiso   1.00
H537   H     0.58529   0.24118   0.87500   0.00000  Uiso   1.00
H538   H     0.60323   0.25523   0.92309   0.00000  Uiso   1.00
H539   H     0.64173   0.31562   0.89769   0.00000  Uiso   1.00
H540   H     0.65712   0.26855   0.87213   0.00000  Uiso   1.00
H541   H     0.62186   0.30580   0.84937   0.00000  Uiso   1.00
H542   H     0.53841   0.16487   0.10919   0.00000  Uiso   1.00
H543   H     0.51358   0.13930   0.06823   0.00000  Uiso   1.00
H544   H     0.97063   0.09554   0.11314   0.00000  Uiso   1.00
H545   H     0.52649   0.08901   0.12142   0.00000  Uiso   1.00
H546   H     0.95634   0.14993   0.54948   0.00000  Uiso   1.00
H547   H     0.99557   0.12106   0.15392   0.00000  Uiso   1.00
H548   H     0.94501   0.10825   0.58323   0.00000  Uiso   1.00
O549   O     0.75000  -0.00000   0.25000   0.00000  Uiso   1.00
O550   O     0.75000   0.46538   0.66251   0.00000  Uiso   1.00
O551   O     0.96538   0.25000   0.33749   0.00000  Uiso   1.00
O552   O     0.53461   0.25000   0.66251   0.00000  Uiso   1.00
O553   O     0.50000   0.21538   0.83749   0.00000  Uiso   1.00
O554   O     0.50000   0.28461   0.16251   0.00000  Uiso   1.00
O555   O     0.78461  -0.00000   0.83749   0.00000  Uiso   1.00
O556   O     0.71538  -0.00000   0.16251   0.00000  Uiso   1.00
O557   O     0.50000   0.28461   0.83749   0.00000  Uiso   1.00
O558   O     0.50000   0.21538   0.16251   0.00000  Uiso   1.00
O559   O     0.71538  -0.00000   0.83749   0.00000  Uiso   1.00
O560   O     0.75000  -0.00000   0.75000   0.00000  Uiso   1.00
O561   O     0.78461  -0.00000   0.16251   0.00000  Uiso   1.00
O562   O     0.70126   0.08332   0.27298   0.00000  Uiso   1.00
O563   O     0.79873   0.41668   0.72702   0.00000  Uiso   1.00
O564   O     0.91668   0.20126   0.27298   0.00000  Uiso   1.00
O565   O     0.58332   0.29873   0.72702   0.00000  Uiso   1.00
O566   O     0.79873   0.41668   0.27298   0.00000  Uiso   1.00
O567   O     0.70126   0.08332   0.72702   0.00000  Uiso   1.00
O568   O     0.58332   0.29873   0.27298   0.00000  Uiso   1.00
O569   O     0.91668   0.20126   0.72702   0.00000  Uiso   1.00
O570   O     0.70126   0.41668   0.72702   0.00000  Uiso   1.00
O571   O     0.50000   0.25000   0.25000   0.00000  Uiso   1.00
O572   O     0.79873   0.08332   0.27298   0.00000  Uiso   1.00
O573   O     0.91668   0.29873   0.72702   0.00000  Uiso   1.00
O574   O     0.58332   0.20126   0.27298   0.00000  Uiso   1.00
O575   O     0.79873   0.08332   0.72702   0.00000  Uiso   1.00
O576   O     0.70126   0.41668   0.27298   0.00000  Uiso   1.00
O577   O     0.58332   0.20126   0.72702   0.00000  Uiso   1.00
O578   O     0.91668   0.29873   0.27298   0.00000  Uiso   1.00
O579   O     0.95126   0.33332   0.77298   0.00000  Uiso   1.00
O580   O     0.54873   0.16668   0.22702   0.00000  Uiso   1.00
O581   O     0.66668   0.45126   0.77298   0.00000  Uiso   1.00
O582   O     0.50000   0.25000   0.75000   0.00000  Uiso   1.00
O583   O     0.83332   0.04873   0.22702   0.00000  Uiso   1.00
O584   O     0.54873   0.16668   0.77298   0.00000  Uiso   1.00
O585   O     0.95126   0.33332   0.22702   0.00000  Uiso   1.00
O586   O     0.83332   0.04873   0.77298   0.00000  Uiso   1.00
O587   O     0.66668   0.45126   0.22702   0.00000  Uiso   1.00
O588   O     0.95126   0.16668   0.22702   0.00000  Uiso   1.00
O589   O     0.54873   0.33332   0.77298   0.00000  Uiso   1.00
O590   O     0.66668   0.04873   0.22702   0.00000  Uiso   1.00
O591   O     0.83332   0.45126   0.77298   0.00000  Uiso   1.00
O592   O     0.54873   0.33332   0.22702   0.00000  Uiso   1.00
O593   O     0.75000   0.46538   0.33749   0.00000  Uiso   1.00
O594   O     0.95126   0.16668   0.77298   0.00000  Uiso   1.00
O595   O     0.83332   0.45126   0.22702   0.00000  Uiso   1.00
O596   O     0.66668   0.04873   0.77298   0.00000  Uiso   1.00
O597   O     0.57555   0.23896   0.40065   0.00000  Uiso   1.00
O598   O     0.93376   0.21236   0.60105   0.00000  Uiso   1.00
O599   O     0.72921   0.42669   0.39890   0.00000  Uiso   1.00
O600   O     0.79915   0.05721   0.60288   0.00000  Uiso   1.00
O601   O     0.92419   0.25775   0.39955   0.00000  Uiso   1.00
O602   O     0.56613   0.28815   0.60106   0.00000  Uiso   1.00
O603   O     0.76515   0.07464   0.40053   0.00000  Uiso   1.00
O604   O     0.75000   0.03461   0.66251   0.00000  Uiso   1.00
O605   O     0.70124   0.44243   0.60311   0.00000  Uiso   1.00
O606   O     0.81452   0.04035   0.89903   0.00000  Uiso   1.00
O607   O     0.67395   0.00239   0.10035   0.00000  Uiso   1.00
O608   O     0.94508   0.19751   0.89660   0.00000  Uiso   1.00
O609   O     0.52105   0.32311   0.09926   0.00000  Uiso   1.00
O610   O     0.68383   0.46287   0.89777   0.00000  Uiso   1.00
O611   O     0.82621   0.49281   0.09958   0.00000  Uiso   1.00
O612   O     0.55906   0.29605   0.89787   0.00000  Uiso   1.00
O613   O     0.97434   0.17815   0.10107   0.00000  Uiso   1.00
O614   O     0.53461   0.25000   0.33749   0.00000  Uiso   1.00
O615   O     0.96538   0.25000   0.66251   0.00000  Uiso   1.00
O616   O     0.75000   0.03461   0.33749   0.00000  Uiso   1.00
Zn617  Zn    0.70052  -0.00000   0.21730   0.00000  Uiso   1.00
Zn618  Zn    0.54947   0.25000   0.28270   0.00000  Uiso   1.00
Zn619  Zn    0.75000   0.45052   0.71730   0.00000  Uiso   1.00
Zn620  Zn    0.75000   0.04947   0.28270   0.00000  Uiso   1.00
Zn621  Zn    0.54947   0.25000   0.71730   0.00000  Uiso   1.00
Zn622  Zn    0.95052   0.25000   0.28270   0.00000  Uiso   1.00
Zn623  Zn    0.75000   0.04947   0.71730   0.00000  Uiso   1.00
Zn624  Zn    0.75000   0.45052   0.28270   0.00000  Uiso   1.00
Zn625  Zn    0.79947  -0.00000   0.78270   0.00000  Uiso   1.00
Zn626  Zn    0.50000   0.20052   0.21730   0.00000  Uiso   1.00
Zn627  Zn    0.50000   0.29947   0.78270   0.00000  Uiso   1.00
Zn628  Zn    0.79947  -0.00000   0.21730   0.00000  Uiso   1.00
Zn629  Zn    0.70052  -0.00000   0.78270   0.00000  Uiso   1.00
Zn630  Zn    0.50000   0.29947   0.21730   0.00000  Uiso   1.00
Zn631  Zn    0.50000   0.20052   0.78270   0.00000  Uiso   1.00
Zn632  Zn    0.95052   0.25000   0.71730   0.00000  Uiso   1.00
C633   C     0.24968   0.50001   0.35619   0.00000  Uiso   1.00
C634   C     0.33001   0.91999   0.75000   0.00000  Uiso   1.00
C635   C     0.45496   0.68608   0.01977   0.00000  Uiso   1.00
C636   C     0.32424   0.52019   0.97961   0.00000  Uiso   1.00
C637   C     0.17520   0.97898   0.01998   0.00000  Uiso   1.00
C638   C     0.45418   0.68641   0.97931   0.00000  Uiso   1.00
C639   C     0.04506   0.81149   0.01984   0.00000  Uiso   1.00
C640   C     0.07923   0.69483   0.39495   0.00000  Uiso   1.00
C641   C     0.09730   0.67294   0.43053   0.00000  Uiso   1.00
C642   C     0.44712   0.67056   0.60885   0.00000  Uiso   1.00
C643   C     0.43727   0.64120   0.57512   0.00000  Uiso   1.00
C644   C     0.26544   0.90079   0.40020   0.00000  Uiso   1.00
C645   C     0.42000   0.67000   0.25000   0.00000  Uiso   1.00
C646   C     0.25787   0.86203   0.37533   0.00000  Uiso   1.00
C647   C     0.33929   0.53852   0.60738   0.00000  Uiso   1.00
C648   C     0.36613   0.56633   0.63336   0.00000  Uiso   1.00
C649   C     0.41558   0.80144   0.40012   0.00000  Uiso   1.00
C650   C     0.37533   0.80984   0.37760   0.00000  Uiso   1.00
C651   C     0.05276   0.82980   0.60950   0.00000  Uiso   1.00
C652   C     0.06230   0.85973   0.57611   0.00000  Uiso   1.00
C653   C     0.22530   0.59451   0.39658   0.00000  Uiso   1.00
C654   C     0.21753   0.62579   0.42920   0.00000  Uiso   1.00
C655   C     0.16094   0.96099   0.60673   0.00000  Uiso   1.00
C656   C     0.08001   0.82999   0.75001   0.00000  Uiso   1.00
C657   C     0.13402   0.93387   0.63325   0.00000  Uiso   1.00
C658   C     0.29947   0.58136   0.89030   0.00000  Uiso   1.00
C659   C     0.30756   0.61184   0.92358   0.00000  Uiso   1.00
C660   C     0.16204   0.54527   0.09858   0.00000  Uiso   1.00
C661   C     0.12145   0.55144   0.12125   0.00000  Uiso   1.00
C662   C     0.40701   0.72006   0.89208   0.00000  Uiso   1.00
C663   C     0.37772   0.69516   0.86585   0.00000  Uiso   1.00
C664   C     0.48306   0.84646   0.10277   0.00000  Uiso   1.00
C665   C     0.47810   0.87778   0.06969   0.00000  Uiso   1.00
C666   C     0.19566   0.92043   0.89195   0.00000  Uiso   1.00
C667   C     0.33001   0.91999   0.25000   0.00000  Uiso   1.00
C668   C     0.16279   0.89912   0.86673   0.00000  Uiso   1.00
C669   C     0.33274   0.94904   0.10547   0.00000  Uiso   1.00
C670   C     0.35625   0.92929   0.07157   0.00000  Uiso   1.00
C671   C     0.09343   0.76791   0.89443   0.00000  Uiso   1.00
C672   C     0.13087   0.79101   0.87723   0.00000  Uiso   1.00
C673   C     0.00877   0.64999   0.09852   0.00000  Uiso   1.00
C674   C     0.49976   0.61148   0.12333   0.00000  Uiso   1.00
C675   C     0.16999   0.58000   0.75000   0.00000  Uiso   1.00
C676   C     0.08000   0.83000   0.25000   0.00000  Uiso   1.00
C677   C     0.42000   0.67000   0.74999   0.00000  Uiso   1.00
C678   C     0.17001   0.91999   0.75002   0.00000  Uiso   1.00
C679   C     0.33000   0.58000   0.25000   0.00000  Uiso   1.00
C680   C     0.41999   0.83000   0.75000   0.00000  Uiso   1.00
C681   C     0.25002   0.99998   0.64412   0.00000  Uiso   1.00
C682   C     0.08000   0.66999   0.25000   0.00000  Uiso   1.00
C683   C     0.32999   0.58001   0.75002   0.00000  Uiso   1.00
C684   C     0.17000   0.92000   0.25000   0.00000  Uiso   1.00
C685   C     0.08001   0.67000   0.75000   0.00000  Uiso   1.00
C686   C     0.42000   0.83001   0.25001   0.00000  Uiso   1.00
C687   C     0.13834   0.88834   0.25000   0.00000  Uiso   1.00
C688   C     0.36165   0.61166   0.75001   0.00000  Uiso   1.00
C689   C     0.11166   0.63833   0.25000   0.00000  Uiso   1.00
C690   C     0.38834   0.86166   0.75000   0.00000  Uiso   1.00
C691   C     0.36166   0.61166   0.24999   0.00000  Uiso   1.00
C692   C     0.49997   0.74983   0.35618   0.00000  Uiso   1.00
C693   C     0.13836   0.88833   0.75003   0.00000  Uiso   1.00
C694   C     0.38834   0.86166   0.25002   0.00000  Uiso   1.00
C695   C     0.11167   0.63834   0.75000   0.00000  Uiso   1.00
C696   C     0.13834   0.61166   0.75001   0.00000  Uiso   1.00
C697   C     0.36166   0.88834   0.25001   0.00000  Uiso   1.00
C698   C     0.11168   0.86164   0.75002   0.00000  Uiso   1.00
C699   C     0.38834   0.63834   0.25000   0.00000  Uiso   1.00
C700   C     0.36166   0.88834   0.75000   0.00000  Uiso   1.00
C701   C     0.13834   0.61166   0.24999   0.00000  Uiso   1.00
C702   C     0.38834   0.63835   0.75000   0.00000  Uiso   1.00
C703   C     0.00000   0.75003   0.64401   0.00000  Uiso   1.00
C704   C     0.11166   0.86166   0.25000   0.00000  Uiso   1.00
C705   C     0.03810   0.74783   0.41957   0.00000  Uiso   1.00
C706   C     0.46512   0.73396   0.58138   0.00000  Uiso   1.00
C707   C     0.23735   0.96331   0.41924   0.00000  Uiso   1.00
C708   C     0.27379   0.53010   0.58191   0.00000  Uiso   1.00
C709   C     0.46138   0.75079   0.41933   0.00000  Uiso   1.00
C710   C     0.03465   0.76679   0.58133   0.00000  Uiso   1.00
C711   C     0.26042   0.53653   0.41961   0.00000  Uiso   1.00
C712   C     0.22684   0.96926   0.58205   0.00000  Uiso   1.00
C713   C     0.28386   0.51776   0.91871   0.00000  Uiso   1.00
C714   C     0.49981   0.74992   0.85587   0.00000  Uiso   1.00
C715   C     0.21159   0.99758   0.08067   0.00000  Uiso   1.00
C716   C     0.47286   0.72184   0.91784   0.00000  Uiso   1.00
C717   C     0.01311   0.78550   0.08025   0.00000  Uiso   1.00
C718   C     0.21530   0.98294   0.91836   0.00000  Uiso   1.00
C719   C     0.28834   0.99914   0.08050   0.00000  Uiso   1.00
C720   C     0.02737   0.77587   0.91815   0.00000  Uiso   1.00
C721   C     0.48429   0.71436   0.08077   0.00000  Uiso   1.00
C722   C     0.49982   0.74941   0.39892   0.00000  Uiso   1.00
C723   C     0.49996   0.75022   0.60161   0.00000  Uiso   1.00
C724   C     0.24908   0.99998   0.39893   0.00000  Uiso   1.00
C725   C     0.49970   0.75002   0.14380   0.00000  Uiso   1.00
C726   C     0.25016   0.99985   0.60187   0.00000  Uiso   1.00
C727   C     0.24974   0.50029   0.89838   0.00000  Uiso   1.00
C728   C     0.24998   0.99883   0.10111   0.00000  Uiso   1.00
C729   C     0.49966   0.74954   0.89809   0.00000  Uiso   1.00
C730   C     0.49892   0.75001   0.10103   0.00000  Uiso   1.00
C731   C     0.46120   0.74512   0.45975   0.00000  Uiso   1.00
C732   C     0.03710   0.76122   0.54101   0.00000  Uiso   1.00
C733   C     0.26718   0.53403   0.45975   0.00000  Uiso   1.00
C734   C     0.22981   0.96633   0.54147   0.00000  Uiso   1.00
C735   C     0.03803   0.75523   0.45968   0.00000  Uiso   1.00
C736   C     0.24997   0.50019   0.85597   0.00000  Uiso   1.00
C737   C     0.46241   0.73996   0.54115   0.00000  Uiso   1.00
C738   C     0.23246   0.96479   0.45980   0.00000  Uiso   1.00
C739   C     0.27119   0.53250   0.54126   0.00000  Uiso   1.00
C740   C     0.21293   0.98675   0.95888   0.00000  Uiso   1.00
C741   C     0.28790   0.50605   0.04032   0.00000  Uiso   1.00
C742   C     0.02437   0.77925   0.95868   0.00000  Uiso   1.00
C743   C     0.47893   0.71641   0.04024   0.00000  Uiso   1.00
C744   C     0.28654   0.51202   0.95899   0.00000  Uiso   1.00
C745   C     0.21187   0.99127   0.04034   0.00000  Uiso   1.00
C746   C     0.47551   0.71851   0.95851   0.00000  Uiso   1.00
C747   C     0.25000   0.99973   0.14382   0.00000  Uiso   1.00
C748   C     0.01972   0.78222   0.04009   0.00000  Uiso   1.00
C749   C     0.49962   0.75037   0.48008   0.00000  Uiso   1.00
C750   C     0.49970   0.75057   0.52073   0.00000  Uiso   1.00
C751   C     0.25011   0.99932   0.48023   0.00000  Uiso   1.00
C752   C     0.25042   0.99934   0.52100   0.00000  Uiso   1.00
C753   C     0.24976   0.99918   0.97927   0.00000  Uiso   1.00
C754   C     0.24985   0.99882   0.01994   0.00000  Uiso   1.00
C755   C     0.49962   0.74909   0.97896   0.00000  Uiso   1.00
C756   C     0.49940   0.74922   0.01972   0.00000  Uiso   1.00
C757   C     0.42371   0.73591   0.48035   0.00000  Uiso   1.00
C758   C     0.17000   0.58001   0.24999   0.00000  Uiso   1.00
C759   C     0.07514   0.76754   0.52036   0.00000  Uiso   1.00
C760   C     0.28922   0.56589   0.47991   0.00000  Uiso   1.00
C761   C     0.21171   0.93222   0.52079   0.00000  Uiso   1.00
C762   C     0.07537   0.76546   0.47999   0.00000  Uiso   1.00
C763   C     0.42419   0.73407   0.52074   0.00000  Uiso   1.00
C764   C     0.21160   0.93234   0.48039   0.00000  Uiso   1.00
C765   C     0.28973   0.56616   0.52027   0.00000  Uiso   1.00
C766   C     0.17551   0.97723   0.97959   0.00000  Uiso   1.00
C767   C     0.32459   0.51831   0.01997   0.00000  Uiso   1.00
C768   C     0.04660   0.81070   0.97946   0.00000  Uiso   1.00
Cl769  Cl    0.37612   0.72181   0.45662   0.00000  Uiso   1.00
Cl770  Cl    0.37045   0.53657   0.04419   0.00000  Uiso   1.00
Cl771  Cl    0.07389   0.85243   0.95612   0.00000  Uiso   1.00
Cl772  Cl    0.42148   0.64962   0.04378   0.00000  Uiso   1.00
Cl773  Cl    0.37324   0.52839   0.95598   0.00000  Uiso   1.00
Cl774  Cl    0.12924   0.96085   0.04419   0.00000  Uiso   1.00
Cl775  Cl    0.42896   0.64333   0.95607   0.00000  Uiso   1.00
Cl776  Cl    0.07964   0.84651   0.04430   0.00000  Uiso   1.00
Cl777  Cl    0.12443   0.77344   0.54403   0.00000  Uiso   1.00
Cl778  Cl    0.32105   0.60346   0.45544   0.00000  Uiso   1.00
Cl779  Cl    0.19180   0.88642   0.54406   0.00000  Uiso   1.00
Cl780  Cl    0.12221   0.78084   0.45568   0.00000  Uiso   1.00
Cl781  Cl    0.37503   0.72893   0.54483   0.00000  Uiso   1.00
Cl782  Cl    0.18064   0.89337   0.45681   0.00000  Uiso   1.00
Cl783  Cl    0.31099   0.61167   0.54296   0.00000  Uiso   1.00
Cl784  Cl    0.12680   0.96645   0.95626   0.00000  Uiso   1.00
H785   H     0.10141   0.68965   0.37061   0.00000  Uiso   1.00
H786   H     0.40329   0.64292   0.56770   0.00000  Uiso   1.00
H787   H     0.27199   0.89020   0.43025   0.00000  Uiso   1.00
H788   H     0.29367   0.91761   0.38879   0.00000  Uiso   1.00
H789   H     0.25209   0.87160   0.34495   0.00000  Uiso   1.00
H790   H     0.28587   0.84115   0.37628   0.00000  Uiso   1.00
H791   H     0.23009   0.84431   0.38618   0.00000  Uiso   1.00
H792   H     0.35538   0.53553   0.57894   0.00000  Uiso   1.00
H793   H     0.33700   0.50679   0.62103   0.00000  Uiso   1.00
H794   H     0.35186   0.56808   0.66257   0.00000  Uiso   1.00
H795   H     0.39837   0.55301   0.63583   0.00000  Uiso   1.00
H796   H     0.04895   0.67957   0.38642   0.00000  Uiso   1.00
H797   H     0.36822   0.59861   0.62118   0.00000  Uiso   1.00
H798   H     0.44161   0.81966   0.38637   0.00000  Uiso   1.00
H799   H     0.41093   0.81284   0.43024   0.00000  Uiso   1.00
H800   H     0.34859   0.79264   0.39102   0.00000  Uiso   1.00
H801   H     0.36832   0.84412   0.37773   0.00000  Uiso   1.00
H802   H     0.37906   0.79914   0.34728   0.00000  Uiso   1.00
H803   H     0.07065   0.84084   0.63513   0.00000  Uiso   1.00
H804   H     0.01874   0.83200   0.61735   0.00000  Uiso   1.00
H805   H     0.04322   0.85123   0.55042   0.00000  Uiso   1.00
H806   H     0.05434   0.89250   0.58465   0.00000  Uiso   1.00
H807   H     0.07431   0.67384   0.45465   0.00000  Uiso   1.00
H808   H     0.09627   0.85838   0.56858   0.00000  Uiso   1.00
H809   H     0.19829   0.57201   0.39465   0.00000  Uiso   1.00
H810   H     0.22549   0.61240   0.36903   0.00000  Uiso   1.00
H811   H     0.24395   0.64866   0.43106   0.00000  Uiso   1.00
H812   H     0.18803   0.64342   0.42346   0.00000  Uiso   1.00
H813   H     0.21414   0.60899   0.45711   0.00000  Uiso   1.00
H814   H     0.14517   0.96289   0.57807   0.00000  Uiso   1.00
H815   H     0.16285   0.99318   0.61950   0.00000  Uiso   1.00
H816   H     0.14794   0.93329   0.66263   0.00000  Uiso   1.00
H817   H     0.10164   0.94699   0.63499   0.00000  Uiso   1.00
H818   H     0.10413   0.63945   0.42365   0.00000  Uiso   1.00
H819   H     0.13236   0.90116   0.62200   0.00000  Uiso   1.00
H820   H     0.26543   0.58214   0.88231   0.00000  Uiso   1.00
H821   H     0.31703   0.59298   0.86470   0.00000  Uiso   1.00
H822   H     0.34155   0.61209   0.93108   0.00000  Uiso   1.00
H823   H     0.29809   0.64416   0.91492   0.00000  Uiso   1.00
H824   H     0.28890   0.60255   0.94931   0.00000  Uiso   1.00
H825   H     0.15628   0.55520   0.06820   0.00000  Uiso   1.00
H826   H     0.18674   0.56588   0.11153   0.00000  Uiso   1.00
H827   H     0.12623   0.54206   0.15181   0.00000  Uiso   1.00
H828   H     0.11194   0.58510   0.12028   0.00000  Uiso   1.00
H829   H     0.12696   0.68858   0.43965   0.00000  Uiso   1.00
H830   H     0.09587   0.53196   0.10857   0.00000  Uiso   1.00
H831   H     0.41247   0.75149   0.87861   0.00000  Uiso   1.00
H832   H     0.39117   0.72442   0.92049   0.00000  Uiso   1.00
H833   H     0.37193   0.66337   0.87814   0.00000  Uiso   1.00
H834   H     0.34715   0.71188   0.86292   0.00000  Uiso   1.00
H835   H     0.39215   0.69169   0.83682   0.00000  Uiso   1.00
H836   H     0.48471   0.86472   0.13007   0.00000  Uiso   1.00
H837   H     0.45421   0.82641   0.10490   0.00000  Uiso   1.00
H838   H     0.47358   0.86088   0.04197   0.00000  Uiso   1.00
H839   H     0.45005   0.89784   0.07495   0.00000  Uiso   1.00
H840   H     0.42939   0.65915   0.63444   0.00000  Uiso   1.00
H841   H     0.00631   0.89838   0.06775   0.00000  Uiso   1.00
H842   H     0.19747   0.90331   0.91997   0.00000  Uiso   1.00
H843   H     0.22664   0.91807   0.87694   0.00000  Uiso   1.00
H844   H     0.15656   0.91848   0.84074   0.00000  Uiso   1.00
H845   H     0.17458   0.86788   0.85729   0.00000  Uiso   1.00
H846   H     0.13290   0.89514   0.88302   0.00000  Uiso   1.00
H847   H     0.30309   0.93112   0.11114   0.00000  Uiso   1.00
H848   H     0.35259   0.94529   0.13164   0.00000  Uiso   1.00
H849   H     0.38600   0.94669   0.06604   0.00000  Uiso   1.00
H850   H     0.36399   0.89599   0.07838   0.00000  Uiso   1.00
H851   H     0.48119   0.66818   0.61646   0.00000  Uiso   1.00
H852   H     0.33638   0.92987   0.04522   0.00000  Uiso   1.00
H853   H     0.08529   0.74118   0.87500   0.00000  Uiso   1.00
H854   H     0.10323   0.75523   0.92309   0.00000  Uiso   1.00
H855   H     0.14173   0.81562   0.89769   0.00000  Uiso   1.00
H856   H     0.15712   0.76855   0.87213   0.00000  Uiso   1.00
H857   H     0.12186   0.80580   0.84937   0.00000  Uiso   1.00
H858   H     0.03841   0.66487   0.10919   0.00000  Uiso   1.00
H859   H     0.01358   0.63930   0.06823   0.00000  Uiso   1.00
H860   H     0.47063   0.59554   0.11314   0.00000  Uiso   1.00
H861   H     0.02649   0.58901   0.12142   0.00000  Uiso   1.00
H862   H     0.45634   0.64993   0.54948   0.00000  Uiso   1.00
H863   H     0.49557   0.62106   0.15392   0.00000  Uiso   1.00
H864   H     0.44501   0.60825   0.58323   0.00000  Uiso   1.00
O865   O     0.25000   0.50000   0.25000   0.00000  Uiso   1.00
O866   O     0.25000   0.96538   0.66251   0.00000  Uiso   1.00
O867   O     0.46538   0.75000   0.33749   0.00000  Uiso   1.00
O868   O     0.03461   0.75000   0.66251   0.00000  Uiso   1.00
O869   O    -0.00000   0.71538   0.83749   0.00000  Uiso   1.00
O870   O    -0.00000   0.78461   0.16251   0.00000  Uiso   1.00
O871   O     0.28461   0.50000   0.83749   0.00000  Uiso   1.00
O872   O     0.21538   0.50000   0.16251   0.00000  Uiso   1.00
O873   O    -0.00000   0.78461   0.83749   0.00000  Uiso   1.00
O874   O    -0.00000   0.71538   0.16251   0.00000  Uiso   1.00
O875   O     0.21538   0.50000   0.83749   0.00000  Uiso   1.00
O876   O     0.25000   0.50000   0.75000   0.00000  Uiso   1.00
O877   O     0.28461   0.50000   0.16251   0.00000  Uiso   1.00
O878   O     0.20126   0.58332   0.27298   0.00000  Uiso   1.00
O879   O     0.29873   0.91668   0.72702   0.00000  Uiso   1.00
O880   O     0.41668   0.70126   0.27298   0.00000  Uiso   1.00
O881   O     0.08332   0.79873   0.72702   0.00000  Uiso   1.00
O882   O     0.29873   0.91668   0.27298   0.00000  Uiso   1.00
O883   O     0.20126   0.58332   0.72702   0.00000  Uiso   1.00
O884   O     0.08332   0.79873   0.27298   0.00000  Uiso   1.00
O885   O     0.41668   0.70126   0.72702   0.00000  Uiso   1.00
O886   O     0.20126   0.91668   0.72702   0.00000  Uiso   1.00
O887   O    -0.00000   0.75000   0.25000   0.00000  Uiso   1.00
O888   O     0.29873   0.58332   0.27298   0.00000  Uiso   1.00
O889   O     0.41668   0.79873   0.72702   0.00000  Uiso   1.00
O890   O     0.08332   0.70126   0.27298   0.00000  Uiso   1.00
O891   O     0.29873   0.58332   0.72702   0.00000  Uiso   1.00
O892   O     0.20126   0.91668   0.27298   0.00000  Uiso   1.00
O893   O     0.08332   0.70126   0.72702   0.00000  Uiso   1.00
O894   O     0.41668   0.79873   0.27298   0.00000  Uiso   1.00
O895   O     0.45126   0.83332   0.77298   0.00000  Uiso   1.00
O896   O     0.04873   0.66668   0.22702   0.00000  Uiso   1.00
O897   O     0.16668   0.95126   0.77298   0.00000  Uiso   1.00
O898   O    -0.00000   0.75000   0.75000   0.00000  Uiso   1.00
O899   O     0.33332   0.54873   0.22702   0.00000  Uiso   1.00
O900   O     0.04873   0.66668   0.77298   0.00000  Uiso   1.00
O901   O     0.45126   0.83332   0.22702   0.00000  Uiso   1.00
O902   O     0.33332   0.54873   0.77298   0.00000  Uiso   1.00
O903   O     0.16668   0.95126   0.22702   0.00000  Uiso   1.00
O904   O     0.45126   0.66668   0.22702   0.00000  Uiso   1.00
O905   O     0.04873   0.83332   0.77298   0.00000  Uiso   1.00
O906   O     0.16668   0.54873   0.22702   0.00000  Uiso   1.00
O907   O     0.33332   0.95126   0.77298   0.00000  Uiso   1.00
O908   O     0.04873   0.83332   0.22702   0.00000  Uiso   1.00
O909   O     0.25000   0.96538   0.33749   0.00000  Uiso   1.00
O910   O     0.45126   0.66668   0.77298   0.00000  Uiso   1.00
O911   O     0.33332   0.95126   0.22702   0.00000  Uiso   1.00
O912   O     0.16668   0.54873   0.77298   0.00000  Uiso   1.00
O913   O     0.07555   0.73896   0.40065   0.00000  Uiso   1.00
O914   O     0.43376   0.71236   0.60105   0.00000  Uiso   1.00
O915   O     0.22921   0.92669   0.39890   0.00000  Uiso   1.00
O916   O     0.29915   0.55721   0.60288   0.00000  Uiso   1.00
O917   O     0.42419   0.75775   0.39955   0.00000  Uiso   1.00
O918   O     0.06613   0.78815   0.60106   0.00000  Uiso   1.00
O919   O     0.26515   0.57464   0.40053   0.00000  Uiso   1.00
O920   O     0.25000   0.53461   0.66251   0.00000  Uiso   1.00
O921   O     0.20124   0.94243   0.60311   0.00000  Uiso   1.00
O922   O     0.31452   0.54035   0.89903   0.00000  Uiso   1.00
O923   O     0.17395   0.50239   0.10035   0.00000  Uiso   1.00
O924   O     0.44508   0.69751   0.89660   0.00000  Uiso   1.00
O925   O     0.02105   0.82311   0.09926   0.00000  Uiso   1.00
O926   O     0.18383   0.96287   0.89777   0.00000  Uiso   1.00
O927   O     0.32621   0.99281   0.09958   0.00000  Uiso   1.00
O928   O     0.05906   0.79605   0.89787   0.00000  Uiso   1.00
O929   O     0.47434   0.67815   0.10107   0.00000  Uiso   1.00
O930   O     0.03461   0.75000   0.33749   0.00000  Uiso   1.00
O931   O     0.46538   0.75000   0.66251   0.00000  Uiso   1.00
O932   O     0.25000   0.53461   0.33749   0.00000  Uiso   1.00
Zn933  Zn    0.20052   0.50000   0.21730   0.00000  Uiso   1.00
Zn934  Zn    0.04947   0.75000   0.28270   0.00000  Uiso   1.00
Zn935  Zn    0.25000   0.95052   0.71730   0.00000  Uiso   1.00
Zn936  Zn    0.25000   0.54947   0.28270   0.00000  Uiso   1.00
Zn937  Zn    0.04947   0.75000   0.71730   0.00000  Uiso   1.00
Zn938  Zn    0.45052   0.75000   0.28270   0.00000  Uiso   1.00
Zn939  Zn    0.25000   0.54947   0.71730   0.00000  Uiso   1.00
Zn940  Zn    0.25000   0.95052   0.28270   0.00000  Uiso   1.00
Zn941  Zn    0.29947   0.50000   0.78270   0.00000  Uiso   1.00
Zn942  Zn    0.00000   0.70052   0.21730   0.00000  Uiso   1.00
Zn943  Zn   -0.00000   0.79947   0.78270   0.00000  Uiso   1.00
Zn944  Zn    0.29947   0.50000   0.21730   0.00000  Uiso   1.00
Zn945  Zn    0.20052   0.50000   0.78270   0.00000  Uiso   1.00
Zn946  Zn   -0.00000   0.79947   0.21730   0.00000  Uiso   1.00
Zn947  Zn    0.00000   0.70052   0.78270   0.00000  Uiso   1.00
Zn948  Zn    0.45052   0.75000   0.71730   0.00000  Uiso   1.00
C949   C     0.74968   0.50001   0.35619   0.00000  Uiso   1.00
C950   C     0.83001   0.91999   0.75000   0.00000  Uiso   1.00
C951   C     0.95496   0.68608   0.01977   0.00000  Uiso   1.00
C952   C     0.82424   0.52019   0.97961   0.00000  Uiso   1.00
C953   C     0.67520   0.97898   0.01998   0.00000  Uiso   1.00
C954   C     0.95418   0.68641   0.97931   0.00000  Uiso   1.00
C955   C     0.54506   0.81149   0.01984   0.00000  Uiso   1.00
C956   C     0.57923   0.69483   0.39495   0.00000  Uiso   1.00
C957   C     0.59730   0.67294   0.43053   0.00000  Uiso   1.00
C958   C     0.94712   0.67056   0.60885   0.00000  Uiso   1.00
C959   C     0.93727   0.64120   0.57512   0.00000  Uiso   1.00
C960   C     0.76544   0.90079   0.40020   0.00000  Uiso   1.00
C961   C     0.92000   0.67000   0.25000   0.00000  Uiso   1.00
C962   C     0.75787   0.86203   0.37533   0.00000  Uiso   1.00
C963   C     0.83929   0.53852   0.60738   0.00000  Uiso   1.00
C964   C     0.86613   0.56633   0.63336   0.00000  Uiso   1.00
C965   C     0.91558   0.80144   0.40012   0.00000  Uiso   1.00
C966   C     0.87533   0.80984   0.37760   0.00000  Uiso   1.00
C967   C     0.55276   0.82980   0.60950   0.00000  Uiso   1.00
C968   C     0.56230   0.85973   0.57611   0.00000  Uiso   1.00
C969   C     0.72530   0.59451   0.39658   0.00000  Uiso   1.00
C970   C     0.71753   0.62579   0.42920   0.00000  Uiso   1.00
C971   C     0.66094   0.96099   0.60673   0.00000  Uiso   1.00
C972   C     0.58001   0.82999   0.75001   0.00000  Uiso   1.00
C973   C     0.63402   0.93387   0.63325   0.00000  Uiso   1.00
C974   C     0.79947   0.58136   0.89030   0.00000  Uiso   1.00
C975   C     0.80756   0.61184   0.92358   0.00000  Uiso   1.00
C976   C     0.66204   0.54527   0.09858   0.00000  Uiso   1.00
C977   C     0.62145   0.55144   0.12125   0.00000  Uiso   1.00
C978   C     0.90701   0.72006   0.89208   0.00000  Uiso   1.00
C979   C     0.87772   0.69516   0.86585   0.00000  Uiso   1.00
C980   C     0.98306   0.84646   0.10277   0.00000  Uiso   1.00
C981   C     0.97810   0.87778   0.06969   0.00000  Uiso   1.00
C982   C     0.69566   0.92043   0.89195   0.00000  Uiso   1.00
C983   C     0.83001   0.91999   0.25000   0.00000  Uiso   1.00
C984   C     0.66279   0.89912   0.86673   0.00000  Uiso   1.00
C985   C     0.83274   0.94904   0.10547   0.00000  Uiso   1.00
C986   C     0.85625   0.92929   0.07157   0.00000  Uiso   1.00
C987   C     0.59343   0.76791   0.89443   0.00000  Uiso   1.00
C988   C     0.63087   0.79101   0.87723   0.00000  Uiso   1.00
C989   C     0.50877   0.64999   0.09852   0.00000  Uiso   1.00
C990   C     0.99976   0.61148   0.12333   0.00000  Uiso   1.00
C991   C     0.66999   0.58000   0.75000   0.00000  Uiso   1.00
C992   C     0.58000   0.83000   0.25000   0.00000  Uiso   1.00
C993   C     0.92000   0.67000   0.74999   0.00000  Uiso   1.00
C994   C     0.67001   0.91999   0.75002   0.00000  Uiso   1.00
C995   C     0.83000   0.58000   0.25000   0.00000  Uiso   1.00
C996   C     0.91999   0.83000   0.75000   0.00000  Uiso   1.00
C997   C     0.75002   0.99998   0.64412   0.00000  Uiso   1.00
C998   C     0.58000   0.66999   0.25000   0.00000  Uiso   1.00
C999   C     0.82999   0.58001   0.75002   0.00000  Uiso   1.00
C1000  C     0.67000   0.92000   0.25000   0.00000  Uiso   1.00
C1001  C     0.58001   0.67000   0.75000   0.00000  Uiso   1.00
C1002  C     0.92000   0.83001   0.25001   0.00000  Uiso   1.00
C1003  C     0.63834   0.88834   0.25000   0.00000  Uiso   1.00
C1004  C     0.86165   0.61166   0.75001   0.00000  Uiso   1.00
C1005  C     0.61166   0.63833   0.25000   0.00000  Uiso   1.00
C1006  C     0.88834   0.86166   0.75000   0.00000  Uiso   1.00
C1007  C     0.86166   0.61166   0.24999   0.00000  Uiso   1.00
C1008  C     0.99997   0.74983   0.35618   0.00000  Uiso   1.00
C1009  C     0.63836   0.88833   0.75003   0.00000  Uiso   1.00
C1010  C     0.88834   0.86166   0.25002   0.00000  Uiso   1.00
C1011  C     0.61167   0.63834   0.75000   0.00000  Uiso   1.00
C1012  C     0.63834   0.61166   0.75001   0.00000  Uiso   1.00
C1013  C     0.86166   0.88834   0.25001   0.00000  Uiso   1.00
C1014  C     0.61168   0.86164   0.75002   0.00000  Uiso   1.00
C1015  C     0.88834   0.63834   0.25000   0.00000  Uiso   1.00
C1016  C     0.86166   0.88834   0.75000   0.00000  Uiso   1.00
C1017  C     0.63834   0.61166   0.24999   0.00000  Uiso   1.00
C1018  C     0.88834   0.63835   0.75000   0.00000  Uiso   1.00
C1019  C     0.50000   0.75003   0.64401   0.00000  Uiso   1.00
C1020  C     0.61166   0.86166   0.25000   0.00000  Uiso   1.00
C1021  C     0.53810   0.74783   0.41957   0.00000  Uiso   1.00
C1022  C     0.96512   0.73396   0.58138   0.00000  Uiso   1.00
C1023  C     0.73735   0.96331   0.41924   0.00000  Uiso   1.00
C1024  C     0.77379   0.53010   0.58191   0.00000  Uiso   1.00
C1025  C     0.96138   0.75079   0.41933   0.00000  Uiso   1.00
C1026  C     0.53465   0.76679   0.58133   0.00000  Uiso   1.00
C1027  C     0.76042   0.53653   0.41961   0.00000  Uiso   1.00
C1028  C     0.72684   0.96926   0.58205   0.00000  Uiso   1.00
C1029  C     0.78386   0.51776   0.91871   0.00000  Uiso   1.00
C1030  C     0.99981   0.74992   0.85587   0.00000  Uiso   1.00
C1031  C     0.71159   0.99758   0.08067   0.00000  Uiso   1.00
C1032  C     0.97286   0.72184   0.91784   0.00000  Uiso   1.00
C1033  C     0.51311   0.78550   0.08025   0.00000  Uiso   1.00
C1034  C     0.71530   0.98294   0.91836   0.00000  Uiso   1.00
C1035  C     0.78834   0.99914   0.08050   0.00000  Uiso   1.00
C1036  C     0.52737   0.77587   0.91815   0.00000  Uiso   1.00
C1037  C     0.98429   0.71436   0.08077   0.00000  Uiso   1.00
C1038  C     0.99982   0.74941   0.39892   0.00000  Uiso   1.00
C1039  C     0.99996   0.75022   0.60161   0.00000  Uiso   1.00
C1040  C     0.74908   0.99998   0.39893   0.00000  Uiso   1.00
C1041  C     0.99970   0.75002   0.14380   0.00000  Uiso   1.00
C1042  C     0.75016   0.99985   0.60187   0.00000  Uiso   1.00
C1043  C     0.74974   0.50029   0.89838   0.00000  Uiso   1.00
C1044  C     0.74998   0.99883   0.10111   0.00000  Uiso   1.00
C1045  C     0.99966   0.74954   0.89809   0.00000  Uiso   1.00
C1046  C     0.99892   0.75001   0.10103   0.00000  Uiso   1.00
C1047  C     0.96120   0.74512   0.45975   0.00000  Uiso   1.00
C1048  C     0.53710   0.76122   0.54101   0.00000  Uiso   1.00
C1049  C     0.76718   0.53403   0.45975   0.00000  Uiso   1.00
C1050  C     0.72981   0.96633   0.54147   0.00000  Uiso   1.00
C1051  C     0.53803   0.75523   0.45968   0.00000  Uiso   1.00
C1052  C     0.74997   0.50019   0.85597   0.00000  Uiso   1.00
C1053  C     0.96241   0.73996   0.54115   0.00000  Uiso   1.00
C1054  C     0.73246   0.96479   0.45980   0.00000  Uiso   1.00
C1055  C     0.77119   0.53250   0.54126   0.00000  Uiso   1.00
C1056  C     0.71293   0.98675   0.95888   0.00000  Uiso   1.00
C1057  C     0.78790   0.50605   0.04032   0.00000  Uiso   1.00
C1058  C     0.52437   0.77925   0.95868   0.00000  Uiso   1.00
C1059  C     0.97893   0.71641   0.04024   0.00000  Uiso   1.00
C1060  C     0.78654   0.51202   0.95899   0.00000  Uiso   1.00
C1061  C     0.71187   0.99127   0.04034   0.00000  Uiso   1.00
C1062  C     0.97551   0.71851   0.95851   0.00000  Uiso   1.00
C1063  C     0.75000   0.99973   0.14382   0.00000  Uiso   1.00
C1064  C     0.51972   0.78222   0.04009   0.00000  Uiso   1.00
C1065  C     0.99962   0.75037   0.48008   0.00000  Uiso   1.00
C1066  C     0.99970   0.75057   0.52073   0.00000  Uiso   1.00
C1067  C     0.75011   0.99932   0.48023   0.00000  Uiso   1.00
C1068  C     0.75042   0.99934   0.52100   0.00000  Uiso   1.00
C1069  C     0.74976   0.99918   0.97927   0.00000  Uiso   1.00
C1070  C     0.74985   0.99882   0.01994   0.00000  Uiso   1.00
C1071  C     0.99962   0.74909   0.97896   0.00000  Uiso   1.00
C1072  C     0.99940   0.74922   0.01972   0.00000  Uiso   1.00
C1073  C     0.92371   0.73591   0.48035   0.00000  Uiso   1.00
C1074  C     0.67000   0.58001   0.24999   0.00000  Uiso   1.00
C1075  C     0.57514   0.76754   0.52036   0.00000  Uiso   1.00
C1076  C     0.78922   0.56589   0.47991   0.00000  Uiso   1.00
C1077  C     0.71171   0.93222   0.52079   0.00000  Uiso   1.00
C1078  C     0.57537   0.76546   0.47999   0.00000  Uiso   1.00
C1079  C     0.92419   0.73407   0.52074   0.00000  Uiso   1.00
C1080  C     0.71160   0.93234   0.48039   0.00000  Uiso   1.00
C1081  C     0.78973   0.56616   0.52027   0.00000  Uiso   1.00
C1082  C     0.67551   0.97723   0.97959   0.00000  Uiso   1.00
C1083  C     0.82459   0.51831   0.01997   0.00000  Uiso   1.00
C1084  C     0.54660   0.81070   0.97946   0.00000  Uiso   1.00
Cl1085 Cl    0.87612   0.72181   0.45662   0.00000  Uiso   1.00
Cl1086 Cl    0.87045   0.53657   0.04419   0.00000  Uiso   1.00
Cl1087 Cl    0.57389   0.85243   0.95612   0.00000  Uiso   1.00
Cl1088 Cl    0.92148   0.64962   0.04378   0.00000  Uiso   1.00
Cl1089 Cl    0.87324   0.52839   0.95598   0.00000  Uiso   1.00
Cl1090 Cl    0.62924   0.96085   0.04419   0.00000  Uiso   1.00
Cl1091 Cl    0.92896   0.64333   0.95607   0.00000  Uiso   1.00
Cl1092 Cl    0.57964   0.84651   0.04430   0.00000  Uiso   1.00
Cl1093 Cl    0.62443   0.77344   0.54403   0.00000  Uiso   1.00
Cl1094 Cl    0.82105   0.60346   0.45544   0.00000  Uiso   1.00
Cl1095 Cl    0.69180   0.88642   0.54406   0.00000  Uiso   1.00
Cl1096 Cl    0.62221   0.78084   0.45568   0.00000  Uiso   1.00
Cl1097 Cl    0.87503   0.72893   0.54483   0.00000  Uiso   1.00
Cl1098 Cl    0.68064   0.89337   0.45681   0.00000  Uiso   1.00
Cl1099 Cl    0.81099   0.61167   0.54296   0.00000  Uiso   1.00
Cl1100 Cl    0.62680   0.96645   0.95626   0.00000  Uiso   1.00
H1101  H     0.60141   0.68965   0.37061   0.00000  Uiso   1.00
H1102  H     0.90329   0.64292   0.56770   0.00000  Uiso   1.00
H1103  H     0.77199   0.89020   0.43025   0.00000  Uiso   1.00
H1104  H     0.79367   0.91761   0.38879   0.00000  Uiso   1.00
H1105  H     0.75209   0.87160   0.34495   0.00000  Uiso   1.00
H1106  H     0.78587   0.84115   0.37628   0.00000  Uiso   1.00
H1107  H     0.73009   0.84431   0.38618   0.00000  Uiso   1.00
H1108  H     0.85538   0.53553   0.57894   0.00000  Uiso   1.00
H1109  H     0.83700   0.50679   0.62103   0.00000  Uiso   1.00
H1110  H     0.85186   0.56808   0.66257   0.00000  Uiso   1.00
H1111  H     0.89837   0.55301   0.63583   0.00000  Uiso   1.00
H1112  H     0.54895   0.67957   0.38642   0.00000  Uiso   1.00
H1113  H     0.86822   0.59861   0.62118   0.00000  Uiso   1.00
H1114  H     0.94161   0.81966   0.38637   0.00000  Uiso   1.00
H1115  H     0.91093   0.81284   0.43024   0.00000  Uiso   1.00
H1116  H     0.84859   0.79264   0.39102   0.00000  Uiso   1.00
H1117  H     0.86832   0.84412   0.37773   0.00000  Uiso   1.00
H1118  H     0.87906   0.79914   0.34728   0.00000  Uiso   1.00
H1119  H     0.57065   0.84084   0.63513   0.00000  Uiso   1.00
H1120  H     0.51874   0.83200   0.61735   0.00000  Uiso   1.00
H1121  H     0.54322   0.85123   0.55042   0.00000  Uiso   1.00
H1122  H     0.55434   0.89250   0.58465   0.00000  Uiso   1.00
H1123  H     0.57431   0.67384   0.45465   0.00000  Uiso   1.00
H1124  H     0.59627   0.85838   0.56858   0.00000  Uiso   1.00
H1125  H     0.69829   0.57201   0.39465   0.00000  Uiso   1.00
H1126  H     0.72549   0.61240   0.36903   0.00000  Uiso   1.00
H1127  H     0.74395   0.64866   0.43106   0.00000  Uiso   1.00
H1128  H     0.68803   0.64342   0.42346   0.00000  Uiso   1.00
H1129  H     0.71414   0.60899   0.45711   0.00000  Uiso   1.00
H1130  H     0.64517   0.96289   0.57807   0.00000  Uiso   1.00
H1131  H     0.66285   0.99318   0.61950   0.00000  Uiso   1.00
H1132  H     0.64794   0.93329   0.66263   0.00000  Uiso   1.00
H1133  H     0.60164   0.94699   0.63499   0.00000  Uiso   1.00
H1134  H     0.60413   0.63945   0.42365   0.00000  Uiso   1.00
H1135  H     0.63236   0.90116   0.62200   0.00000  Uiso   1.00
H1136  H     0.76543   0.58214   0.88231   0.00000  Uiso   1.00
H1137  H     0.81703   0.59298   0.86470   0.00000  Uiso   1.00
H1138  H     0.84155   0.61209   0.93108   0.00000  Uiso   1.00
H1139  H     0.79809   0.64416   0.91492   0.00000  Uiso   1.00
H1140  H     0.78890   0.60255   0.94931   0.00000  Uiso   1.00
H1141  H     0.65628   0.55520   0.06820   0.00000  Uiso   1.00
H1142  H     0.68674   0.56588   0.11153   0.00000  Uiso   1.00
H1143  H     0.62623   0.54206   0.15181   0.00000  Uiso   1.00
H1144  H     0.61194   0.58510   0.12028   0.00000  Uiso   1.00
H1145  H     0.62696   0.68858   0.43965   0.00000  Uiso   1.00
H1146  H     0.59587   0.53196   0.10857   0.00000  Uiso   1.00
H1147  H     0.91247   0.75149   0.87861   0.00000  Uiso   1.00
H1148  H     0.89117   0.72442   0.92049   0.00000  Uiso   1.00
H1149  H     0.87193   0.66337   0.87814   0.00000  Uiso   1.00
H1150  H     0.84715   0.71188   0.86292   0.00000  Uiso   1.00
H1151  H     0.89215   0.69169   0.83682   0.00000  Uiso   1.00
H1152  H     0.98471   0.86472   0.13007   0.00000  Uiso   1.00
H1153  H     0.95421   0.82641   0.10490   0.00000  Uiso   1.00
H1154  H     0.97358   0.86088   0.04197   0.00000  Uiso   1.00
H1155  H     0.95005   0.89784   0.07495   0.00000  Uiso   1.00
H1156  H     0.92939   0.65915   0.63444   0.00000  Uiso   1.00
H1157  H     0.50631   0.89838   0.06775   0.00000  Uiso   1.00
H1158  H     0.69747   0.90331   0.91997   0.00000  Uiso   1.00
H1159  H     0.72664   0.91807   0.87694   0.00000  Uiso   1.00
H1160  H     0.65656   0.91848   0.84074   0.00000  Uiso   1.00
H1161  H     0.67458   0.86788   0.85729   0.00000  Uiso   1.00
H1162  H     0.63290   0.89514   0.88302   0.00000  Uiso   1.00
H1163  H     0.80309   0.93112   0.11114   0.00000  Uiso   1.00
H1164  H     0.85259   0.94529   0.13164   0.00000  Uiso   1.00
H1165  H     0.88600   0.94669   0.06604   0.00000  Uiso   1.00
H1166  H     0.86399   0.89599   0.07838   0.00000  Uiso   1.00
H1167  H     0.98119   0.66818   0.61646   0.00000  Uiso   1.00
H1168  H     0.83638   0.92987   0.04522   0.00000  Uiso   1.00
H1169  H     0.58529   0.74118   0.87500   0.00000  Uiso   1.00
H1170  H     0.60323   0.75523   0.92309   0.00000  Uiso   1.00
H1171  H     0.64173   0.81562   0.89769   0.00000  Uiso   1.00
H1172  H     0.65712   0.76855   0.87213   0.00000  Uiso   1.00
H1173  H     0.62186   0.80580   0.84937   0.00000  Uiso   1.00
H1174  H     0.53841   0.66487   0.10919   0.00000  Uiso   1.00
H1175  H     0.51358   0.63930   0.06823   0.00000  Uiso   1.00
H1176  H     0.97063   0.59554   0.11314   0.00000  Uiso   1.00
H1177  H     0.52649   0.58901   0.12142   0.00000  Uiso   1.00
H1178  H     0.95634   0.64993   0.54948   0.00000  Uiso   1.00
H1179  H     0.99557   0.62106   0.15392   0.00000  Uiso   1.00
H1180  H     0.94501   0.60825   0.58323   0.00000  Uiso   1.00
O1181  O     0.75000   0.50000   0.25000   0.00000  Uiso   1.00
O1182  O     0.75000   0.96538   0.66251   0.00000  Uiso   1.00
O1183  O     0.96538   0.75000   0.33749   0.00000  Uiso   1.00
O1184  O     0.53461   0.75000   0.66251   0.00000  Uiso   1.00
O1185  O     0.50000   0.71538   0.83749   0.00000  Uiso   1.00
O1186  O     0.50000   0.78461   0.16251   0.00000  Uiso   1.00
O1187  O     0.78461   0.50000   0.83749   0.00000  Uiso   1.00
O1188  O     0.71538   0.50000   0.16251   0.00000  Uiso   1.00
O1189  O     0.50000   0.78461   0.83749   0.00000  Uiso   1.00
O1190  O     0.50000   0.71538   0.16251   0.00000  Uiso   1.00
O1191  O     0.71538   0.50000   0.83749   0.00000  Uiso   1.00
O1192  O     0.75000   0.50000   0.75000   0.00000  Uiso   1.00
O1193  O     0.78461   0.50000   0.16251   0.00000  Uiso   1.00
O1194  O     0.70126   0.58332   0.27298   0.00000  Uiso   1.00
O1195  O     0.79873   0.91668   0.72702   0.00000  Uiso   1.00
O1196  O     0.91668   0.70126   0.27298   0.00000  Uiso   1.00
O1197  O     0.58332   0.79873   0.72702   0.00000  Uiso   1.00
O1198  O     0.79873   0.91668   0.27298   0.00000  Uiso   1.00
O1199  O     0.70126   0.58332   0.72702   0.00000  Uiso   1.00
O1200  O     0.58332   0.79873   0.27298   0.00000  Uiso   1.00
O1201  O     0.91668   0.70126   0.72702   0.00000  Uiso   1.00
O1202  O     0.70126   0.91668   0.72702   0.00000  Uiso   1.00
O1203  O     0.50000   0.75000   0.25000   0.00000  Uiso   1.00
O1204  O     0.79873   0.58332   0.27298   0.00000  Uiso   1.00
O1205  O     0.91668   0.79873   0.72702   0.00000  Uiso   1.00
O1206  O     0.58332   0.70126   0.27298   0.00000  Uiso   1.00
O1207  O     0.79873   0.58332   0.72702   0.00000  Uiso   1.00
O1208  O     0.70126   0.91668   0.27298   0.00000  Uiso   1.00
O1209  O     0.58332   0.70126   0.72702   0.00000  Uiso   1.00
O1210  O     0.91668   0.79873   0.27298   0.00000  Uiso   1.00
O1211  O     0.95126   0.83332   0.77298   0.00000  Uiso   1.00
O1212  O     0.54873   0.66668   0.22702   0.00000  Uiso   1.00
O1213  O     0.66668   0.95126   0.77298   0.00000  Uiso   1.00
O1214  O     0.50000   0.75000   0.75000   0.00000  Uiso   1.00
O1215  O     0.83332   0.54873   0.22702   0.00000  Uiso   1.00
O1216  O     0.54873   0.66668   0.77298   0.00000  Uiso   1.00
O1217  O     0.95126   0.83332   0.22702   0.00000  Uiso   1.00
O1218  O     0.83332   0.54873   0.77298   0.00000  Uiso   1.00
O1219  O     0.66668   0.95126   0.22702   0.00000  Uiso   1.00
O1220  O     0.95126   0.66668   0.22702   0.00000  Uiso   1.00
O1221  O     0.54873   0.83332   0.77298   0.00000  Uiso   1.00
O1222  O     0.66668   0.54873   0.22702   0.00000  Uiso   1.00
O1223  O     0.83332   0.95126   0.77298   0.00000  Uiso   1.00
O1224  O     0.54873   0.83332   0.22702   0.00000  Uiso   1.00
O1225  O     0.75000   0.96538   0.33749   0.00000  Uiso   1.00
O1226  O     0.95126   0.66668   0.77298   0.00000  Uiso   1.00
O1227  O     0.83332   0.95126   0.22702   0.00000  Uiso   1.00
O1228  O     0.66668   0.54873   0.77298   0.00000  Uiso   1.00
O1229  O     0.57555   0.73896   0.40065   0.00000  Uiso   1.00
O1230  O     0.93376   0.71236   0.60105   0.00000  Uiso   1.00
O1231  O     0.72921   0.92669   0.39890   0.00000  Uiso   1.00
O1232  O     0.79915   0.55721   0.60288   0.00000  Uiso   1.00
O1233  O     0.92419   0.75775   0.39955   0.00000  Uiso   1.00
O1234  O     0.56613   0.78815   0.60106   0.00000  Uiso   1.00
O1235  O     0.76515   0.57464   0.40053   0.00000  Uiso   1.00
O1236  O     0.75000   0.53461   0.66251   0.00000  Uiso   1.00
O1237  O     0.70124   0.94243   0.60311   0.00000  Uiso   1.00
O1238  O     0.81452   0.54035   0.89903   0.00000  Uiso   1.00
O1239  O     0.67395   0.50239   0.10035   0.00000  Uiso   1.00
O1240  O     0.94508   0.69751   0.89660   0.00000  Uiso   1.00
O1241  O     0.52105   0.82311   0.09926   0.00000  Uiso   1.00
O1242  O     0.68383   0.96287   0.89777   0.00000  Uiso   1.00
O1243  O     0.82621   0.99281   0.09958   0.00000  Uiso   1.00
O1244  O     0.55906   0.79605   0.89787   0.00000  Uiso   1.00
O1245  O     0.97434   0.67815   0.10107   0.00000  Uiso   1.00
O1246  O     0.53461   0.75000   0.33749   0.00000  Uiso   1.00
O1247  O     0.96538   0.75000   0.66251   0.00000  Uiso   1.00
O1248  O     0.75000   0.53461   0.33749   0.00000  Uiso   1.00
Zn1249 Zn    0.70052   0.50000   0.21730   0.00000  Uiso   1.00
Zn1250 Zn    0.54947   0.75000   0.28270   0.00000  Uiso   1.00
Zn1251 Zn    0.75000   0.95052   0.71730   0.00000  Uiso   1.00
Zn1252 Zn    0.75000   0.54947   0.28270   0.00000  Uiso   1.00
Zn1253 Zn    0.54947   0.75000   0.71730   0.00000  Uiso   1.00
Zn1254 Zn    0.95052   0.75000   0.28270   0.00000  Uiso   1.00
Zn1255 Zn    0.75000   0.54947   0.71730   0.00000  Uiso   1.00
Zn1256 Zn    0.75000   0.95052   0.28270   0.00000  Uiso   1.00
Zn1257 Zn    0.79947   0.50000   0.78270   0.00000  Uiso   1.00
Zn1258 Zn    0.50000   0.70052   0.21730   0.00000  Uiso   1.00
Zn1259 Zn    0.50000   0.79947   0.78270   0.00000  Uiso   1.00
Zn1260 Zn    0.79947   0.50000   0.21730   0.00000  Uiso   1.00
Zn1261 Zn    0.70052   0.50000   0.78270   0.00000  Uiso   1.00
Zn1262 Zn    0.50000   0.79947   0.21730   0.00000  Uiso   1.00
Zn1263 Zn    0.50000   0.70052   0.78270   0.00000  Uiso   1.00
Zn1264 Zn    0.95052   0.75000   0.71730   0.00000  Uiso   1.00
loop_
_geom_bond_atom_site_label_1
_geom_bond_atom_site_label_2
_geom_bond_distance
_geom_bond_site_symmetry_2
_ccdc_geom_bond_type
C1     O300    1.275   .     A
C1     C724    1.481   1_545 S
C1     O909    1.276   1_545 S
C2     O247    1.276   .     A
C2     C68     1.421   .     S
C2     O275    1.277   .     A
C3     C111    1.417   .     A
C3     Cl140   1.777   .     S
C3     C6      1.402   1_554 S
C4     Cl141   1.776   .     S
C4     C112    1.417   .     A
C4     C135    1.400   1_556 S
C5     C113    1.415   .     A
C5     Cl142   1.777   .     S
C5     C134    1.401   1_554 S
C6     C114    1.419   .     A
C6     Cl143   1.776   .     S
C6     C3      1.402   1_556 S
C7     C116    1.414   .     A
C7     Cl144   1.776   .     S
C7     C136    1.400   1_554 S
C8     H164    1.115   .     S
C8     H153    1.111   .     S
C8     C9      1.527   .     S
C8     O281    1.419   .     S
C9     H197    1.110   .     S
C9     H186    1.110   .     S
C9     H175    1.110   .     S
C10    O282    1.419   .     S
C10    H208    1.111   .     S
C10    H219    1.115   .     S
C10    C11     1.527   .     S
C11    H154    1.110   .     S
C11    H232    1.110   .     S
C11    H230    1.110   .     S
C12    H156    1.115   .     S
C12    C14     1.521   .     S
C12    O283    1.414   .     S
C12    H155    1.114   .     S
C13    O272    1.276   .     A
C13    O248    1.277   .     A
C13    C67     1.420   .     S
C14    H158    1.109   .     S
C14    H157    1.111   .     S
C14    H159    1.111   .     S
C15    H161    1.115   .     S
C15    H160    1.114   .     S
C15    O284    1.414   .     S
C15    C16     1.521   .     S
C16    H162    1.110   .     S
C16    H165    1.110   .     S
C16    H163    1.110   .     S
C17    H166    1.115   .     S
C17    C18     1.520   .     S
C17    H167    1.114   .     S
C17    O285    1.413   .     S
C18    H170    1.110   .     S
C18    H169    1.111   .     S
C18    H168    1.111   .     S
C19    C20     1.527   .     S
C19    H172    1.115   .     S
C19    O286    1.419   .     S
C19    H171    1.111   .     S
C20    H174    1.110   .     S
C20    H176    1.110   .     S
C20    H173    1.110   .     S
C21    H177    1.117   .     S
C21    C22     1.524   .     S
C21    H178    1.111   .     S
C21    O287    1.420   .     S
C22    H181    1.110   .     S
C22    H179    1.110   .     S
C22    H180    1.109   .     S
C23    H182    1.114   .     S
C23    H183    1.115   .     S
C23    O289    1.413   .     S
C23    C25     1.521   .     S
C24    O249    1.277   .     A
C24    C66     1.420   .     S
C24    O273    1.276   .     A
C25    H185    1.110   .     S
C25    H187    1.110   .     S
C25    H184    1.110   .     S
C26    O290    1.419   .     S
C26    H188    1.115   .     S
C26    H189    1.111   .     S
C26    C27     1.526   .     S
C27    H192    1.110   .     S
C27    H190    1.109   .     S
C27    H191    1.110   .     S
C28    H194    1.115   .     S
C28    C29     1.521   .     S
C28    O291    1.414   .     S
C28    H193    1.114   .     S
C29    H195    1.111   .     S
C29    H198    1.111   .     S
C29    H196    1.111   .     S
C30    H200    1.114   .     S
C30    C31     1.521   .     S
C30    O292    1.413   .     S
C30    H199    1.115   .     S
C31    H202    1.110   .     S
C31    H203    1.111   .     S
C31    H201    1.110   .     S
C32    H204    1.111   .     S
C32    C33     1.525   .     S
C32    H205    1.117   .     S
C32    O609    1.420   .     S
C33    H207    1.110   .     S
C33    H206    1.109   .     S
C33    H525    1.110   .     S
C34    O294    1.412   .     S
C34    C36     1.519   .     S
C34    H211    1.114   .     S
C34    H210    1.114   .     S
C35    O250    1.276   .     A
C35    C65     1.421   .     S
C35    O279    1.277   .     A
C36    H214    1.111   .     S
C36    H213    1.109   .     S
C36    H212    1.108   .     S
C37    C38     1.526   .     S
C37    H216    1.111   .     S
C37    O295    1.419   .     S
C37    H215    1.116   .     S
C38    H218    1.110   .     S
C38    H217    1.110   .     S
C38    H220    1.110   .     S
C39    H222    1.116   .     S
C39    C40     1.517   .     S
C39    H221    1.113   .     S
C39    O296    1.415   .     S
C40    H223    1.110   .     S
C40    H224    1.110   .     S
C40    H225    1.111   .     S
C41    H226    1.115   .     S
C41    H227    1.114   .     S
C41    C358    1.521   1_455 S
C41    O613    1.415   1_455 S
C42    H231    1.111   .     S
C42    H228    1.111   .     S
C42    C357    1.521   .     S
C42    H545    1.110   .     S
C43    O251    1.276   .     A
C43    C64     1.421   .     S
C43    O280    1.276   .     A
C44    O276    1.277   .     A
C44    C72     1.420   .     S
C44    O252    1.277   .     A
C45    C70     1.420   .     S
C45    O278    1.277   .     A
C45    O253    1.277   .     A
C46    O265    1.276   .     A
C46    O254    1.276   .     A
C46    C61     1.420   .     S
C47    O267    1.276   .     A
C47    O256    1.276   .     A
C47    C59     1.420   .     S
C48    O263    1.276   .     A
C48    O257    1.277   .     A
C48    C58     1.421   .     S
C49    O234    1.269   .     A
C49    C94     1.464   .     S
C49    O920    1.270   .     S
C50    C57     1.421   .     S
C50    O258    1.277   .     A
C50    O264    1.276   .     A
C51    O270    1.277   .     A
C51    O259    1.277   .     A
C51    C56     1.420   .     S
C52    O260    1.276   .     A
C52    C55     1.420   .     S
C52    O271    1.277   .     A
C53    O261    1.276   .     A
C53    C63     1.421   .     S
C53    O268    1.276   .     A
C54    O269    1.277   .     A
C54    C62     1.421   .     S
C54    O262    1.276   .     A
C55    C72     1.197   .     T
C56    C70     1.197   .     T
C57    C69     1.197   .     T
C58    C68     1.197   .     T
C59    C67     1.197   .     T
C60    C90     1.481   .     S
C60    O235    1.274   .     A
C60    O614    1.276   .     S
C61    C66     1.197   .     T
C62    C65     1.197   .     T
C63    C64     1.197   .     T
C69    C126    1.421   .     S
C71    O236    1.272   .     A
C71    C407    1.469   1_455 S
C71    O615    1.271   1_455 S
C73    C103    1.410   .     A
C73    O281    1.386   .     S
C73    C406    1.411   1_455 S
C74    C105    1.410   .     A
C74    C91     1.407   .     A
C74    O282    1.387   .     S
C75    C106    1.415   .     A
C75    O283    1.383   .     S
C75    C92     1.410   .     A
C76    C107    1.413   .     A
C76    O284    1.384   .     S
C76    C726    1.400   1_545 S
C77    O285    1.383   .     S
C77    C90     1.410   .     A
C77    C99     1.412   .     A
C78    O286    1.387   .     S
C78    C100    1.411   .     A
C78    C407    1.407   1_455 S
C79    O287    1.386   .     S
C79    C101    1.410   .     A
C79    C724    1.410   1_545 S
C80    C102    1.413   .     A
C80    O289    1.384   .     S
C80    C94     1.400   .     A
C81    C95     1.405   .     A
C81    C112    1.410   .     A
C81    O290    1.387   .     S
C82    O553    1.267   .     A
C82    O557    1.272   .     A
C82    C97     1.463   .     S
C83    C96     1.410   .     A
C83    C113    1.412   .     A
C83    O923    1.383   .     S
C84    C114    1.416   .     A
C84    O292    1.383   .     S
C84    C97     1.401   .     A
C85    C116    1.411   .     A
C85    O293    1.386   .     S
C85    C414    1.410   1_455 S
C86    C108    1.411   .     A
C86    O294    1.382   .     S
C86    C727    1.406   .     S
C87    O295    1.386   .     S
C87    C96     1.411   .     A
C87    C741    1.410   .     S
C88    C110    1.412   .     A
C88    O296    1.383   .     S
C88    C413    1.398   1_455 S
C89    O297    1.383   .     S
C89    C98     1.410   .     A
C89    C111    1.416   .     A
C90    C389    1.411   .     S
C91    C394    1.407   .     S
C91    C387    1.469   .     S
C92    C633    1.481   .     S
C92    C711    1.410   .     S
C93    O558    1.276   .     A
C93    O554    1.275   .     A
C93    C98     1.482   .     S
C94    C708    1.400   .     S
C95    C104    1.469   .     S
C95    C718    1.406   1_545 S
C96    C115    1.480   .     S
C97    C404    1.398   .     S
C98    C401    1.410   .     S
C99    C117    1.418   .     A
C99    C125    1.417   .     A
C100   C127    1.417   .     A
C100   C434    1.420   1_455 S
C101   C128    1.413   .     A
C101   C751    1.417   1_545 S
C102   C120    1.424   .     A
C102   C129    1.419   .     A
C103   C130    1.416   .     A
C103   C433    1.417   1_455 S
C104   O239    1.272   .     S
C104   O243    1.270   .     S
C105   C131    1.416   .     A
C105   C118    1.419   .     A
C106   C132    1.416   .     A
C106   C119    1.419   .     A
C107   C133    1.420   .     A
C107   C752    1.426   1_545 S
C108   C121    1.421   .     A
C108   C134    1.419   .     A
C109   C135    1.415   .     A
C109   C719    1.410   1_545 S
C109   C754    1.417   1_545 S
C110   C136    1.418   .     A
C110   C439    1.423   1_455 S
C111   C124    1.418   .     A
C112   C753    1.421   1_545 S
C113   C122    1.417   .     A
C114   C123    1.424   .     A
C115   O872    1.275   .     S
C115   O877    1.275   .     S
C116   C440    1.417   1_455 S
C117   C118    1.409   .     A
C117   C419    1.417   .     S
C118   C416    1.420   .     S
C119   C120    1.413   .     A
C119   C733    1.417   .     S
C120   C739    1.426   .     S
C121   C744    1.421   .     S
C121   C122    1.409   1_556 S
C122   C741    1.417   .     S
C122   C121    1.409   1_554 S
C123   C426    1.423   .     S
C123   C124    1.412   1_556 S
C124   C432    1.417   .     S
C124   C123    1.412   1_554 S
C125   C131    1.401   .     A
C125   Cl137   1.776   .     S
C126   O246    1.277   .     A
C126   O274    1.276   .     A
C127   Cl145   1.776   .     S
C127   C130    1.401   .     A
C128   Cl146   1.777   .     S
C128   C133    1.399   .     A
C129   Cl147   1.778   .     S
C129   C132    1.400   .     A
C130   Cl148   1.776   .     S
C131   Cl149   1.776   .     S
C132   Cl150   1.778   .     S
C133   Cl151   1.777   .     S
C134   Cl152   1.777   .     S
C134   C5      1.401   1_556 S
C135   Cl138   1.776   .     S
C135   C4      1.400   1_554 S
C136   Cl139   1.776   .     S
C136   C7      1.400   1_556 S
H209   C349    1.110   1_455 S
H229   C358    1.110   1_455 S
O233   Zn304   1.936   .     S
O233   Zn301   1.936   .     S
O233   Zn940   1.936   1_545 S
O233   Zn312   1.936   .     S
O234   Zn303   1.956   .     S
O235   Zn306   1.956   .     S
O236   Zn305   1.956   .     S
O237   C398    1.267   1_455 A
O237   Zn315   1.956   .     S
O238   Zn314   1.956   .     S
O238   C409    1.275   1_455 A
O239   Zn309   1.956   .     S
O240   C747    1.275   1_545 S
O240   Zn301   1.956   .     S
O241   Zn311   1.956   .     S
O241   C398    1.272   1_455 A
O242   C409    1.276   1_455 A
O242   Zn310   1.956   .     S
O243   Zn313   1.956   .     S
O244   Zn313   1.936   .     S
O244   Zn935   1.936   1_545 S
O244   Zn309   1.936   .     S
O244   Zn307   1.936   .     S
O245   C747    1.275   1_545 S
O245   Zn312   1.956   .     S
O246   Zn304   1.913   .     S
O247   Zn303   1.913   .     S
O248   Zn306   1.912   .     S
O249   Zn305   1.912   .     S
O250   Zn308   1.913   .     S
O251   Zn307   1.913   .     S
O252   Zn302   1.912   .     S
O253   Zn316   1.912   .     S
O254   Zn303   1.912   .     S
O255   Zn314   1.936   .     S
O255   Zn622   1.936   1_455 S
O255   Zn302   1.936   .     S
O255   Zn310   1.936   .     S
O256   Zn304   1.912   .     S
O257   Zn316   1.913   .     S
O258   Zn302   1.913   .     S
O259   Zn307   1.912   .     S
O260   Zn308   1.912   .     S
O261   Zn305   1.913   .     S
O262   Zn306   1.913   .     S
O263   Zn627   1.913   .     S
O264   Zn310   1.913   .     S
O265   Zn945   1.912   .     S
O266   Zn632   1.936   1_455 S
O266   Zn311   1.936   .     S
O266   Zn305   1.936   .     S
O266   Zn315   1.936   .     S
O267   Zn312   1.912   .     S
O268   Zn315   1.913   .     S
O269   Zn630   1.913   .     S
O270   Zn309   1.912   .     S
O271   Zn933   1.912   .     S
O272   Zn626   1.912   .     S
O273   Zn311   1.912   .     S
O274   Zn301   1.913   .     S
O275   Zn941   1.913   .     S
O276   Zn314   1.912   .     S
O277   Zn308   1.956   .     S
O277   C633    1.276   .     S
O278   Zn631   1.912   .     S
O279   Zn944   1.913   .     S
O280   Zn313   1.913   .     S
O288   Zn307   1.956   .     S
O288   C681    1.270   1_545 S
O291   C715    1.383   1_545 S
O293   C348    1.420   1_455 S
O297   C357    1.415   .     S
O298   Zn302   1.956   .     S
O298   C376    1.276   1_455 S
O299   Zn316   1.956   .     S
O299   C387    1.271   .     S
O300   Zn304   1.956   .     S
Zn301  O903    1.912   1_545 S
Zn303  O876    1.936   .     S
Zn306  O571    1.936   .     S
Zn308  O865    1.936   .     S
Zn309  O907    1.913   1_545 S
Zn310  O588    1.912   1_455 S
Zn311  O579    1.913   1_455 S
Zn312  O911    1.913   1_545 S
Zn313  O897    1.912   1_545 S
Zn314  O585    1.913   1_455 S
Zn315  O594    1.912   1_455 S
Zn316  O582    1.936   .     S
C317   O616    1.275   .     A
C317   C1040   1.481   1_545 S
C317   O1225   1.276   1_545 S
C318   O563    1.276   .     A
C318   C384    1.421   .     S
C318   O591    1.277   .     A
C319   C427    1.417   .     A
C319   Cl456   1.777   .     S
C319   C322    1.402   1_554 S
C320   Cl457   1.776   .     S
C320   C428    1.417   .     A
C320   C451    1.400   1_556 S
C321   C429    1.415   .     A
C321   Cl458   1.777   .     S
C321   C450    1.401   1_554 S
C322   C430    1.419   .     A
C322   Cl459   1.776   .     S
C322   C319    1.402   1_556 S
C323   C432    1.414   .     A
C323   Cl460   1.776   .     S
C323   C452    1.400   1_554 S
C324   H480    1.115   .     S
C324   H469    1.111   .     S
C324   C325    1.527   .     S
C324   O597    1.419   .     S
C325   H513    1.110   .     S
C325   H502    1.110   .     S
C325   H491    1.110   .     S
C326   O598    1.419   .     S
C326   H524    1.111   .     S
C326   H535    1.115   .     S
C326   C327    1.527   .     S
C327   H470    1.110   .     S
C327   H548    1.110   .     S
C327   H546    1.110   .     S
C328   H472    1.115   .     S
C328   C330    1.521   .     S
C328   O599    1.414   .     S
C328   H471    1.114   .     S
C329   O588    1.276   .     A
C329   O564    1.277   .     A
C329   C383    1.420   .     S
C330   H474    1.109   .     S
C330   H473    1.111   .     S
C330   H475    1.111   .     S
C331   H477    1.115   .     S
C331   H476    1.114   .     S
C331   O600    1.414   .     S
C331   C332    1.521   .     S
C332   H478    1.110   .     S
C332   H481    1.110   .     S
C332   H479    1.110   .     S
C333   H482    1.115   .     S
C333   C334    1.520   .     S
C333   H483    1.114   .     S
C333   O601    1.413   .     S
C334   H486    1.110   .     S
C334   H485    1.111   .     S
C334   H484    1.111   .     S
C335   C336    1.527   .     S
C335   H488    1.115   .     S
C335   O602    1.419   .     S
C335   H487    1.111   .     S
C336   H490    1.110   .     S
C336   H492    1.110   .     S
C336   H489    1.110   .     S
C337   H493    1.117   .     S
C337   C338    1.524   .     S
C337   H494    1.111   .     S
C337   O603    1.420   .     S
C338   H497    1.110   .     S
C338   H495    1.110   .     S
C338   H496    1.109   .     S
C339   H498    1.114   .     S
C339   H499    1.115   .     S
C339   O605    1.413   .     S
C339   C341    1.521   .     S
C340   O565    1.277   .     A
C340   C382    1.420   .     S
C340   O589    1.276   .     A
C341   H501    1.110   .     S
C341   H503    1.110   .     S
C341   H500    1.110   .     S
C342   O606    1.419   .     S
C342   H504    1.115   .     S
C342   H505    1.111   .     S
C342   C343    1.526   .     S
C343   H508    1.110   .     S
C343   H506    1.109   .     S
C343   H507    1.110   .     S
C344   H510    1.115   .     S
C344   C345    1.521   .     S
C344   O607    1.414   .     S
C344   H509    1.114   .     S
C345   H511    1.111   .     S
C345   H514    1.111   .     S
C345   H512    1.111   .     S
C346   H516    1.114   .     S
C346   C347    1.521   .     S
C346   O608    1.413   .     S
C346   H515    1.115   .     S
C347   H518    1.110   .     S
C347   H519    1.111   .     S
C347   H517    1.110   .     S
C348   H520    1.111   .     S
C348   C349    1.525   .     S
C348   H521    1.117   .     S
C348   O293    1.420   1_655 S
C349   H523    1.110   .     S
C349   H522    1.109   .     S
C349   H209    1.110   1_655 S
C350   O610    1.412   .     S
C350   C352    1.519   .     S
C350   H527    1.114   .     S
C350   H526    1.114   .     S
C351   O566    1.276   .     A
C351   C381    1.421   .     S
C351   O595    1.277   .     A
C352   H530    1.111   .     S
C352   H529    1.109   .     S
C352   H528    1.108   .     S
C353   C354    1.526   .     S
C353   H532    1.111   .     S
C353   O611    1.419   .     S
C353   H531    1.116   .     S
C354   H534    1.110   .     S
C354   H533    1.110   .     S
C354   H536    1.110   .     S
C355   H538    1.116   .     S
C355   C356    1.517   .     S
C355   H537    1.113   .     S
C355   O612    1.415   .     S
C356   H539    1.110   .     S
C356   H540    1.110   .     S
C356   H541    1.111   .     S
C357   H542    1.115   .     S
C357   H543    1.114   .     S
C358   H547    1.111   .     S
C358   H544    1.111   .     S
C358   C41     1.521   1_655 S
C358   H229    1.110   1_655 S
C359   O567    1.276   .     A
C359   C380    1.421   .     S
C359   O596    1.276   .     A
C360   O592    1.277   .     A
C360   C388    1.420   .     S
C360   O568    1.277   .     A
C361   C386    1.420   .     S
C361   O594    1.277   .     A
C361   O569    1.277   .     A
C362   O581    1.276   .     A
C362   O570    1.276   .     A
C362   C377    1.420   .     S
C363   O583    1.276   .     A
C363   O572    1.276   .     A
C363   C375    1.420   .     S
C364   O579    1.276   .     A
C364   O573    1.277   .     A
C364   C374    1.421   .     S
C365   O550    1.269   .     A
C365   C410    1.464   .     S
C365   O1236   1.270   .     S
C366   C373    1.421   .     S
C366   O574    1.277   .     A
C366   O580    1.276   .     A
C367   O586    1.277   .     A
C367   O575    1.277   .     A
C367   C372    1.420   .     S
C368   O576    1.276   .     A
C368   C371    1.420   .     S
C368   O587    1.277   .     A
C369   O577    1.276   .     A
C369   C379    1.421   .     S
C369   O584    1.276   .     A
C370   O585    1.277   .     A
C370   C378    1.421   .     S
C370   O578    1.276   .     A
C371   C388    1.197   .     T
C372   C386    1.197   .     T
C373   C385    1.197   .     T
C374   C384    1.197   .     T
C375   C383    1.197   .     T
C376   C406    1.481   .     S
C376   O551    1.274   .     A
C376   O298    1.276   1_655 S
C377   C382    1.197   .     T
C378   C381    1.197   .     T
C379   C380    1.197   .     T
C385   C442    1.421   .     S
C387   O552    1.272   .     A
C389   C419    1.410   .     A
C389   O597    1.386   .     S
C390   C421    1.410   .     A
C390   C407    1.407   .     A
C390   O598    1.387   .     S
C391   C422    1.415   .     A
C391   O599    1.383   .     S
C391   C408    1.410   .     A
C392   C423    1.413   .     A
C392   O600    1.384   .     S
C392   C1042   1.400   1_545 S
C393   O601    1.383   .     S
C393   C406    1.410   .     A
C393   C415    1.412   .     A
C394   O602    1.387   .     S
C394   C416    1.411   .     A
C395   O603    1.386   .     S
C395   C417    1.410   .     A
C395   C1040   1.410   1_545 S
C396   C418    1.413   .     A
C396   O605    1.384   .     S
C396   C410    1.400   .     A
C397   C411    1.405   .     A
C397   C428    1.410   .     A
C397   O606    1.387   .     S
C398   O237    1.267   1_655 A
C398   O241    1.272   1_655 A
C398   C413    1.463   .     S
C399   C412    1.410   .     A
C399   C429    1.412   .     A
C399   O1239   1.383   .     S
C400   C430    1.416   .     A
C400   O608    1.383   .     S
C400   C413    1.401   .     A
C401   C432    1.411   .     A
C401   O609    1.386   .     S
C402   C424    1.411   .     A
C402   O610    1.382   .     S
C402   C1043   1.406   .     S
C403   O611    1.386   .     S
C403   C412    1.411   .     A
C403   C1057   1.410   .     S
C404   C426    1.412   .     A
C404   O612    1.383   .     S
C405   O613    1.383   .     S
C405   C414    1.410   .     A
C405   C427    1.416   .     A
C406   C73     1.411   1_655 S
C407   C78     1.407   1_655 S
C407   C71     1.469   1_655 S
C408   C949    1.481   .     S
C408   C1027   1.410   .     S
C409   O242    1.276   1_655 A
C409   O238    1.275   1_655 A
C409   C414    1.482   .     S
C410   C1024   1.400   .     S
C411   C420    1.469   .     S
C411   C1034   1.406   1_545 S
C412   C431    1.480   .     S
C413   C88     1.398   1_655 S
C414   C85     1.410   1_655 S
C415   C433    1.418   .     A
C415   C441    1.417   .     A
C416   C443    1.417   .     A
C417   C444    1.413   .     A
C417   C1067   1.417   1_545 S
C418   C436    1.424   .     A
C418   C445    1.419   .     A
C419   C446    1.416   .     A
C420   O555    1.272   .     S
C420   O559    1.270   .     S
C421   C447    1.416   .     A
C421   C434    1.419   .     A
C422   C448    1.416   .     A
C422   C435    1.419   .     A
C423   C449    1.420   .     A
C423   C1068   1.426   1_545 S
C424   C437    1.421   .     A
C424   C450    1.419   .     A
C425   C451    1.415   .     A
C425   C1035   1.410   1_545 S
C425   C1070   1.417   1_545 S
C426   C452    1.418   .     A
C427   C440    1.418   .     A
C428   C1069   1.421   1_545 S
C429   C438    1.417   .     A
C430   C439    1.424   .     A
C431   O1188   1.275   .     S
C431   O1193   1.275   .     S
C433   C434    1.409   .     A
C433   C103    1.417   1_655 S
C434   C100    1.420   1_655 S
C435   C436    1.413   .     A
C435   C1049   1.417   .     S
C436   C1055   1.426   .     S
C437   C1060   1.421   .     S
C437   C438    1.409   1_556 S
C438   C1057   1.417   .     S
C438   C437    1.409   1_554 S
C439   C110    1.423   1_655 S
C439   C440    1.412   1_556 S
C440   C116    1.417   1_655 S
C440   C439    1.412   1_554 S
C441   C447    1.401   .     A
C441   Cl453   1.776   .     S
C442   O562    1.277   .     A
C442   O590    1.276   .     A
C443   Cl461   1.776   .     S
C443   C446    1.401   .     A
C444   Cl462   1.777   .     S
C444   C449    1.399   .     A
C445   Cl463   1.778   .     S
C445   C448    1.400   .     A
C446   Cl464   1.776   .     S
C447   Cl465   1.776   .     S
C448   Cl466   1.778   .     S
C449   Cl467   1.777   .     S
C450   Cl468   1.777   .     S
C450   C321    1.401   1_556 S
C451   Cl454   1.776   .     S
C451   C320    1.400   1_554 S
C452   Cl455   1.776   .     S
C452   C323    1.400   1_556 S
O549   Zn620   1.936   .     S
O549   Zn617   1.936   .     S
O549   Zn1256  1.936   1_545 S
O549   Zn628   1.936   .     S
O550   Zn619   1.956   .     S
O551   Zn622   1.956   .     S
O552   Zn621   1.956   .     S
O553   Zn631   1.956   .     S
O554   Zn630   1.956   .     S
O555   Zn625   1.956   .     S
O556   C1063   1.275   1_545 S
O556   Zn617   1.956   .     S
O557   Zn627   1.956   .     S
O558   Zn626   1.956   .     S
O559   Zn629   1.956   .     S
O560   Zn629   1.936   .     S
O560   Zn1251  1.936   1_545 S
O560   Zn625   1.936   .     S
O560   Zn623   1.936   .     S
O561   C1063   1.275   1_545 S
O561   Zn628   1.956   .     S
O562   Zn620   1.913   .     S
O563   Zn619   1.913   .     S
O564   Zn622   1.912   .     S
O565   Zn621   1.912   .     S
O566   Zn624   1.913   .     S
O567   Zn623   1.913   .     S
O568   Zn618   1.912   .     S
O569   Zn632   1.912   .     S
O570   Zn619   1.912   .     S
O571   Zn630   1.936   .     S
O571   Zn618   1.936   .     S
O571   Zn626   1.936   .     S
O572   Zn620   1.912   .     S
O573   Zn632   1.913   .     S
O574   Zn618   1.913   .     S
O575   Zn623   1.912   .     S
O576   Zn624   1.912   .     S
O577   Zn621   1.913   .     S
O578   Zn622   1.913   .     S
O579   Zn311   1.913   1_655 S
O580   Zn626   1.913   .     S
O581   Zn1261  1.912   .     S
O582   Zn627   1.936   .     S
O582   Zn621   1.936   .     S
O582   Zn631   1.936   .     S
O583   Zn628   1.912   .     S
O584   Zn631   1.913   .     S
O585   Zn314   1.913   1_655 S
O586   Zn625   1.912   .     S
O587   Zn1249  1.912   .     S
O588   Zn310   1.912   1_655 S
O589   Zn627   1.912   .     S
O590   Zn617   1.913   .     S
O591   Zn1257  1.913   .     S
O592   Zn630   1.912   .     S
O593   Zn624   1.956   .     S
O593   C949    1.276   .     S
O594   Zn315   1.912   1_655 S
O595   Zn1260  1.913   .     S
O596   Zn629   1.913   .     S
O604   Zn623   1.956   .     S
O604   C997    1.270   1_545 S
O607   C1031   1.383   1_545 S
O613   C41     1.415   1_655 S
O614   Zn618   1.956   .     S
O615   Zn632   1.956   .     S
O615   C71     1.271   1_655 S
O616   Zn620   1.956   .     S
Zn617  O1219   1.912   1_545 S
Zn619  O1192   1.936   .     S
Zn622  O255    1.936   1_655 S
Zn624  O1181   1.936   .     S
Zn625  O1223   1.913   1_545 S
Zn628  O1227   1.913   1_545 S
Zn629  O1213   1.912   1_545 S
Zn632  O266    1.936   1_655 S
C633   O932    1.275   .     A
C634   O879    1.276   .     A
C634   C700    1.421   .     S
C634   O907    1.277   .     A
C635   C743    1.417   .     A
C635   Cl772   1.777   .     S
C635   C638    1.402   1_554 S
C636   Cl773   1.776   .     S
C636   C744    1.417   .     A
C636   C767    1.400   1_556 S
C637   C745    1.415   .     A
C637   Cl774   1.777   .     S
C637   C766    1.401   1_554 S
C638   C746    1.419   .     A
C638   Cl775   1.776   .     S
C638   C635    1.402   1_556 S
C639   C748    1.414   .     A
C639   Cl776   1.776   .     S
C639   C768    1.400   1_554 S
C640   H796    1.115   .     S
C640   H785    1.111   .     S
C640   C641    1.527   .     S
C640   O913    1.419   .     S
C641   H829    1.110   .     S
C641   H818    1.110   .     S
C641   H807    1.110   .     S
C642   O914    1.419   .     S
C642   H840    1.111   .     S
C642   H851    1.115   .     S
C642   C643    1.527   .     S
C643   H786    1.110   .     S
C643   H864    1.110   .     S
C643   H862    1.110   .     S
C644   H788    1.115   .     S
C644   C646    1.521   .     S
C644   O915    1.414   .     S
C644   H787    1.114   .     S
C645   O904    1.276   .     A
C645   O880    1.277   .     A
C645   C699    1.420   .     S
C646   H790    1.109   .     S
C646   H789    1.111   .     S
C646   H791    1.111   .     S
C647   H793    1.115   .     S
C647   H792    1.114   .     S
C647   O916    1.414   .     S
C647   C648    1.521   .     S
C648   H794    1.110   .     S
C648   H797    1.110   .     S
C648   H795    1.110   .     S
C649   H798    1.115   .     S
C649   C650    1.520   .     S
C649   H799    1.114   .     S
C649   O917    1.413   .     S
C650   H802    1.110   .     S
C650   H801    1.111   .     S
C650   H800    1.111   .     S
C651   C652    1.527   .     S
C651   H804    1.115   .     S
C651   O918    1.419   .     S
C651   H803    1.111   .     S
C652   H806    1.110   .     S
C652   H808    1.110   .     S
C652   H805    1.110   .     S
C653   H809    1.117   .     S
C653   C654    1.524   .     S
C653   H810    1.111   .     S
C653   O919    1.420   .     S
C654   H813    1.110   .     S
C654   H811    1.110   .     S
C654   H812    1.109   .     S
C655   H814    1.114   .     S
C655   H815    1.115   .     S
C655   O921    1.413   .     S
C655   C657    1.521   .     S
C656   O881    1.277   .     A
C656   C698    1.420   .     S
C656   O905    1.276   .     A
C657   H817    1.110   .     S
C657   H819    1.110   .     S
C657   H816    1.110   .     S
C658   O922    1.419   .     S
C658   H820    1.115   .     S
C658   H821    1.111   .     S
C658   C659    1.526   .     S
C659   H824    1.110   .     S
C659   H822    1.109   .     S
C659   H823    1.110   .     S
C660   H826    1.115   .     S
C660   C661    1.521   .     S
C660   O923    1.414   .     S
C660   H825    1.114   .     S
C661   H827    1.111   .     S
C661   H830    1.111   .     S
C661   H828    1.111   .     S
C662   H832    1.114   .     S
C662   C663    1.521   .     S
C662   O924    1.413   .     S
C662   H831    1.115   .     S
C663   H834    1.110   .     S
C663   H835    1.111   .     S
C663   H833    1.110   .     S
C664   H836    1.111   .     S
C664   C665    1.525   .     S
C664   H837    1.117   .     S
C664   O1241   1.420   .     S
C665   H839    1.110   .     S
C665   H838    1.109   .     S
C665   H1157   1.110   .     S
C666   O926    1.412   .     S
C666   C668    1.519   .     S
C666   H843    1.114   .     S
C666   H842    1.114   .     S
C667   O882    1.276   .     A
C667   C697    1.421   .     S
C667   O911    1.277   .     A
C668   H846    1.111   .     S
C668   H845    1.109   .     S
C668   H844    1.108   .     S
C669   C670    1.526   .     S
C669   H848    1.111   .     S
C669   O927    1.419   .     S
C669   H847    1.116   .     S
C670   H850    1.110   .     S
C670   H849    1.110   .     S
C670   H852    1.110   .     S
C671   H854    1.116   .     S
C671   C672    1.517   .     S
C671   H853    1.113   .     S
C671   O928    1.415   .     S
C672   H855    1.110   .     S
C672   H856    1.110   .     S
C672   H857    1.111   .     S
C673   H858    1.115   .     S
C673   H859    1.114   .     S
C673   C990    1.521   1_455 S
C673   O1245   1.415   1_455 S
C674   H863    1.111   .     S
C674   H860    1.111   .     S
C674   C989    1.521   .     S
C674   H1177   1.110   .     S
C675   O883    1.276   .     A
C675   C696    1.421   .     S
C675   O912    1.276   .     A
C676   O908    1.277   .     A
C676   C704    1.420   .     S
C676   O884    1.277   .     A
C677   C702    1.420   .     S
C677   O910    1.277   .     A
C677   O885    1.277   .     A
C678   O897    1.276   .     A
C678   O886    1.276   .     A
C678   C693    1.420   .     S
C679   O899    1.276   .     A
C679   O888    1.276   .     A
C679   C691    1.420   .     S
C680   O895    1.276   .     A
C680   O889    1.277   .     A
C680   C690    1.421   .     S
C681   O866    1.269   .     A
C681   C726    1.464   .     S
C681   O288    1.270   1_565 S
C682   C689    1.421   .     S
C682   O890    1.277   .     A
C682   O896    1.276   .     A
C683   O902    1.277   .     A
C683   O891    1.277   .     A
C683   C688    1.420   .     S
C684   O892    1.276   .     A
C684   C687    1.420   .     S
C684   O903    1.277   .     A
C685   O893    1.276   .     A
C685   C695    1.421   .     S
C685   O900    1.276   .     A
C686   O901    1.277   .     A
C686   C694    1.421   .     S
C686   O894    1.276   .     A
C687   C704    1.197   .     T
C688   C702    1.197   .     T
C689   C701    1.197   .     T
C690   C700    1.197   .     T
C691   C699    1.197   .     T
C692   C722    1.481   .     S
C692   O867    1.274   .     A
C692   O1246   1.276   .     S
C693   C698    1.197   .     T
C694   C697    1.197   .     T
C695   C696    1.197   .     T
C701   C758    1.421   .     S
C703   O868    1.272   .     A
C703   C1039   1.469   1_455 S
C703   O1247   1.271   1_455 S
C705   C735    1.410   .     A
C705   O913    1.386   .     S
C705   C1038   1.411   1_455 S
C706   C737    1.410   .     A
C706   C723    1.407   .     A
C706   O914    1.387   .     S
C707   C738    1.415   .     A
C707   O915    1.383   .     S
C707   C724    1.410   .     A
C708   C739    1.413   .     A
C708   O916    1.384   .     S
C709   O917    1.383   .     S
C709   C722    1.410   .     A
C709   C731    1.412   .     A
C710   O918    1.387   .     S
C710   C732    1.411   .     A
C710   C1039   1.407   1_455 S
C711   O919    1.386   .     S
C711   C733    1.410   .     A
C712   C734    1.413   .     A
C712   O921    1.384   .     S
C712   C726    1.400   .     A
C713   C727    1.405   .     A
C713   C744    1.410   .     A
C713   O922    1.387   .     S
C714   O1185   1.267   .     A
C714   O1189   1.272   .     A
C714   C729    1.463   .     S
C715   C728    1.410   .     A
C715   C745    1.412   .     A
C715   O291    1.383   1_565 S
C716   C746    1.416   .     A
C716   O924    1.383   .     S
C716   C729    1.401   .     A
C717   C748    1.411   .     A
C717   O925    1.386   .     S
C717   C1046   1.410   1_455 S
C718   C740    1.411   .     A
C718   O926    1.382   .     S
C718   C95     1.406   1_565 S
C719   O927    1.386   .     S
C719   C728    1.411   .     A
C719   C109    1.410   1_565 S
C720   C742    1.412   .     A
C720   O928    1.383   .     S
C720   C1045   1.398   1_455 S
C721   O929    1.383   .     S
C721   C730    1.410   .     A
C721   C743    1.416   .     A
C722   C1021   1.411   .     S
C723   C1026   1.407   .     S
C723   C1019   1.469   .     S
C724   C1      1.481   1_565 S
C724   C79     1.410   1_565 S
C725   O1190   1.276   .     A
C725   O1186   1.275   .     A
C725   C730    1.482   .     S
C726   C76     1.400   1_565 S
C727   C736    1.469   .     S
C728   C747    1.480   .     S
C729   C1036   1.398   .     S
C730   C1033   1.410   .     S
C731   C749    1.418   .     A
C731   C757    1.417   .     A
C732   C759    1.417   .     A
C732   C1066   1.420   1_455 S
C733   C760    1.413   .     A
C734   C752    1.424   .     A
C734   C761    1.419   .     A
C735   C762    1.416   .     A
C735   C1065   1.417   1_455 S
C736   O871    1.272   .     S
C736   O875    1.270   .     S
C737   C763    1.416   .     A
C737   C750    1.419   .     A
C738   C764    1.416   .     A
C738   C751    1.419   .     A
C739   C765    1.420   .     A
C740   C753    1.421   .     A
C740   C766    1.419   .     A
C741   C767    1.415   .     A
C742   C768    1.418   .     A
C742   C1071   1.423   1_455 S
C743   C756    1.418   .     A
C745   C754    1.417   .     A
C746   C755    1.424   .     A
C747   O240    1.275   1_565 S
C747   O245    1.275   1_565 S
C748   C1072   1.417   1_455 S
C749   C750    1.409   .     A
C749   C1051   1.417   .     S
C750   C1048   1.420   .     S
C751   C752    1.413   .     A
C751   C101    1.417   1_565 S
C752   C107    1.426   1_565 S
C753   C112    1.421   1_565 S
C753   C754    1.409   1_556 S
C754   C109    1.417   1_565 S
C754   C753    1.409   1_554 S
C755   C1058   1.423   .     S
C755   C756    1.412   1_556 S
C756   C1064   1.417   .     S
C756   C755    1.412   1_554 S
C757   C763    1.401   .     A
C757   Cl769   1.776   .     S
C758   O878    1.277   .     A
C758   O906    1.276   .     A
C759   Cl777   1.776   .     S
C759   C762    1.401   .     A
C760   Cl778   1.777   .     S
C760   C765    1.399   .     A
C761   Cl779   1.778   .     S
C761   C764    1.400   .     A
C762   Cl780   1.776   .     S
C763   Cl781   1.776   .     S
C764   Cl782   1.778   .     S
C765   Cl783   1.777   .     S
C766   Cl784   1.777   .     S
C766   C637    1.401   1_556 S
C767   Cl770   1.776   .     S
C767   C636    1.400   1_554 S
C768   Cl771   1.776   .     S
C768   C639    1.400   1_556 S
H841   C981    1.110   1_455 S
H861   C990    1.110   1_455 S
O865   Zn936   1.936   .     S
O865   Zn933   1.936   .     S
O865   Zn944   1.936   .     S
O866   Zn935   1.956   .     S
O867   Zn938   1.956   .     S
O868   Zn937   1.956   .     S
O869   C1030   1.267   1_455 A
O869   Zn947   1.956   .     S
O870   Zn946   1.956   .     S
O870   C1041   1.275   1_455 A
O871   Zn941   1.956   .     S
O872   Zn933   1.956   .     S
O873   Zn943   1.956   .     S
O873   C1030   1.272   1_455 A
O874   C1041   1.276   1_455 A
O874   Zn942   1.956   .     S
O875   Zn945   1.956   .     S
O876   Zn945   1.936   .     S
O876   Zn941   1.936   .     S
O876   Zn939   1.936   .     S
O877   Zn944   1.956   .     S
O878   Zn936   1.913   .     S
O879   Zn935   1.913   .     S
O880   Zn938   1.912   .     S
O881   Zn937   1.912   .     S
O882   Zn940   1.913   .     S
O883   Zn939   1.913   .     S
O884   Zn934   1.912   .     S
O885   Zn948   1.912   .     S
O886   Zn935   1.912   .     S
O887   Zn946   1.936   .     S
O887   Zn1254  1.936   1_455 S
O887   Zn934   1.936   .     S
O887   Zn942   1.936   .     S
O888   Zn936   1.912   .     S
O889   Zn948   1.913   .     S
O890   Zn934   1.913   .     S
O891   Zn939   1.912   .     S
O892   Zn940   1.912   .     S
O893   Zn937   1.913   .     S
O894   Zn938   1.913   .     S
O895   Zn1259  1.913   .     S
O896   Zn942   1.913   .     S
O897   Zn313   1.912   1_565 S
O898   Zn1264  1.936   1_455 S
O898   Zn943   1.936   .     S
O898   Zn937   1.936   .     S
O898   Zn947   1.936   .     S
O899   Zn944   1.912   .     S
O900   Zn947   1.913   .     S
O901   Zn1262  1.913   .     S
O902   Zn941   1.912   .     S
O903   Zn301   1.912   1_565 S
O904   Zn1258  1.912   .     S
O905   Zn943   1.912   .     S
O906   Zn933   1.913   .     S
O907   Zn309   1.913   1_565 S
O908   Zn946   1.912   .     S
O909   Zn940   1.956   .     S
O909   C1      1.276   1_565 S
O910   Zn1263  1.912   .     S
O911   Zn312   1.913   1_565 S
O912   Zn945   1.913   .     S
O920   Zn939   1.956   .     S
O925   C980    1.420   1_455 S
O929   C989    1.415   .     S
O930   Zn934   1.956   .     S
O930   C1008   1.276   1_455 S
O931   Zn948   1.956   .     S
O931   C1019   1.271   .     S
O932   Zn936   1.956   .     S
Zn935  O244    1.936   1_565 S
Zn938  O1203   1.936   .     S
Zn940  O233    1.936   1_565 S
Zn942  O1220   1.912   1_455 S
Zn943  O1211   1.913   1_455 S
Zn946  O1217   1.913   1_455 S
Zn947  O1226   1.912   1_455 S
Zn948  O1214   1.936   .     S
C949   O1248   1.275   .     A
C950   O1195   1.276   .     A
C950   C1016   1.421   .     S
C950   O1223   1.277   .     A
C951   C1059   1.417   .     A
C951   Cl1088  1.777   .     S
C951   C954    1.402   1_554 S
C952   Cl1089  1.776   .     S
C952   C1060   1.417   .     A
C952   C1083   1.400   1_556 S
C953   C1061   1.415   .     A
C953   Cl1090  1.777   .     S
C953   C1082   1.401   1_554 S
C954   C1062   1.419   .     A
C954   Cl1091  1.776   .     S
C954   C951    1.402   1_556 S
C955   C1064   1.414   .     A
C955   Cl1092  1.776   .     S
C955   C1084   1.400   1_554 S
C956   H1112   1.115   .     S
C956   H1101   1.111   .     S
C956   C957    1.527   .     S
C956   O1229   1.419   .     S
C957   H1145   1.110   .     S
C957   H1134   1.110   .     S
C957   H1123   1.110   .     S
C958   O1230   1.419   .     S
C958   H1156   1.111   .     S
C958   H1167   1.115   .     S
C958   C959    1.527   .     S
C959   H1102   1.110   .     S
C959   H1180   1.110   .     S
C959   H1178   1.110   .     S
C960   H1104   1.115   .     S
C960   C962    1.521   .     S
C960   O1231   1.414   .     S
C960   H1103   1.114   .     S
C961   O1220   1.276   .     A
C961   O1196   1.277   .     A
C961   C1015   1.420   .     S
C962   H1106   1.109   .     S
C962   H1105   1.111   .     S
C962   H1107   1.111   .     S
C963   H1109   1.115   .     S
C963   H1108   1.114   .     S
C963   O1232   1.414   .     S
C963   C964    1.521   .     S
C964   H1110   1.110   .     S
C964   H1113   1.110   .     S
C964   H1111   1.110   .     S
C965   H1114   1.115   .     S
C965   C966    1.520   .     S
C965   H1115   1.114   .     S
C965   O1233   1.413   .     S
C966   H1118   1.110   .     S
C966   H1117   1.111   .     S
C966   H1116   1.111   .     S
C967   C968    1.527   .     S
C967   H1120   1.115   .     S
C967   O1234   1.419   .     S
C967   H1119   1.111   .     S
C968   H1122   1.110   .     S
C968   H1124   1.110   .     S
C968   H1121   1.110   .     S
C969   H1125   1.117   .     S
C969   C970    1.524   .     S
C969   H1126   1.111   .     S
C969   O1235   1.420   .     S
C970   H1129   1.110   .     S
C970   H1127   1.110   .     S
C970   H1128   1.109   .     S
C971   H1130   1.114   .     S
C971   H1131   1.115   .     S
C971   O1237   1.413   .     S
C971   C973    1.521   .     S
C972   O1197   1.277   .     A
C972   C1014   1.420   .     S
C972   O1221   1.276   .     A
C973   H1133   1.110   .     S
C973   H1135   1.110   .     S
C973   H1132   1.110   .     S
C974   O1238   1.419   .     S
C974   H1136   1.115   .     S
C974   H1137   1.111   .     S
C974   C975    1.526   .     S
C975   H1140   1.110   .     S
C975   H1138   1.109   .     S
C975   H1139   1.110   .     S
C976   H1142   1.115   .     S
C976   C977    1.521   .     S
C976   O1239   1.414   .     S
C976   H1141   1.114   .     S
C977   H1143   1.111   .     S
C977   H1146   1.111   .     S
C977   H1144   1.111   .     S
C978   H1148   1.114   .     S
C978   C979    1.521   .     S
C978   O1240   1.413   .     S
C978   H1147   1.115   .     S
C979   H1150   1.110   .     S
C979   H1151   1.111   .     S
C979   H1149   1.110   .     S
C980   H1152   1.111   .     S
C980   C981    1.525   .     S
C980   H1153   1.117   .     S
C980   O925    1.420   1_655 S
C981   H1155   1.110   .     S
C981   H1154   1.109   .     S
C981   H841    1.110   1_655 S
C982   O1242   1.412   .     S
C982   C984    1.519   .     S
C982   H1159   1.114   .     S
C982   H1158   1.114   .     S
C983   O1198   1.276   .     A
C983   C1013   1.421   .     S
C983   O1227   1.277   .     A
C984   H1162   1.111   .     S
C984   H1161   1.109   .     S
C984   H1160   1.108   .     S
C985   C986    1.526   .     S
C985   H1164   1.111   .     S
C985   O1243   1.419   .     S
C985   H1163   1.116   .     S
C986   H1166   1.110   .     S
C986   H1165   1.110   .     S
C986   H1168   1.110   .     S
C987   H1170   1.116   .     S
C987   C988    1.517   .     S
C987   H1169   1.113   .     S
C987   O1244   1.415   .     S
C988   H1171   1.110   .     S
C988   H1172   1.110   .     S
C988   H1173   1.111   .     S
C989   H1174   1.115   .     S
C989   H1175   1.114   .     S
C990   H1179   1.111   .     S
C990   H1176   1.111   .     S
C990   C673    1.521   1_655 S
C990   H861    1.110   1_655 S
C991   O1199   1.276   .     A
C991   C1012   1.421   .     S
C991   O1228   1.276   .     A
C992   O1224   1.277   .     A
C992   C1020   1.420   .     S
C992   O1200   1.277   .     A
C993   C1018   1.420   .     S
C993   O1226   1.277   .     A
C993   O1201   1.277   .     A
C994   O1213   1.276   .     A
C994   O1202   1.276   .     A
C994   C1009   1.420   .     S
C995   O1215   1.276   .     A
C995   O1204   1.276   .     A
C995   C1007   1.420   .     S
C996   O1211   1.276   .     A
C996   O1205   1.277   .     A
C996   C1006   1.421   .     S
C997   O1182   1.269   .     A
C997   C1042   1.464   .     S
C997   O604    1.270   1_565 S
C998   C1005   1.421   .     S
C998   O1206   1.277   .     A
C998   O1212   1.276   .     A
C999   O1218   1.277   .     A
C999   O1207   1.277   .     A
C999   C1004   1.420   .     S
C1000  O1208   1.276   .     A
C1000  C1003   1.420   .     S
C1000  O1219   1.277   .     A
C1001  O1209   1.276   .     A
C1001  C1011   1.421   .     S
C1001  O1216   1.276   .     A
C1002  O1217   1.277   .     A
C1002  C1010   1.421   .     S
C1002  O1210   1.276   .     A
C1003  C1020   1.197   .     T
C1004  C1018   1.197   .     T
C1005  C1017   1.197   .     T
C1006  C1016   1.197   .     T
C1007  C1015   1.197   .     T
C1008  C1038   1.481   .     S
C1008  O1183   1.274   .     A
C1008  O930    1.276   1_655 S
C1009  C1014   1.197   .     T
C1010  C1013   1.197   .     T
C1011  C1012   1.197   .     T
C1017  C1074   1.421   .     S
C1019  O1184   1.272   .     A
C1021  C1051   1.410   .     A
C1021  O1229   1.386   .     S
C1022  C1053   1.410   .     A
C1022  C1039   1.407   .     A
C1022  O1230   1.387   .     S
C1023  C1054   1.415   .     A
C1023  O1231   1.383   .     S
C1023  C1040   1.410   .     A
C1024  C1055   1.413   .     A
C1024  O1232   1.384   .     S
C1025  O1233   1.383   .     S
C1025  C1038   1.410   .     A
C1025  C1047   1.412   .     A
C1026  O1234   1.387   .     S
C1026  C1048   1.411   .     A
C1027  O1235   1.386   .     S
C1027  C1049   1.410   .     A
C1028  C1050   1.413   .     A
C1028  O1237   1.384   .     S
C1028  C1042   1.400   .     A
C1029  C1043   1.405   .     A
C1029  C1060   1.410   .     A
C1029  O1238   1.387   .     S
C1030  O869    1.267   1_655 A
C1030  O873    1.272   1_655 A
C1030  C1045   1.463   .     S
C1031  C1044   1.410   .     A
C1031  C1061   1.412   .     A
C1031  O607    1.383   1_565 S
C1032  C1062   1.416   .     A
C1032  O1240   1.383   .     S
C1032  C1045   1.401   .     A
C1033  C1064   1.411   .     A
C1033  O1241   1.386   .     S
C1034  C1056   1.411   .     A
C1034  O1242   1.382   .     S
C1034  C411    1.406   1_565 S
C1035  O1243   1.386   .     S
C1035  C1044   1.411   .     A
C1035  C425    1.410   1_565 S
C1036  C1058   1.412   .     A
C1036  O1244   1.383   .     S
C1037  O1245   1.383   .     S
C1037  C1046   1.410   .     A
C1037  C1059   1.416   .     A
C1038  C705    1.411   1_655 S
C1039  C710    1.407   1_655 S
C1039  C703    1.469   1_655 S
C1040  C317    1.481   1_565 S
C1040  C395    1.410   1_565 S
C1041  O874    1.276   1_655 A
C1041  O870    1.275   1_655 A
C1041  C1046   1.482   .     S
C1042  C392    1.400   1_565 S
C1043  C1052   1.469   .     S
C1044  C1063   1.480   .     S
C1045  C720    1.398   1_655 S
C1046  C717    1.410   1_655 S
C1047  C1065   1.418   .     A
C1047  C1073   1.417   .     A
C1048  C1075   1.417   .     A
C1049  C1076   1.413   .     A
C1050  C1068   1.424   .     A
C1050  C1077   1.419   .     A
C1051  C1078   1.416   .     A
C1052  O1187   1.272   .     S
C1052  O1191   1.270   .     S
C1053  C1079   1.416   .     A
C1053  C1066   1.419   .     A
C1054  C1080   1.416   .     A
C1054  C1067   1.419   .     A
C1055  C1081   1.420   .     A
C1056  C1069   1.421   .     A
C1056  C1082   1.419   .     A
C1057  C1083   1.415   .     A
C1058  C1084   1.418   .     A
C1059  C1072   1.418   .     A
C1061  C1070   1.417   .     A
C1062  C1071   1.424   .     A
C1063  O556    1.275   1_565 S
C1063  O561    1.275   1_565 S
C1065  C1066   1.409   .     A
C1065  C735    1.417   1_655 S
C1066  C732    1.420   1_655 S
C1067  C1068   1.413   .     A
C1067  C417    1.417   1_565 S
C1068  C423    1.426   1_565 S
C1069  C428    1.421   1_565 S
C1069  C1070   1.409   1_556 S
C1070  C425    1.417   1_565 S
C1070  C1069   1.409   1_554 S
C1071  C742    1.423   1_655 S
C1071  C1072   1.412   1_556 S
C1072  C748    1.417   1_655 S
C1072  C1071   1.412   1_554 S
C1073  C1079   1.401   .     A
C1073  Cl1085  1.776   .     S
C1074  O1194   1.277   .     A
C1074  O1222   1.276   .     A
C1075  Cl1093  1.776   .     S
C1075  C1078   1.401   .     A
C1076  Cl1094  1.777   .     S
C1076  C1081   1.399   .     A
C1077  Cl1095  1.778   .     S
C1077  C1080   1.400   .     A
C1078  Cl1096  1.776   .     S
C1079  Cl1097  1.776   .     S
C1080  Cl1098  1.778   .     S
C1081  Cl1099  1.777   .     S
C1082  Cl1100  1.777   .     S
C1082  C953    1.401   1_556 S
C1083  Cl1086  1.776   .     S
C1083  C952    1.400   1_554 S
C1084  Cl1087  1.776   .     S
C1084  C955    1.400   1_556 S
O1181  Zn1252  1.936   .     S
O1181  Zn1249  1.936   .     S
O1181  Zn1260  1.936   .     S
O1182  Zn1251  1.956   .     S
O1183  Zn1254  1.956   .     S
O1184  Zn1253  1.956   .     S
O1185  Zn1263  1.956   .     S
O1186  Zn1262  1.956   .     S
O1187  Zn1257  1.956   .     S
O1188  Zn1249  1.956   .     S
O1189  Zn1259  1.956   .     S
O1190  Zn1258  1.956   .     S
O1191  Zn1261  1.956   .     S
O1192  Zn1261  1.936   .     S
O1192  Zn1257  1.936   .     S
O1192  Zn1255  1.936   .     S
O1193  Zn1260  1.956   .     S
O1194  Zn1252  1.913   .     S
O1195  Zn1251  1.913   .     S
O1196  Zn1254  1.912   .     S
O1197  Zn1253  1.912   .     S
O1198  Zn1256  1.913   .     S
O1199  Zn1255  1.913   .     S
O1200  Zn1250  1.912   .     S
O1201  Zn1264  1.912   .     S
O1202  Zn1251  1.912   .     S
O1203  Zn1262  1.936   .     S
O1203  Zn1250  1.936   .     S
O1203  Zn1258  1.936   .     S
O1204  Zn1252  1.912   .     S
O1205  Zn1264  1.913   .     S
O1206  Zn1250  1.913   .     S
O1207  Zn1255  1.912   .     S
O1208  Zn1256  1.912   .     S
O1209  Zn1253  1.913   .     S
O1210  Zn1254  1.913   .     S
O1211  Zn943   1.913   1_655 S
O1212  Zn1258  1.913   .     S
O1213  Zn629   1.912   1_565 S
O1214  Zn1259  1.936   .     S
O1214  Zn1253  1.936   .     S
O1214  Zn1263  1.936   .     S
O1215  Zn1260  1.912   .     S
O1216  Zn1263  1.913   .     S
O1217  Zn946   1.913   1_655 S
O1218  Zn1257  1.912   .     S
O1219  Zn617   1.912   1_565 S
O1220  Zn942   1.912   1_655 S
O1221  Zn1259  1.912   .     S
O1222  Zn1249  1.913   .     S
O1223  Zn625   1.913   1_565 S
O1224  Zn1262  1.912   .     S
O1225  Zn1256  1.956   .     S
O1225  C317    1.276   1_565 S
O1226  Zn947   1.912   1_655 S
O1227  Zn628   1.913   1_565 S
O1228  Zn1261  1.913   .     S
O1236  Zn1255  1.956   .     S
O1245  C673    1.415   1_655 S
O1246  Zn1250  1.956   .     S
O1247  Zn1264  1.956   .     S
O1247  C703    1.271   1_655 S
O1248  Zn1252  1.956   .     S
Zn1251 O560    1.936   1_565 S
Zn1254 O887    1.936   1_655 S
Zn1256 O549    1.936   1_565 S
Zn1264 O898    1.936   1_655 S
