data_str_m2_o10_o17_pcu_sym.172
_audit_creation_date              2020-01-03
_audit_creation_method            'Materials Studio'
_symmetry_space_group_name_H-M    'P1'
_symmetry_Int_Tables_number       1
_symmetry_cell_setting            triclinic
loop_
_symmetry_equiv_pos_as_xyz
  x,y,z
_cell_length_a                    30.0879
_cell_length_b                    26.0372
_cell_length_c                    22.4329
_cell_angle_alpha                 102.8421
_cell_angle_beta                  94.5121
_cell_angle_gamma                 92.0119
loop_
_atom_site_label
_atom_site_type_symbol
_atom_site_fract_x
_atom_site_fract_y
_atom_site_fract_z
_atom_site_U_iso_or_equiv
_atom_site_adp_type
_atom_site_occupancy
C1     C     0.24847   0.06663   0.15116   0.00000  Uiso   1.00
C2     C     0.25153   0.26670   0.18218   0.00000  Uiso   1.00
C3     C     0.01582   0.07106   0.11983   0.00000  Uiso   1.00
C4     C     0.48418   0.26227   0.21350   0.00000  Uiso   1.00
C5     C     0.24767   0.01065   0.14245   0.00000  Uiso   1.00
C6     C     0.25234   0.32268   0.19089   0.00000  Uiso   1.00
C7     C     0.16470   0.16592   0.16723   0.00000  Uiso   1.00
C8     C     0.33530   0.16741   0.16610   0.00000  Uiso   1.00
C9     C     0.40880   0.21570   0.18859   0.00000  Uiso   1.00
C10    C     0.09120   0.11763   0.14475   0.00000  Uiso   1.00
C11    C     0.38344   0.16834   0.16489   0.00000  Uiso   1.00
C12    C     0.11656   0.16500   0.16845   0.00000  Uiso   1.00
C13    C     0.40321   0.12085   0.14405   0.00000  Uiso   1.00
C14    C     0.09679   0.21248   0.18928   0.00000  Uiso   1.00
C15    C     0.44951   0.12085   0.13914   0.00000  Uiso   1.00
C16    C     0.05049   0.21248   0.19418   0.00000  Uiso   1.00
C17    C     0.47639   0.16757   0.16564   0.00000  Uiso   1.00
C18    C     0.02361   0.16577   0.16768   0.00000  Uiso   1.00
C19    C     0.45609   0.21617   0.18890   0.00000  Uiso   1.00
C20    C     0.04391   0.11717   0.14443   0.00000  Uiso   1.00
C21    C     0.46983   0.07502   0.11039   0.00000  Uiso   1.00
C22    C     0.03017   0.25831   0.22293   0.00000  Uiso   1.00
Cu23   Cu    0.25501   0.17246   0.22813   0.00000  Uiso   1.00
Cu24   Cu    0.24500   0.16087   0.10521   0.00000  Uiso   1.00
H25    H     0.24331   0.32020   0.09573   0.00000  Uiso   1.00
H26    H     0.25669   0.01314   0.23760   0.00000  Uiso   1.00
H27    H     0.21518   0.12594   0.31621   0.00000  Uiso   1.00
H28    H     0.28482   0.20739   0.01713   0.00000  Uiso   1.00
N29    N     0.23745   0.15214   0.01284   0.00000  Uiso   1.00
N30    N     0.26256   0.18119   0.32049   0.00000  Uiso   1.00
O31    O     0.25326   0.09538   0.20659   0.00000  Uiso   1.00
O32    O     0.24675   0.23796   0.12674   0.00000  Uiso   1.00
O33    O     0.24480   0.08559   0.10279   0.00000  Uiso   1.00
O34    O     0.25520   0.24774   0.23055   0.00000  Uiso   1.00
O35    O     0.18936   0.17155   0.21857   0.00000  Uiso   1.00
O36    O     0.31065   0.16179   0.11476   0.00000  Uiso   1.00
O37    O     0.18090   0.16176   0.11477   0.00000  Uiso   1.00
O38    O     0.31910   0.17157   0.21857   0.00000  Uiso   1.00
Br39   Br    0.37564   0.27424   0.22949   0.00000  Uiso   1.00
Br40   Br    0.12436   0.05909   0.10385   0.00000  Uiso   1.00
Br41   Br    0.36721   0.05673   0.14155   0.00000  Uiso   1.00
Br42   Br    0.13279   0.27661   0.19178   0.00000  Uiso   1.00
Br43   Br    0.43805   0.02091   0.04637   0.00000  Uiso   1.00
Br44   Br    0.06195   0.31243   0.28695   0.00000  Uiso   1.00
Br45   Br    0.03456   0.33265   0.10789   0.00000  Uiso   1.00
Br46   Br    0.46544   0.00069   0.22542   0.00000  Uiso   1.00
C47    C     0.74847   0.06663   0.15116   0.00000  Uiso   1.00
C48    C     0.75153   0.26670   0.18218   0.00000  Uiso   1.00
C49    C     0.51582   0.07106   0.11983   0.00000  Uiso   1.00
C50    C     0.98418   0.26227   0.21350   0.00000  Uiso   1.00
C51    C     0.74767   0.01065   0.14245   0.00000  Uiso   1.00
C52    C     0.75234   0.32268   0.19089   0.00000  Uiso   1.00
C53    C     0.66470   0.16592   0.16723   0.00000  Uiso   1.00
C54    C     0.83530   0.16741   0.16610   0.00000  Uiso   1.00
C55    C     0.90880   0.21570   0.18859   0.00000  Uiso   1.00
C56    C     0.59120   0.11763   0.14475   0.00000  Uiso   1.00
C57    C     0.88344   0.16834   0.16489   0.00000  Uiso   1.00
C58    C     0.61656   0.16500   0.16845   0.00000  Uiso   1.00
C59    C     0.90321   0.12085   0.14405   0.00000  Uiso   1.00
C60    C     0.59679   0.21248   0.18928   0.00000  Uiso   1.00
C61    C     0.94951   0.12085   0.13914   0.00000  Uiso   1.00
C62    C     0.55049   0.21248   0.19418   0.00000  Uiso   1.00
C63    C     0.97639   0.16757   0.16564   0.00000  Uiso   1.00
C64    C     0.52361   0.16577   0.16768   0.00000  Uiso   1.00
C65    C     0.95609   0.21617   0.18890   0.00000  Uiso   1.00
C66    C     0.54391   0.11717   0.14443   0.00000  Uiso   1.00
C67    C     0.96983   0.07502   0.11039   0.00000  Uiso   1.00
C68    C     0.53017   0.25831   0.22293   0.00000  Uiso   1.00
Cu69   Cu    0.75501   0.17246   0.22813   0.00000  Uiso   1.00
Cu70   Cu    0.74500   0.16087   0.10521   0.00000  Uiso   1.00
H71    H     0.74331   0.32020   0.09573   0.00000  Uiso   1.00
H72    H     0.75669   0.01314   0.23760   0.00000  Uiso   1.00
H73    H     0.71518   0.12594   0.31621   0.00000  Uiso   1.00
H74    H     0.78482   0.20739   0.01713   0.00000  Uiso   1.00
N75    N     0.73745   0.15214   0.01284   0.00000  Uiso   1.00
N76    N     0.76256   0.18119   0.32049   0.00000  Uiso   1.00
O77    O     0.75326   0.09538   0.20659   0.00000  Uiso   1.00
O78    O     0.74675   0.23796   0.12674   0.00000  Uiso   1.00
O79    O     0.74480   0.08559   0.10279   0.00000  Uiso   1.00
O80    O     0.75520   0.24774   0.23055   0.00000  Uiso   1.00
O81    O     0.68936   0.17155   0.21857   0.00000  Uiso   1.00
O82    O     0.81065   0.16179   0.11476   0.00000  Uiso   1.00
O83    O     0.68090   0.16176   0.11477   0.00000  Uiso   1.00
O84    O     0.81910   0.17157   0.21857   0.00000  Uiso   1.00
Br85   Br    0.87564   0.27424   0.22949   0.00000  Uiso   1.00
Br86   Br    0.62436   0.05909   0.10385   0.00000  Uiso   1.00
Br87   Br    0.86721   0.05673   0.14155   0.00000  Uiso   1.00
Br88   Br    0.63279   0.27661   0.19178   0.00000  Uiso   1.00
Br89   Br    0.93805   0.02091   0.04637   0.00000  Uiso   1.00
Br90   Br    0.56195   0.31243   0.28695   0.00000  Uiso   1.00
Br91   Br    0.53456   0.33265   0.10789   0.00000  Uiso   1.00
Br92   Br    0.96544   0.00069   0.22542   0.00000  Uiso   1.00
C93    C     0.24847   0.39996   0.15116   0.00000  Uiso   1.00
C94    C     0.25153   0.60004   0.18218   0.00000  Uiso   1.00
C95    C     0.01582   0.40440   0.11983   0.00000  Uiso   1.00
C96    C     0.48418   0.59561   0.21350   0.00000  Uiso   1.00
C97    C     0.24767   0.34399   0.14245   0.00000  Uiso   1.00
C98    C     0.25234   0.65601   0.19089   0.00000  Uiso   1.00
C99    C     0.16470   0.49925   0.16723   0.00000  Uiso   1.00
C100   C     0.33530   0.50075   0.16610   0.00000  Uiso   1.00
C101   C     0.40880   0.54903   0.18859   0.00000  Uiso   1.00
C102   C     0.09120   0.45097   0.14475   0.00000  Uiso   1.00
C103   C     0.38344   0.50167   0.16489   0.00000  Uiso   1.00
C104   C     0.11656   0.49833   0.16845   0.00000  Uiso   1.00
C105   C     0.40321   0.45419   0.14405   0.00000  Uiso   1.00
C106   C     0.09679   0.54581   0.18928   0.00000  Uiso   1.00
C107   C     0.44951   0.45419   0.13914   0.00000  Uiso   1.00
C108   C     0.05049   0.54582   0.19418   0.00000  Uiso   1.00
C109   C     0.47639   0.50090   0.16564   0.00000  Uiso   1.00
C110   C     0.02361   0.49910   0.16768   0.00000  Uiso   1.00
C111   C     0.45609   0.54950   0.18890   0.00000  Uiso   1.00
C112   C     0.04391   0.45050   0.14443   0.00000  Uiso   1.00
C113   C     0.46983   0.40836   0.11039   0.00000  Uiso   1.00
C114   C     0.03017   0.59165   0.22293   0.00000  Uiso   1.00
Cu115  Cu    0.25501   0.50579   0.22813   0.00000  Uiso   1.00
Cu116  Cu    0.24500   0.49421   0.10521   0.00000  Uiso   1.00
H117   H     0.24331   0.65353   0.09573   0.00000  Uiso   1.00
H118   H     0.25669   0.34647   0.23760   0.00000  Uiso   1.00
H119   H     0.21518   0.45927   0.31621   0.00000  Uiso   1.00
H120   H     0.28482   0.54073   0.01713   0.00000  Uiso   1.00
N121   N     0.23745   0.48547   0.01284   0.00000  Uiso   1.00
N122   N     0.26256   0.51453   0.32049   0.00000  Uiso   1.00
O123   O     0.25326   0.42871   0.20659   0.00000  Uiso   1.00
O124   O     0.24675   0.57129   0.12674   0.00000  Uiso   1.00
O125   O     0.24480   0.41892   0.10279   0.00000  Uiso   1.00
O126   O     0.25520   0.58108   0.23055   0.00000  Uiso   1.00
O127   O     0.18936   0.50488   0.21857   0.00000  Uiso   1.00
O128   O     0.31065   0.49512   0.11476   0.00000  Uiso   1.00
O129   O     0.18090   0.49510   0.11477   0.00000  Uiso   1.00
O130   O     0.31910   0.50490   0.21857   0.00000  Uiso   1.00
Br131  Br    0.37564   0.60757   0.22949   0.00000  Uiso   1.00
Br132  Br    0.12436   0.39242   0.10385   0.00000  Uiso   1.00
Br133  Br    0.36721   0.39006   0.14155   0.00000  Uiso   1.00
Br134  Br    0.13279   0.60994   0.19178   0.00000  Uiso   1.00
Br135  Br    0.43805   0.35425   0.04637   0.00000  Uiso   1.00
Br136  Br    0.06195   0.64576   0.28695   0.00000  Uiso   1.00
Br137  Br    0.03456   0.66598   0.10789   0.00000  Uiso   1.00
Br138  Br    0.46544   0.33402   0.22542   0.00000  Uiso   1.00
C139   C     0.74847   0.39996   0.15116   0.00000  Uiso   1.00
C140   C     0.75153   0.60004   0.18218   0.00000  Uiso   1.00
C141   C     0.51582   0.40440   0.11983   0.00000  Uiso   1.00
C142   C     0.98418   0.59561   0.21350   0.00000  Uiso   1.00
C143   C     0.74767   0.34399   0.14245   0.00000  Uiso   1.00
C144   C     0.75234   0.65601   0.19089   0.00000  Uiso   1.00
C145   C     0.66470   0.49925   0.16723   0.00000  Uiso   1.00
C146   C     0.83530   0.50075   0.16610   0.00000  Uiso   1.00
C147   C     0.90880   0.54903   0.18859   0.00000  Uiso   1.00
C148   C     0.59120   0.45097   0.14475   0.00000  Uiso   1.00
C149   C     0.88344   0.50167   0.16489   0.00000  Uiso   1.00
C150   C     0.61656   0.49833   0.16845   0.00000  Uiso   1.00
C151   C     0.90321   0.45419   0.14405   0.00000  Uiso   1.00
C152   C     0.59679   0.54581   0.18928   0.00000  Uiso   1.00
C153   C     0.94951   0.45419   0.13914   0.00000  Uiso   1.00
C154   C     0.55049   0.54582   0.19418   0.00000  Uiso   1.00
C155   C     0.97639   0.50090   0.16564   0.00000  Uiso   1.00
C156   C     0.52361   0.49910   0.16768   0.00000  Uiso   1.00
C157   C     0.95609   0.54950   0.18890   0.00000  Uiso   1.00
C158   C     0.54391   0.45050   0.14443   0.00000  Uiso   1.00
C159   C     0.96983   0.40836   0.11039   0.00000  Uiso   1.00
C160   C     0.53017   0.59165   0.22293   0.00000  Uiso   1.00
Cu161  Cu    0.75501   0.50579   0.22813   0.00000  Uiso   1.00
Cu162  Cu    0.74500   0.49421   0.10521   0.00000  Uiso   1.00
H163   H     0.74331   0.65353   0.09573   0.00000  Uiso   1.00
H164   H     0.75669   0.34647   0.23760   0.00000  Uiso   1.00
H165   H     0.71518   0.45927   0.31621   0.00000  Uiso   1.00
H166   H     0.78482   0.54073   0.01713   0.00000  Uiso   1.00
N167   N     0.73745   0.48547   0.01284   0.00000  Uiso   1.00
N168   N     0.76256   0.51453   0.32049   0.00000  Uiso   1.00
O169   O     0.75326   0.42871   0.20659   0.00000  Uiso   1.00
O170   O     0.74675   0.57129   0.12674   0.00000  Uiso   1.00
O171   O     0.74480   0.41892   0.10279   0.00000  Uiso   1.00
O172   O     0.75520   0.58108   0.23055   0.00000  Uiso   1.00
O173   O     0.68936   0.50488   0.21857   0.00000  Uiso   1.00
O174   O     0.81065   0.49512   0.11476   0.00000  Uiso   1.00
O175   O     0.68090   0.49510   0.11477   0.00000  Uiso   1.00
O176   O     0.81910   0.50490   0.21857   0.00000  Uiso   1.00
Br177  Br    0.87564   0.60757   0.22949   0.00000  Uiso   1.00
Br178  Br    0.62436   0.39242   0.10385   0.00000  Uiso   1.00
Br179  Br    0.86721   0.39006   0.14155   0.00000  Uiso   1.00
Br180  Br    0.63279   0.60994   0.19178   0.00000  Uiso   1.00
Br181  Br    0.93805   0.35425   0.04637   0.00000  Uiso   1.00
Br182  Br    0.56195   0.64576   0.28695   0.00000  Uiso   1.00
Br183  Br    0.53456   0.66598   0.10789   0.00000  Uiso   1.00
Br184  Br    0.96544   0.33402   0.22542   0.00000  Uiso   1.00
C185   C     0.24847   0.73330   0.15116   0.00000  Uiso   1.00
C186   C     0.25153   0.93337   0.18218   0.00000  Uiso   1.00
C187   C     0.01582   0.73773   0.11983   0.00000  Uiso   1.00
C188   C     0.48418   0.92894   0.21350   0.00000  Uiso   1.00
C189   C     0.24767   0.67732   0.14245   0.00000  Uiso   1.00
C190   C     0.25234   0.98935   0.19089   0.00000  Uiso   1.00
C191   C     0.16470   0.83259   0.16723   0.00000  Uiso   1.00
C192   C     0.33530   0.83408   0.16610   0.00000  Uiso   1.00
C193   C     0.40880   0.88237   0.18859   0.00000  Uiso   1.00
C194   C     0.09120   0.78430   0.14475   0.00000  Uiso   1.00
C195   C     0.38344   0.83500   0.16489   0.00000  Uiso   1.00
C196   C     0.11656   0.83166   0.16845   0.00000  Uiso   1.00
C197   C     0.40321   0.78752   0.14405   0.00000  Uiso   1.00
C198   C     0.09679   0.87915   0.18928   0.00000  Uiso   1.00
C199   C     0.44951   0.78752   0.13914   0.00000  Uiso   1.00
C200   C     0.05049   0.87915   0.19418   0.00000  Uiso   1.00
C201   C     0.47639   0.83423   0.16564   0.00000  Uiso   1.00
C202   C     0.02361   0.83244   0.16768   0.00000  Uiso   1.00
C203   C     0.45609   0.88283   0.18890   0.00000  Uiso   1.00
C204   C     0.04391   0.78384   0.14443   0.00000  Uiso   1.00
C205   C     0.46983   0.74169   0.11039   0.00000  Uiso   1.00
C206   C     0.03017   0.92498   0.22293   0.00000  Uiso   1.00
Cu207  Cu    0.25501   0.83913   0.22813   0.00000  Uiso   1.00
Cu208  Cu    0.24500   0.82754   0.10521   0.00000  Uiso   1.00
H209   H     0.24331   0.98686   0.09573   0.00000  Uiso   1.00
H210   H     0.25669   0.67980   0.23760   0.00000  Uiso   1.00
H211   H     0.21518   0.79261   0.31621   0.00000  Uiso   1.00
H212   H     0.28482   0.87406   0.01713   0.00000  Uiso   1.00
N213   N     0.23745   0.81881   0.01284   0.00000  Uiso   1.00
N214   N     0.26256   0.84786   0.32049   0.00000  Uiso   1.00
O215   O     0.25326   0.76204   0.20659   0.00000  Uiso   1.00
O216   O     0.24675   0.90462   0.12674   0.00000  Uiso   1.00
O217   O     0.24480   0.75226   0.10279   0.00000  Uiso   1.00
O218   O     0.25520   0.91441   0.23055   0.00000  Uiso   1.00
O219   O     0.18936   0.83821   0.21857   0.00000  Uiso   1.00
O220   O     0.31065   0.82845   0.11476   0.00000  Uiso   1.00
O221   O     0.18090   0.82843   0.11477   0.00000  Uiso   1.00
O222   O     0.31910   0.83824   0.21857   0.00000  Uiso   1.00
Br223  Br    0.37564   0.94091   0.22949   0.00000  Uiso   1.00
Br224  Br    0.12436   0.72576   0.10385   0.00000  Uiso   1.00
Br225  Br    0.36721   0.72339   0.14155   0.00000  Uiso   1.00
Br226  Br    0.13279   0.94327   0.19178   0.00000  Uiso   1.00
Br227  Br    0.43805   0.68758   0.04637   0.00000  Uiso   1.00
Br228  Br    0.06195   0.97910   0.28695   0.00000  Uiso   1.00
Br229  Br    0.03456   0.99931   0.10789   0.00000  Uiso   1.00
Br230  Br    0.46544   0.66735   0.22542   0.00000  Uiso   1.00
C231   C     0.74847   0.73330   0.15116   0.00000  Uiso   1.00
C232   C     0.75153   0.93337   0.18218   0.00000  Uiso   1.00
C233   C     0.51582   0.73773   0.11983   0.00000  Uiso   1.00
C234   C     0.98418   0.92894   0.21350   0.00000  Uiso   1.00
C235   C     0.74767   0.67732   0.14245   0.00000  Uiso   1.00
C236   C     0.75234   0.98935   0.19089   0.00000  Uiso   1.00
C237   C     0.66470   0.83259   0.16723   0.00000  Uiso   1.00
C238   C     0.83530   0.83408   0.16610   0.00000  Uiso   1.00
C239   C     0.90880   0.88237   0.18859   0.00000  Uiso   1.00
C240   C     0.59120   0.78430   0.14475   0.00000  Uiso   1.00
C241   C     0.88344   0.83500   0.16489   0.00000  Uiso   1.00
C242   C     0.61656   0.83166   0.16845   0.00000  Uiso   1.00
C243   C     0.90321   0.78752   0.14405   0.00000  Uiso   1.00
C244   C     0.59679   0.87915   0.18928   0.00000  Uiso   1.00
C245   C     0.94951   0.78752   0.13914   0.00000  Uiso   1.00
C246   C     0.55049   0.87915   0.19418   0.00000  Uiso   1.00
C247   C     0.97639   0.83423   0.16564   0.00000  Uiso   1.00
C248   C     0.52361   0.83244   0.16768   0.00000  Uiso   1.00
C249   C     0.95609   0.88283   0.18890   0.00000  Uiso   1.00
C250   C     0.54391   0.78384   0.14443   0.00000  Uiso   1.00
C251   C     0.96983   0.74169   0.11039   0.00000  Uiso   1.00
C252   C     0.53017   0.92498   0.22293   0.00000  Uiso   1.00
Cu253  Cu    0.75501   0.83913   0.22813   0.00000  Uiso   1.00
Cu254  Cu    0.74500   0.82754   0.10521   0.00000  Uiso   1.00
H255   H     0.74331   0.98686   0.09573   0.00000  Uiso   1.00
H256   H     0.75669   0.67980   0.23760   0.00000  Uiso   1.00
H257   H     0.71518   0.79261   0.31621   0.00000  Uiso   1.00
H258   H     0.78482   0.87406   0.01713   0.00000  Uiso   1.00
N259   N     0.73745   0.81881   0.01284   0.00000  Uiso   1.00
N260   N     0.76256   0.84786   0.32049   0.00000  Uiso   1.00
O261   O     0.75326   0.76204   0.20659   0.00000  Uiso   1.00
O262   O     0.74675   0.90462   0.12674   0.00000  Uiso   1.00
O263   O     0.74480   0.75226   0.10279   0.00000  Uiso   1.00
O264   O     0.75520   0.91441   0.23055   0.00000  Uiso   1.00
O265   O     0.68936   0.83821   0.21857   0.00000  Uiso   1.00
O266   O     0.81065   0.82845   0.11476   0.00000  Uiso   1.00
O267   O     0.68090   0.82843   0.11477   0.00000  Uiso   1.00
O268   O     0.81910   0.83824   0.21857   0.00000  Uiso   1.00
Br269  Br    0.87564   0.94091   0.22949   0.00000  Uiso   1.00
Br270  Br    0.62436   0.72576   0.10385   0.00000  Uiso   1.00
Br271  Br    0.86721   0.72339   0.14155   0.00000  Uiso   1.00
Br272  Br    0.63279   0.94327   0.19178   0.00000  Uiso   1.00
Br273  Br    0.93805   0.68758   0.04637   0.00000  Uiso   1.00
Br274  Br    0.56195   0.97910   0.28695   0.00000  Uiso   1.00
Br275  Br    0.53456   0.99931   0.10789   0.00000  Uiso   1.00
Br276  Br    0.96544   0.66735   0.22542   0.00000  Uiso   1.00
C277   C     0.24847   0.06663   0.48449   0.00000  Uiso   1.00
C278   C     0.25153   0.26670   0.51551   0.00000  Uiso   1.00
C279   C     0.01582   0.07106   0.45316   0.00000  Uiso   1.00
C280   C     0.48418   0.26227   0.54683   0.00000  Uiso   1.00
C281   C     0.24767   0.01065   0.47578   0.00000  Uiso   1.00
C282   C     0.25234   0.32268   0.52422   0.00000  Uiso   1.00
C283   C     0.16470   0.16592   0.50056   0.00000  Uiso   1.00
C284   C     0.33530   0.16741   0.49944   0.00000  Uiso   1.00
C285   C     0.40880   0.21570   0.52192   0.00000  Uiso   1.00
C286   C     0.09120   0.11763   0.47808   0.00000  Uiso   1.00
C287   C     0.38344   0.16834   0.49822   0.00000  Uiso   1.00
C288   C     0.11656   0.16500   0.50178   0.00000  Uiso   1.00
C289   C     0.40321   0.12085   0.47738   0.00000  Uiso   1.00
C290   C     0.09679   0.21248   0.52262   0.00000  Uiso   1.00
C291   C     0.44951   0.12085   0.47248   0.00000  Uiso   1.00
C292   C     0.05049   0.21248   0.52752   0.00000  Uiso   1.00
C293   C     0.47639   0.16757   0.49898   0.00000  Uiso   1.00
C294   C     0.02361   0.16577   0.50102   0.00000  Uiso   1.00
C295   C     0.45609   0.21617   0.52223   0.00000  Uiso   1.00
C296   C     0.04391   0.11717   0.47776   0.00000  Uiso   1.00
C297   C     0.46983   0.07502   0.44372   0.00000  Uiso   1.00
C298   C     0.03017   0.25831   0.55627   0.00000  Uiso   1.00
Cu299  Cu    0.25501   0.17246   0.56146   0.00000  Uiso   1.00
Cu300  Cu    0.24500   0.16087   0.43854   0.00000  Uiso   1.00
H301   H     0.24331   0.32020   0.42907   0.00000  Uiso   1.00
H302   H     0.25669   0.01314   0.57093   0.00000  Uiso   1.00
H303   H     0.21518   0.12594   0.64954   0.00000  Uiso   1.00
H304   H     0.28482   0.20739   0.35046   0.00000  Uiso   1.00
N305   N     0.23745   0.15214   0.34617   0.00000  Uiso   1.00
N306   N     0.26256   0.18119   0.65383   0.00000  Uiso   1.00
O307   O     0.25326   0.09538   0.53992   0.00000  Uiso   1.00
O308   O     0.24675   0.23796   0.46008   0.00000  Uiso   1.00
O309   O     0.24480   0.08559   0.43612   0.00000  Uiso   1.00
O310   O     0.25520   0.24774   0.56388   0.00000  Uiso   1.00
O311   O     0.18936   0.17155   0.55191   0.00000  Uiso   1.00
O312   O     0.31065   0.16179   0.44809   0.00000  Uiso   1.00
O313   O     0.18090   0.16176   0.44810   0.00000  Uiso   1.00
O314   O     0.31910   0.17157   0.55190   0.00000  Uiso   1.00
Br315  Br    0.37564   0.27424   0.56283   0.00000  Uiso   1.00
Br316  Br    0.12436   0.05909   0.43719   0.00000  Uiso   1.00
Br317  Br    0.36721   0.05673   0.47488   0.00000  Uiso   1.00
Br318  Br    0.13279   0.27661   0.52511   0.00000  Uiso   1.00
Br319  Br    0.43805   0.02091   0.37970   0.00000  Uiso   1.00
Br320  Br    0.06195   0.31243   0.62028   0.00000  Uiso   1.00
Br321  Br    0.03456   0.33265   0.44122   0.00000  Uiso   1.00
Br322  Br    0.46544   0.00069   0.55876   0.00000  Uiso   1.00
C323   C     0.74847   0.06663   0.48449   0.00000  Uiso   1.00
C324   C     0.75153   0.26670   0.51551   0.00000  Uiso   1.00
C325   C     0.51582   0.07106   0.45316   0.00000  Uiso   1.00
C326   C     0.98418   0.26227   0.54683   0.00000  Uiso   1.00
C327   C     0.74767   0.01065   0.47578   0.00000  Uiso   1.00
C328   C     0.75234   0.32268   0.52422   0.00000  Uiso   1.00
C329   C     0.66470   0.16592   0.50056   0.00000  Uiso   1.00
C330   C     0.83530   0.16741   0.49944   0.00000  Uiso   1.00
C331   C     0.90880   0.21570   0.52192   0.00000  Uiso   1.00
C332   C     0.59120   0.11763   0.47808   0.00000  Uiso   1.00
C333   C     0.88344   0.16834   0.49822   0.00000  Uiso   1.00
C334   C     0.61656   0.16500   0.50178   0.00000  Uiso   1.00
C335   C     0.90321   0.12085   0.47738   0.00000  Uiso   1.00
C336   C     0.59679   0.21248   0.52262   0.00000  Uiso   1.00
C337   C     0.94951   0.12085   0.47248   0.00000  Uiso   1.00
C338   C     0.55049   0.21248   0.52752   0.00000  Uiso   1.00
C339   C     0.97639   0.16757   0.49898   0.00000  Uiso   1.00
C340   C     0.52361   0.16577   0.50102   0.00000  Uiso   1.00
C341   C     0.95609   0.21617   0.52223   0.00000  Uiso   1.00
C342   C     0.54391   0.11717   0.47776   0.00000  Uiso   1.00
C343   C     0.96983   0.07502   0.44372   0.00000  Uiso   1.00
C344   C     0.53017   0.25831   0.55627   0.00000  Uiso   1.00
Cu345  Cu    0.75501   0.17246   0.56146   0.00000  Uiso   1.00
Cu346  Cu    0.74500   0.16087   0.43854   0.00000  Uiso   1.00
H347   H     0.74331   0.32020   0.42907   0.00000  Uiso   1.00
H348   H     0.75669   0.01314   0.57093   0.00000  Uiso   1.00
H349   H     0.71518   0.12594   0.64954   0.00000  Uiso   1.00
H350   H     0.78482   0.20739   0.35046   0.00000  Uiso   1.00
N351   N     0.73745   0.15214   0.34617   0.00000  Uiso   1.00
N352   N     0.76256   0.18119   0.65383   0.00000  Uiso   1.00
O353   O     0.75326   0.09538   0.53992   0.00000  Uiso   1.00
O354   O     0.74675   0.23796   0.46008   0.00000  Uiso   1.00
O355   O     0.74480   0.08559   0.43612   0.00000  Uiso   1.00
O356   O     0.75520   0.24774   0.56388   0.00000  Uiso   1.00
O357   O     0.68936   0.17155   0.55191   0.00000  Uiso   1.00
O358   O     0.81065   0.16179   0.44809   0.00000  Uiso   1.00
O359   O     0.68090   0.16176   0.44810   0.00000  Uiso   1.00
O360   O     0.81910   0.17157   0.55190   0.00000  Uiso   1.00
Br361  Br    0.87564   0.27424   0.56283   0.00000  Uiso   1.00
Br362  Br    0.62436   0.05909   0.43719   0.00000  Uiso   1.00
Br363  Br    0.86721   0.05673   0.47488   0.00000  Uiso   1.00
Br364  Br    0.63279   0.27661   0.52511   0.00000  Uiso   1.00
Br365  Br    0.93805   0.02091   0.37970   0.00000  Uiso   1.00
Br366  Br    0.56195   0.31243   0.62028   0.00000  Uiso   1.00
Br367  Br    0.53456   0.33265   0.44122   0.00000  Uiso   1.00
Br368  Br    0.96544   0.00069   0.55876   0.00000  Uiso   1.00
C369   C     0.24847   0.39996   0.48449   0.00000  Uiso   1.00
C370   C     0.25153   0.60004   0.51551   0.00000  Uiso   1.00
C371   C     0.01582   0.40440   0.45316   0.00000  Uiso   1.00
C372   C     0.48418   0.59561   0.54683   0.00000  Uiso   1.00
C373   C     0.24767   0.34399   0.47578   0.00000  Uiso   1.00
C374   C     0.25234   0.65601   0.52422   0.00000  Uiso   1.00
C375   C     0.16470   0.49925   0.50056   0.00000  Uiso   1.00
C376   C     0.33530   0.50075   0.49944   0.00000  Uiso   1.00
C377   C     0.40880   0.54903   0.52192   0.00000  Uiso   1.00
C378   C     0.09120   0.45097   0.47808   0.00000  Uiso   1.00
C379   C     0.38344   0.50167   0.49822   0.00000  Uiso   1.00
C380   C     0.11656   0.49833   0.50178   0.00000  Uiso   1.00
C381   C     0.40321   0.45419   0.47738   0.00000  Uiso   1.00
C382   C     0.09679   0.54581   0.52262   0.00000  Uiso   1.00
C383   C     0.44951   0.45419   0.47248   0.00000  Uiso   1.00
C384   C     0.05049   0.54582   0.52752   0.00000  Uiso   1.00
C385   C     0.47639   0.50090   0.49898   0.00000  Uiso   1.00
C386   C     0.02361   0.49910   0.50102   0.00000  Uiso   1.00
C387   C     0.45609   0.54950   0.52223   0.00000  Uiso   1.00
C388   C     0.04391   0.45050   0.47776   0.00000  Uiso   1.00
C389   C     0.46983   0.40836   0.44372   0.00000  Uiso   1.00
C390   C     0.03017   0.59165   0.55627   0.00000  Uiso   1.00
Cu391  Cu    0.25501   0.50579   0.56146   0.00000  Uiso   1.00
Cu392  Cu    0.24500   0.49421   0.43854   0.00000  Uiso   1.00
H393   H     0.24331   0.65353   0.42907   0.00000  Uiso   1.00
H394   H     0.25669   0.34647   0.57093   0.00000  Uiso   1.00
H395   H     0.21518   0.45927   0.64954   0.00000  Uiso   1.00
H396   H     0.28482   0.54073   0.35046   0.00000  Uiso   1.00
N397   N     0.23745   0.48547   0.34617   0.00000  Uiso   1.00
N398   N     0.26256   0.51453   0.65383   0.00000  Uiso   1.00
O399   O     0.25326   0.42871   0.53992   0.00000  Uiso   1.00
O400   O     0.24675   0.57129   0.46008   0.00000  Uiso   1.00
O401   O     0.24480   0.41892   0.43612   0.00000  Uiso   1.00
O402   O     0.25520   0.58108   0.56388   0.00000  Uiso   1.00
O403   O     0.18936   0.50488   0.55191   0.00000  Uiso   1.00
O404   O     0.31065   0.49512   0.44809   0.00000  Uiso   1.00
O405   O     0.18090   0.49510   0.44810   0.00000  Uiso   1.00
O406   O     0.31910   0.50490   0.55190   0.00000  Uiso   1.00
Br407  Br    0.37564   0.60757   0.56283   0.00000  Uiso   1.00
Br408  Br    0.12436   0.39242   0.43719   0.00000  Uiso   1.00
Br409  Br    0.36721   0.39006   0.47488   0.00000  Uiso   1.00
Br410  Br    0.13279   0.60994   0.52511   0.00000  Uiso   1.00
Br411  Br    0.43805   0.35425   0.37970   0.00000  Uiso   1.00
Br412  Br    0.06195   0.64576   0.62028   0.00000  Uiso   1.00
Br413  Br    0.03456   0.66598   0.44122   0.00000  Uiso   1.00
Br414  Br    0.46544   0.33402   0.55876   0.00000  Uiso   1.00
C415   C     0.74847   0.39996   0.48449   0.00000  Uiso   1.00
C416   C     0.75153   0.60004   0.51551   0.00000  Uiso   1.00
C417   C     0.51582   0.40440   0.45316   0.00000  Uiso   1.00
C418   C     0.98418   0.59561   0.54683   0.00000  Uiso   1.00
C419   C     0.74767   0.34399   0.47578   0.00000  Uiso   1.00
C420   C     0.75234   0.65601   0.52422   0.00000  Uiso   1.00
C421   C     0.66470   0.49925   0.50056   0.00000  Uiso   1.00
C422   C     0.83530   0.50075   0.49944   0.00000  Uiso   1.00
C423   C     0.90880   0.54903   0.52192   0.00000  Uiso   1.00
C424   C     0.59120   0.45097   0.47808   0.00000  Uiso   1.00
C425   C     0.88344   0.50167   0.49822   0.00000  Uiso   1.00
C426   C     0.61656   0.49833   0.50178   0.00000  Uiso   1.00
C427   C     0.90321   0.45419   0.47738   0.00000  Uiso   1.00
C428   C     0.59679   0.54581   0.52262   0.00000  Uiso   1.00
C429   C     0.94951   0.45419   0.47248   0.00000  Uiso   1.00
C430   C     0.55049   0.54582   0.52752   0.00000  Uiso   1.00
C431   C     0.97639   0.50090   0.49898   0.00000  Uiso   1.00
C432   C     0.52361   0.49910   0.50102   0.00000  Uiso   1.00
C433   C     0.95609   0.54950   0.52223   0.00000  Uiso   1.00
C434   C     0.54391   0.45050   0.47776   0.00000  Uiso   1.00
C435   C     0.96983   0.40836   0.44372   0.00000  Uiso   1.00
C436   C     0.53017   0.59165   0.55627   0.00000  Uiso   1.00
Cu437  Cu    0.75501   0.50579   0.56146   0.00000  Uiso   1.00
Cu438  Cu    0.74500   0.49421   0.43854   0.00000  Uiso   1.00
H439   H     0.74331   0.65353   0.42907   0.00000  Uiso   1.00
H440   H     0.75669   0.34647   0.57093   0.00000  Uiso   1.00
H441   H     0.71518   0.45927   0.64954   0.00000  Uiso   1.00
H442   H     0.78482   0.54073   0.35046   0.00000  Uiso   1.00
N443   N     0.73745   0.48547   0.34617   0.00000  Uiso   1.00
N444   N     0.76256   0.51453   0.65383   0.00000  Uiso   1.00
O445   O     0.75326   0.42871   0.53992   0.00000  Uiso   1.00
O446   O     0.74675   0.57129   0.46008   0.00000  Uiso   1.00
O447   O     0.74480   0.41892   0.43612   0.00000  Uiso   1.00
O448   O     0.75520   0.58108   0.56388   0.00000  Uiso   1.00
O449   O     0.68936   0.50488   0.55191   0.00000  Uiso   1.00
O450   O     0.81065   0.49512   0.44809   0.00000  Uiso   1.00
O451   O     0.68090   0.49510   0.44810   0.00000  Uiso   1.00
O452   O     0.81910   0.50490   0.55190   0.00000  Uiso   1.00
Br453  Br    0.87564   0.60757   0.56283   0.00000  Uiso   1.00
Br454  Br    0.62436   0.39242   0.43719   0.00000  Uiso   1.00
Br455  Br    0.86721   0.39006   0.47488   0.00000  Uiso   1.00
Br456  Br    0.63279   0.60994   0.52511   0.00000  Uiso   1.00
Br457  Br    0.93805   0.35425   0.37970   0.00000  Uiso   1.00
Br458  Br    0.56195   0.64576   0.62028   0.00000  Uiso   1.00
Br459  Br    0.53456   0.66598   0.44122   0.00000  Uiso   1.00
Br460  Br    0.96544   0.33402   0.55876   0.00000  Uiso   1.00
C461   C     0.24847   0.73330   0.48449   0.00000  Uiso   1.00
C462   C     0.25153   0.93337   0.51551   0.00000  Uiso   1.00
C463   C     0.01582   0.73773   0.45316   0.00000  Uiso   1.00
C464   C     0.48418   0.92894   0.54683   0.00000  Uiso   1.00
C465   C     0.24767   0.67732   0.47578   0.00000  Uiso   1.00
C466   C     0.25234   0.98935   0.52422   0.00000  Uiso   1.00
C467   C     0.16470   0.83259   0.50056   0.00000  Uiso   1.00
C468   C     0.33530   0.83408   0.49944   0.00000  Uiso   1.00
C469   C     0.40880   0.88237   0.52192   0.00000  Uiso   1.00
C470   C     0.09120   0.78430   0.47808   0.00000  Uiso   1.00
C471   C     0.38344   0.83500   0.49822   0.00000  Uiso   1.00
C472   C     0.11656   0.83166   0.50178   0.00000  Uiso   1.00
C473   C     0.40321   0.78752   0.47738   0.00000  Uiso   1.00
C474   C     0.09679   0.87915   0.52262   0.00000  Uiso   1.00
C475   C     0.44951   0.78752   0.47248   0.00000  Uiso   1.00
C476   C     0.05049   0.87915   0.52752   0.00000  Uiso   1.00
C477   C     0.47639   0.83423   0.49898   0.00000  Uiso   1.00
C478   C     0.02361   0.83244   0.50102   0.00000  Uiso   1.00
C479   C     0.45609   0.88283   0.52223   0.00000  Uiso   1.00
C480   C     0.04391   0.78384   0.47776   0.00000  Uiso   1.00
C481   C     0.46983   0.74169   0.44372   0.00000  Uiso   1.00
C482   C     0.03017   0.92498   0.55627   0.00000  Uiso   1.00
Cu483  Cu    0.25501   0.83913   0.56146   0.00000  Uiso   1.00
Cu484  Cu    0.24500   0.82754   0.43854   0.00000  Uiso   1.00
H485   H     0.24331   0.98686   0.42907   0.00000  Uiso   1.00
H486   H     0.25669   0.67980   0.57093   0.00000  Uiso   1.00
H487   H     0.21518   0.79261   0.64954   0.00000  Uiso   1.00
H488   H     0.28482   0.87406   0.35046   0.00000  Uiso   1.00
N489   N     0.23745   0.81881   0.34617   0.00000  Uiso   1.00
N490   N     0.26256   0.84786   0.65383   0.00000  Uiso   1.00
O491   O     0.25326   0.76204   0.53992   0.00000  Uiso   1.00
O492   O     0.24675   0.90462   0.46008   0.00000  Uiso   1.00
O493   O     0.24480   0.75226   0.43612   0.00000  Uiso   1.00
O494   O     0.25520   0.91441   0.56388   0.00000  Uiso   1.00
O495   O     0.18936   0.83821   0.55191   0.00000  Uiso   1.00
O496   O     0.31065   0.82845   0.44809   0.00000  Uiso   1.00
O497   O     0.18090   0.82843   0.44810   0.00000  Uiso   1.00
O498   O     0.31910   0.83824   0.55190   0.00000  Uiso   1.00
Br499  Br    0.37564   0.94091   0.56283   0.00000  Uiso   1.00
Br500  Br    0.12436   0.72576   0.43719   0.00000  Uiso   1.00
Br501  Br    0.36721   0.72339   0.47488   0.00000  Uiso   1.00
Br502  Br    0.13279   0.94327   0.52511   0.00000  Uiso   1.00
Br503  Br    0.43805   0.68758   0.37970   0.00000  Uiso   1.00
Br504  Br    0.06195   0.97910   0.62028   0.00000  Uiso   1.00
Br505  Br    0.03456   0.99931   0.44122   0.00000  Uiso   1.00
Br506  Br    0.46544   0.66735   0.55876   0.00000  Uiso   1.00
C507   C     0.74847   0.73330   0.48449   0.00000  Uiso   1.00
C508   C     0.75153   0.93337   0.51551   0.00000  Uiso   1.00
C509   C     0.51582   0.73773   0.45316   0.00000  Uiso   1.00
C510   C     0.98418   0.92894   0.54683   0.00000  Uiso   1.00
C511   C     0.74767   0.67732   0.47578   0.00000  Uiso   1.00
C512   C     0.75234   0.98935   0.52422   0.00000  Uiso   1.00
C513   C     0.66470   0.83259   0.50056   0.00000  Uiso   1.00
C514   C     0.83530   0.83408   0.49944   0.00000  Uiso   1.00
C515   C     0.90880   0.88237   0.52192   0.00000  Uiso   1.00
C516   C     0.59120   0.78430   0.47808   0.00000  Uiso   1.00
C517   C     0.88344   0.83500   0.49822   0.00000  Uiso   1.00
C518   C     0.61656   0.83166   0.50178   0.00000  Uiso   1.00
C519   C     0.90321   0.78752   0.47738   0.00000  Uiso   1.00
C520   C     0.59679   0.87915   0.52262   0.00000  Uiso   1.00
C521   C     0.94951   0.78752   0.47248   0.00000  Uiso   1.00
C522   C     0.55049   0.87915   0.52752   0.00000  Uiso   1.00
C523   C     0.97639   0.83423   0.49898   0.00000  Uiso   1.00
C524   C     0.52361   0.83244   0.50102   0.00000  Uiso   1.00
C525   C     0.95609   0.88283   0.52223   0.00000  Uiso   1.00
C526   C     0.54391   0.78384   0.47776   0.00000  Uiso   1.00
C527   C     0.96983   0.74169   0.44372   0.00000  Uiso   1.00
C528   C     0.53017   0.92498   0.55627   0.00000  Uiso   1.00
Cu529  Cu    0.75501   0.83913   0.56146   0.00000  Uiso   1.00
Cu530  Cu    0.74500   0.82754   0.43854   0.00000  Uiso   1.00
H531   H     0.74331   0.98686   0.42907   0.00000  Uiso   1.00
H532   H     0.75669   0.67980   0.57093   0.00000  Uiso   1.00
H533   H     0.71518   0.79261   0.64954   0.00000  Uiso   1.00
H534   H     0.78482   0.87406   0.35046   0.00000  Uiso   1.00
N535   N     0.73745   0.81881   0.34617   0.00000  Uiso   1.00
N536   N     0.76256   0.84786   0.65383   0.00000  Uiso   1.00
O537   O     0.75326   0.76204   0.53992   0.00000  Uiso   1.00
O538   O     0.74675   0.90462   0.46008   0.00000  Uiso   1.00
O539   O     0.74480   0.75226   0.43612   0.00000  Uiso   1.00
O540   O     0.75520   0.91441   0.56388   0.00000  Uiso   1.00
O541   O     0.68936   0.83821   0.55191   0.00000  Uiso   1.00
O542   O     0.81065   0.82845   0.44809   0.00000  Uiso   1.00
O543   O     0.68090   0.82843   0.44810   0.00000  Uiso   1.00
O544   O     0.81910   0.83824   0.55190   0.00000  Uiso   1.00
Br545  Br    0.87564   0.94091   0.56283   0.00000  Uiso   1.00
Br546  Br    0.62436   0.72576   0.43719   0.00000  Uiso   1.00
Br547  Br    0.86721   0.72339   0.47488   0.00000  Uiso   1.00
Br548  Br    0.63279   0.94327   0.52511   0.00000  Uiso   1.00
Br549  Br    0.93805   0.68758   0.37970   0.00000  Uiso   1.00
Br550  Br    0.56195   0.97910   0.62028   0.00000  Uiso   1.00
Br551  Br    0.53456   0.99931   0.44122   0.00000  Uiso   1.00
Br552  Br    0.96544   0.66735   0.55876   0.00000  Uiso   1.00
C553   C     0.24847   0.06663   0.81782   0.00000  Uiso   1.00
C554   C     0.25153   0.26670   0.84884   0.00000  Uiso   1.00
C555   C     0.01582   0.07106   0.78649   0.00000  Uiso   1.00
C556   C     0.48418   0.26227   0.88016   0.00000  Uiso   1.00
C557   C     0.24767   0.01065   0.80911   0.00000  Uiso   1.00
C558   C     0.25234   0.32268   0.85755   0.00000  Uiso   1.00
C559   C     0.16470   0.16592   0.83390   0.00000  Uiso   1.00
C560   C     0.33530   0.16741   0.83277   0.00000  Uiso   1.00
C561   C     0.40880   0.21570   0.85525   0.00000  Uiso   1.00
C562   C     0.09120   0.11763   0.81141   0.00000  Uiso   1.00
C563   C     0.38344   0.16834   0.83155   0.00000  Uiso   1.00
C564   C     0.11656   0.16500   0.83511   0.00000  Uiso   1.00
C565   C     0.40321   0.12085   0.81071   0.00000  Uiso   1.00
C566   C     0.09679   0.21248   0.85595   0.00000  Uiso   1.00
C567   C     0.44951   0.12085   0.80581   0.00000  Uiso   1.00
C568   C     0.05049   0.21248   0.86085   0.00000  Uiso   1.00
C569   C     0.47639   0.16757   0.83231   0.00000  Uiso   1.00
C570   C     0.02361   0.16577   0.83435   0.00000  Uiso   1.00
C571   C     0.45609   0.21617   0.85557   0.00000  Uiso   1.00
C572   C     0.04391   0.11717   0.81109   0.00000  Uiso   1.00
C573   C     0.46983   0.07502   0.77706   0.00000  Uiso   1.00
C574   C     0.03017   0.25831   0.88960   0.00000  Uiso   1.00
Cu575  Cu    0.25501   0.17246   0.89479   0.00000  Uiso   1.00
Cu576  Cu    0.24500   0.16087   0.77187   0.00000  Uiso   1.00
H577   H     0.24331   0.32020   0.76240   0.00000  Uiso   1.00
H578   H     0.25669   0.01314   0.90427   0.00000  Uiso   1.00
H579   H     0.21518   0.12594   0.98287   0.00000  Uiso   1.00
H580   H     0.28482   0.20739   0.68379   0.00000  Uiso   1.00
N581   N     0.23745   0.15214   0.67951   0.00000  Uiso   1.00
N582   N     0.26256   0.18119   0.98716   0.00000  Uiso   1.00
O583   O     0.25326   0.09538   0.87326   0.00000  Uiso   1.00
O584   O     0.24675   0.23796   0.79341   0.00000  Uiso   1.00
O585   O     0.24480   0.08559   0.76945   0.00000  Uiso   1.00
O586   O     0.25520   0.24774   0.89721   0.00000  Uiso   1.00
O587   O     0.18936   0.17155   0.88524   0.00000  Uiso   1.00
O588   O     0.31065   0.16179   0.78143   0.00000  Uiso   1.00
O589   O     0.18090   0.16176   0.78143   0.00000  Uiso   1.00
O590   O     0.31910   0.17157   0.88523   0.00000  Uiso   1.00
Br591  Br    0.37564   0.27424   0.89616   0.00000  Uiso   1.00
Br592  Br    0.12436   0.05909   0.77052   0.00000  Uiso   1.00
Br593  Br    0.36721   0.05673   0.80821   0.00000  Uiso   1.00
Br594  Br    0.13279   0.27661   0.85844   0.00000  Uiso   1.00
Br595  Br    0.43805   0.02091   0.71304   0.00000  Uiso   1.00
Br596  Br    0.06195   0.31243   0.95361   0.00000  Uiso   1.00
Br597  Br    0.03456   0.33265   0.77456   0.00000  Uiso   1.00
Br598  Br    0.46544   0.00069   0.89209   0.00000  Uiso   1.00
C599   C     0.74847   0.06663   0.81782   0.00000  Uiso   1.00
C600   C     0.75153   0.26670   0.84884   0.00000  Uiso   1.00
C601   C     0.51582   0.07106   0.78649   0.00000  Uiso   1.00
C602   C     0.98418   0.26227   0.88016   0.00000  Uiso   1.00
C603   C     0.74767   0.01065   0.80911   0.00000  Uiso   1.00
C604   C     0.75234   0.32268   0.85755   0.00000  Uiso   1.00
C605   C     0.66470   0.16592   0.83390   0.00000  Uiso   1.00
C606   C     0.83530   0.16741   0.83277   0.00000  Uiso   1.00
C607   C     0.90880   0.21570   0.85525   0.00000  Uiso   1.00
C608   C     0.59120   0.11763   0.81141   0.00000  Uiso   1.00
C609   C     0.88344   0.16834   0.83155   0.00000  Uiso   1.00
C610   C     0.61656   0.16500   0.83511   0.00000  Uiso   1.00
C611   C     0.90321   0.12085   0.81071   0.00000  Uiso   1.00
C612   C     0.59679   0.21248   0.85595   0.00000  Uiso   1.00
C613   C     0.94951   0.12085   0.80581   0.00000  Uiso   1.00
C614   C     0.55049   0.21248   0.86085   0.00000  Uiso   1.00
C615   C     0.97639   0.16757   0.83231   0.00000  Uiso   1.00
C616   C     0.52361   0.16577   0.83435   0.00000  Uiso   1.00
C617   C     0.95609   0.21617   0.85557   0.00000  Uiso   1.00
C618   C     0.54391   0.11717   0.81109   0.00000  Uiso   1.00
C619   C     0.96983   0.07502   0.77706   0.00000  Uiso   1.00
C620   C     0.53017   0.25831   0.88960   0.00000  Uiso   1.00
Cu621  Cu    0.75501   0.17246   0.89479   0.00000  Uiso   1.00
Cu622  Cu    0.74500   0.16087   0.77187   0.00000  Uiso   1.00
H623   H     0.74331   0.32020   0.76240   0.00000  Uiso   1.00
H624   H     0.75669   0.01314   0.90427   0.00000  Uiso   1.00
H625   H     0.71518   0.12594   0.98287   0.00000  Uiso   1.00
H626   H     0.78482   0.20739   0.68379   0.00000  Uiso   1.00
N627   N     0.73745   0.15214   0.67951   0.00000  Uiso   1.00
N628   N     0.76256   0.18119   0.98716   0.00000  Uiso   1.00
O629   O     0.75326   0.09538   0.87326   0.00000  Uiso   1.00
O630   O     0.74675   0.23796   0.79341   0.00000  Uiso   1.00
O631   O     0.74480   0.08559   0.76945   0.00000  Uiso   1.00
O632   O     0.75520   0.24774   0.89721   0.00000  Uiso   1.00
O633   O     0.68936   0.17155   0.88524   0.00000  Uiso   1.00
O634   O     0.81065   0.16179   0.78143   0.00000  Uiso   1.00
O635   O     0.68090   0.16176   0.78143   0.00000  Uiso   1.00
O636   O     0.81910   0.17157   0.88523   0.00000  Uiso   1.00
Br637  Br    0.87564   0.27424   0.89616   0.00000  Uiso   1.00
Br638  Br    0.62436   0.05909   0.77052   0.00000  Uiso   1.00
Br639  Br    0.86721   0.05673   0.80821   0.00000  Uiso   1.00
Br640  Br    0.63279   0.27661   0.85844   0.00000  Uiso   1.00
Br641  Br    0.93805   0.02091   0.71304   0.00000  Uiso   1.00
Br642  Br    0.56195   0.31243   0.95361   0.00000  Uiso   1.00
Br643  Br    0.53456   0.33265   0.77456   0.00000  Uiso   1.00
Br644  Br    0.96544   0.00069   0.89209   0.00000  Uiso   1.00
C645   C     0.24847   0.39996   0.81782   0.00000  Uiso   1.00
C646   C     0.25153   0.60004   0.84884   0.00000  Uiso   1.00
C647   C     0.01582   0.40440   0.78649   0.00000  Uiso   1.00
C648   C     0.48418   0.59561   0.88016   0.00000  Uiso   1.00
C649   C     0.24767   0.34399   0.80911   0.00000  Uiso   1.00
C650   C     0.25234   0.65601   0.85755   0.00000  Uiso   1.00
C651   C     0.16470   0.49925   0.83390   0.00000  Uiso   1.00
C652   C     0.33530   0.50075   0.83277   0.00000  Uiso   1.00
C653   C     0.40880   0.54903   0.85525   0.00000  Uiso   1.00
C654   C     0.09120   0.45097   0.81141   0.00000  Uiso   1.00
C655   C     0.38344   0.50167   0.83155   0.00000  Uiso   1.00
C656   C     0.11656   0.49833   0.83511   0.00000  Uiso   1.00
C657   C     0.40321   0.45419   0.81071   0.00000  Uiso   1.00
C658   C     0.09679   0.54581   0.85595   0.00000  Uiso   1.00
C659   C     0.44951   0.45419   0.80581   0.00000  Uiso   1.00
C660   C     0.05049   0.54582   0.86085   0.00000  Uiso   1.00
C661   C     0.47639   0.50090   0.83231   0.00000  Uiso   1.00
C662   C     0.02361   0.49910   0.83435   0.00000  Uiso   1.00
C663   C     0.45609   0.54950   0.85557   0.00000  Uiso   1.00
C664   C     0.04391   0.45050   0.81109   0.00000  Uiso   1.00
C665   C     0.46983   0.40836   0.77706   0.00000  Uiso   1.00
C666   C     0.03017   0.59165   0.88960   0.00000  Uiso   1.00
Cu667  Cu    0.25501   0.50579   0.89479   0.00000  Uiso   1.00
Cu668  Cu    0.24500   0.49421   0.77187   0.00000  Uiso   1.00
H669   H     0.24331   0.65353   0.76240   0.00000  Uiso   1.00
H670   H     0.25669   0.34647   0.90427   0.00000  Uiso   1.00
H671   H     0.21518   0.45927   0.98287   0.00000  Uiso   1.00
H672   H     0.28482   0.54073   0.68379   0.00000  Uiso   1.00
N673   N     0.23745   0.48547   0.67951   0.00000  Uiso   1.00
N674   N     0.26256   0.51453   0.98716   0.00000  Uiso   1.00
O675   O     0.25326   0.42871   0.87326   0.00000  Uiso   1.00
O676   O     0.24675   0.57129   0.79341   0.00000  Uiso   1.00
O677   O     0.24480   0.41892   0.76945   0.00000  Uiso   1.00
O678   O     0.25520   0.58108   0.89721   0.00000  Uiso   1.00
O679   O     0.18936   0.50488   0.88524   0.00000  Uiso   1.00
O680   O     0.31065   0.49512   0.78143   0.00000  Uiso   1.00
O681   O     0.18090   0.49510   0.78143   0.00000  Uiso   1.00
O682   O     0.31910   0.50490   0.88523   0.00000  Uiso   1.00
Br683  Br    0.37564   0.60757   0.89616   0.00000  Uiso   1.00
Br684  Br    0.12436   0.39242   0.77052   0.00000  Uiso   1.00
Br685  Br    0.36721   0.39006   0.80821   0.00000  Uiso   1.00
Br686  Br    0.13279   0.60994   0.85844   0.00000  Uiso   1.00
Br687  Br    0.43805   0.35425   0.71304   0.00000  Uiso   1.00
Br688  Br    0.06195   0.64576   0.95361   0.00000  Uiso   1.00
Br689  Br    0.03456   0.66598   0.77456   0.00000  Uiso   1.00
Br690  Br    0.46544   0.33402   0.89209   0.00000  Uiso   1.00
C691   C     0.74847   0.39996   0.81782   0.00000  Uiso   1.00
C692   C     0.75153   0.60004   0.84884   0.00000  Uiso   1.00
C693   C     0.51582   0.40440   0.78649   0.00000  Uiso   1.00
C694   C     0.98418   0.59561   0.88016   0.00000  Uiso   1.00
C695   C     0.74767   0.34399   0.80911   0.00000  Uiso   1.00
C696   C     0.75234   0.65601   0.85755   0.00000  Uiso   1.00
C697   C     0.66470   0.49925   0.83390   0.00000  Uiso   1.00
C698   C     0.83530   0.50075   0.83277   0.00000  Uiso   1.00
C699   C     0.90880   0.54903   0.85525   0.00000  Uiso   1.00
C700   C     0.59120   0.45097   0.81141   0.00000  Uiso   1.00
C701   C     0.88344   0.50167   0.83155   0.00000  Uiso   1.00
C702   C     0.61656   0.49833   0.83511   0.00000  Uiso   1.00
C703   C     0.90321   0.45419   0.81071   0.00000  Uiso   1.00
C704   C     0.59679   0.54581   0.85595   0.00000  Uiso   1.00
C705   C     0.94951   0.45419   0.80581   0.00000  Uiso   1.00
C706   C     0.55049   0.54582   0.86085   0.00000  Uiso   1.00
C707   C     0.97639   0.50090   0.83231   0.00000  Uiso   1.00
C708   C     0.52361   0.49910   0.83435   0.00000  Uiso   1.00
C709   C     0.95609   0.54950   0.85557   0.00000  Uiso   1.00
C710   C     0.54391   0.45050   0.81109   0.00000  Uiso   1.00
C711   C     0.96983   0.40836   0.77706   0.00000  Uiso   1.00
C712   C     0.53017   0.59165   0.88960   0.00000  Uiso   1.00
Cu713  Cu    0.75501   0.50579   0.89479   0.00000  Uiso   1.00
Cu714  Cu    0.74500   0.49421   0.77187   0.00000  Uiso   1.00
H715   H     0.74331   0.65353   0.76240   0.00000  Uiso   1.00
H716   H     0.75669   0.34647   0.90427   0.00000  Uiso   1.00
H717   H     0.71518   0.45927   0.98287   0.00000  Uiso   1.00
H718   H     0.78482   0.54073   0.68379   0.00000  Uiso   1.00
N719   N     0.73745   0.48547   0.67951   0.00000  Uiso   1.00
N720   N     0.76256   0.51453   0.98716   0.00000  Uiso   1.00
O721   O     0.75326   0.42871   0.87326   0.00000  Uiso   1.00
O722   O     0.74675   0.57129   0.79341   0.00000  Uiso   1.00
O723   O     0.74480   0.41892   0.76945   0.00000  Uiso   1.00
O724   O     0.75520   0.58108   0.89721   0.00000  Uiso   1.00
O725   O     0.68936   0.50488   0.88524   0.00000  Uiso   1.00
O726   O     0.81065   0.49512   0.78143   0.00000  Uiso   1.00
O727   O     0.68090   0.49510   0.78143   0.00000  Uiso   1.00
O728   O     0.81910   0.50490   0.88523   0.00000  Uiso   1.00
Br729  Br    0.87564   0.60757   0.89616   0.00000  Uiso   1.00
Br730  Br    0.62436   0.39242   0.77052   0.00000  Uiso   1.00
Br731  Br    0.86721   0.39006   0.80821   0.00000  Uiso   1.00
Br732  Br    0.63279   0.60994   0.85844   0.00000  Uiso   1.00
Br733  Br    0.93805   0.35425   0.71304   0.00000  Uiso   1.00
Br734  Br    0.56195   0.64576   0.95361   0.00000  Uiso   1.00
Br735  Br    0.53456   0.66598   0.77456   0.00000  Uiso   1.00
Br736  Br    0.96544   0.33402   0.89209   0.00000  Uiso   1.00
C737   C     0.24847   0.73330   0.81782   0.00000  Uiso   1.00
C738   C     0.25153   0.93337   0.84884   0.00000  Uiso   1.00
C739   C     0.01582   0.73773   0.78649   0.00000  Uiso   1.00
C740   C     0.48418   0.92894   0.88016   0.00000  Uiso   1.00
C741   C     0.24767   0.67732   0.80911   0.00000  Uiso   1.00
C742   C     0.25234   0.98935   0.85755   0.00000  Uiso   1.00
C743   C     0.16470   0.83259   0.83390   0.00000  Uiso   1.00
C744   C     0.33530   0.83408   0.83277   0.00000  Uiso   1.00
C745   C     0.40880   0.88237   0.85525   0.00000  Uiso   1.00
C746   C     0.09120   0.78430   0.81141   0.00000  Uiso   1.00
C747   C     0.38344   0.83500   0.83155   0.00000  Uiso   1.00
C748   C     0.11656   0.83166   0.83511   0.00000  Uiso   1.00
C749   C     0.40321   0.78752   0.81071   0.00000  Uiso   1.00
C750   C     0.09679   0.87915   0.85595   0.00000  Uiso   1.00
C751   C     0.44951   0.78752   0.80581   0.00000  Uiso   1.00
C752   C     0.05049   0.87915   0.86085   0.00000  Uiso   1.00
C753   C     0.47639   0.83423   0.83231   0.00000  Uiso   1.00
C754   C     0.02361   0.83244   0.83435   0.00000  Uiso   1.00
C755   C     0.45609   0.88283   0.85557   0.00000  Uiso   1.00
C756   C     0.04391   0.78384   0.81109   0.00000  Uiso   1.00
C757   C     0.46983   0.74169   0.77706   0.00000  Uiso   1.00
C758   C     0.03017   0.92498   0.88960   0.00000  Uiso   1.00
Cu759  Cu    0.25501   0.83913   0.89479   0.00000  Uiso   1.00
Cu760  Cu    0.24500   0.82754   0.77187   0.00000  Uiso   1.00
H761   H     0.24331   0.98686   0.76240   0.00000  Uiso   1.00
H762   H     0.25669   0.67980   0.90427   0.00000  Uiso   1.00
H763   H     0.21518   0.79261   0.98287   0.00000  Uiso   1.00
H764   H     0.28482   0.87406   0.68379   0.00000  Uiso   1.00
N765   N     0.23745   0.81881   0.67951   0.00000  Uiso   1.00
N766   N     0.26256   0.84786   0.98716   0.00000  Uiso   1.00
O767   O     0.25326   0.76204   0.87326   0.00000  Uiso   1.00
O768   O     0.24675   0.90462   0.79341   0.00000  Uiso   1.00
O769   O     0.24480   0.75226   0.76945   0.00000  Uiso   1.00
O770   O     0.25520   0.91441   0.89721   0.00000  Uiso   1.00
O771   O     0.18936   0.83821   0.88524   0.00000  Uiso   1.00
O772   O     0.31065   0.82845   0.78143   0.00000  Uiso   1.00
O773   O     0.18090   0.82843   0.78143   0.00000  Uiso   1.00
O774   O     0.31910   0.83824   0.88523   0.00000  Uiso   1.00
Br775  Br    0.37564   0.94091   0.89616   0.00000  Uiso   1.00
Br776  Br    0.12436   0.72576   0.77052   0.00000  Uiso   1.00
Br777  Br    0.36721   0.72339   0.80821   0.00000  Uiso   1.00
Br778  Br    0.13279   0.94327   0.85844   0.00000  Uiso   1.00
Br779  Br    0.43805   0.68758   0.71304   0.00000  Uiso   1.00
Br780  Br    0.06195   0.97910   0.95361   0.00000  Uiso   1.00
Br781  Br    0.03456   0.99931   0.77456   0.00000  Uiso   1.00
Br782  Br    0.46544   0.66735   0.89209   0.00000  Uiso   1.00
C783   C     0.74847   0.73330   0.81782   0.00000  Uiso   1.00
C784   C     0.75153   0.93337   0.84884   0.00000  Uiso   1.00
C785   C     0.51582   0.73773   0.78649   0.00000  Uiso   1.00
C786   C     0.98418   0.92894   0.88016   0.00000  Uiso   1.00
C787   C     0.74767   0.67732   0.80911   0.00000  Uiso   1.00
C788   C     0.75234   0.98935   0.85755   0.00000  Uiso   1.00
C789   C     0.66470   0.83259   0.83390   0.00000  Uiso   1.00
C790   C     0.83530   0.83408   0.83277   0.00000  Uiso   1.00
C791   C     0.90880   0.88237   0.85525   0.00000  Uiso   1.00
C792   C     0.59120   0.78430   0.81141   0.00000  Uiso   1.00
C793   C     0.88344   0.83500   0.83155   0.00000  Uiso   1.00
C794   C     0.61656   0.83166   0.83511   0.00000  Uiso   1.00
C795   C     0.90321   0.78752   0.81071   0.00000  Uiso   1.00
C796   C     0.59679   0.87915   0.85595   0.00000  Uiso   1.00
C797   C     0.94951   0.78752   0.80581   0.00000  Uiso   1.00
C798   C     0.55049   0.87915   0.86085   0.00000  Uiso   1.00
C799   C     0.97639   0.83423   0.83231   0.00000  Uiso   1.00
C800   C     0.52361   0.83244   0.83435   0.00000  Uiso   1.00
C801   C     0.95609   0.88283   0.85557   0.00000  Uiso   1.00
C802   C     0.54391   0.78384   0.81109   0.00000  Uiso   1.00
C803   C     0.96983   0.74169   0.77706   0.00000  Uiso   1.00
C804   C     0.53017   0.92498   0.88960   0.00000  Uiso   1.00
Cu805  Cu    0.75501   0.83913   0.89479   0.00000  Uiso   1.00
Cu806  Cu    0.74500   0.82754   0.77187   0.00000  Uiso   1.00
H807   H     0.74331   0.98686   0.76240   0.00000  Uiso   1.00
H808   H     0.75669   0.67980   0.90427   0.00000  Uiso   1.00
H809   H     0.71518   0.79261   0.98287   0.00000  Uiso   1.00
H810   H     0.78482   0.87406   0.68379   0.00000  Uiso   1.00
N811   N     0.73745   0.81881   0.67951   0.00000  Uiso   1.00
N812   N     0.76256   0.84786   0.98716   0.00000  Uiso   1.00
O813   O     0.75326   0.76204   0.87326   0.00000  Uiso   1.00
O814   O     0.74675   0.90462   0.79341   0.00000  Uiso   1.00
O815   O     0.74480   0.75226   0.76945   0.00000  Uiso   1.00
O816   O     0.75520   0.91441   0.89721   0.00000  Uiso   1.00
O817   O     0.68936   0.83821   0.88524   0.00000  Uiso   1.00
O818   O     0.81065   0.82845   0.78143   0.00000  Uiso   1.00
O819   O     0.68090   0.82843   0.78143   0.00000  Uiso   1.00
O820   O     0.81910   0.83824   0.88523   0.00000  Uiso   1.00
Br821  Br    0.87564   0.94091   0.89616   0.00000  Uiso   1.00
Br822  Br    0.62436   0.72576   0.77052   0.00000  Uiso   1.00
Br823  Br    0.86721   0.72339   0.80821   0.00000  Uiso   1.00
Br824  Br    0.63279   0.94327   0.85844   0.00000  Uiso   1.00
Br825  Br    0.93805   0.68758   0.71304   0.00000  Uiso   1.00
Br826  Br    0.56195   0.97910   0.95361   0.00000  Uiso   1.00
Br827  Br    0.53456   0.99931   0.77456   0.00000  Uiso   1.00
Br828  Br    0.96544   0.66735   0.89209   0.00000  Uiso   1.00
loop_
_geom_bond_atom_site_label_1
_geom_bond_atom_site_label_2
_geom_bond_distance
_geom_bond_site_symmetry_2
_ccdc_geom_bond_type
C1     O31     1.295   .     A
C1     O33     1.287   .     A
C1     C5      1.426   .     S
C2     O34     1.287   .     A
C2     O32     1.295   .     A
C2     C6      1.426   .     S
C3     C20     1.422   .     A
C3     C67     1.394   1_455 S
C3     Br229   1.938   1_545 S
C4     C19     1.422   .     A
C4     C68     1.394   .     S
C4     Br138   1.938   .     S
C5     C190    1.326   1_545 S
C5     H209    1.088   1_545 S
C6     C97     1.326   .     S
C6     H118    1.088   .     S
C7     O37     1.293   .     A
C7     C12     1.450   .     S
C7     O35     1.297   .     A
C8     O38     1.293   .     A
C8     C11     1.450   .     S
C8     O36     1.297   .     A
C9     C11     1.402   .     A
C9     Br39    1.947   .     S
C9     C19     1.422   .     A
C10    C12     1.402   .     A
C10    Br40    1.947   .     S
C10    C20     1.422   .     A
C11    C13     1.393   .     A
C12    C14     1.393   .     A
C13    Br41    1.946   .     S
C13    C15     1.406   .     A
C14    C16     1.406   .     A
C14    Br42    1.946   .     S
C15    C21     1.409   .     A
C15    C17     1.421   .     A
C16    C18     1.421   .     A
C16    C22     1.409   .     A
C17    C19     1.434   .     A
C17    C64     1.421   .     S
C18    C20     1.434   .     A
C18    C63     1.421   1_455 S
C21    Br43    1.937   .     S
C21    C49     1.394   .     S
C22    Br44    1.937   .     S
C22    C50     1.394   1_455 S
Cu23   Cu24    2.698   .     S
Cu23   O38     1.957   .     S
Cu23   O34     1.949   .     S
Cu23   O35     1.969   .     S
Cu23   N30     2.027   .     S
Cu23   O31     1.955   .     S
Cu24   O32     1.955   .     S
Cu24   O33     1.949   .     S
Cu24   O37     1.957   .     S
Cu24   O36     1.969   .     S
Cu24   N29     2.027   .     S
H25    C97     1.088   .     S
H26    C190    1.088   1_545 S
H27    N305    1.029   .     S
H28    N582    1.029   1_554 S
N29    H579    1.029   1_554 S
N29    N582    1.303   1_554 S
N30    N305    1.303   .     S
N30    H304    1.029   .     S
Br45   C95     1.938   .     S
Br46   C188    1.938   1_545 S
C47    O77     1.295   .     A
C47    O79     1.287   .     A
C47    C51     1.426   .     S
C48    O80     1.287   .     A
C48    O78     1.295   .     A
C48    C52     1.426   .     S
C49    C66     1.422   .     A
C49    Br275   1.938   1_545 S
C50    C65     1.422   .     A
C50    C22     1.394   1_655 S
C50    Br184   1.938   .     S
C51    C236    1.326   1_545 S
C51    H255    1.088   1_545 S
C52    C143    1.326   .     S
C52    H164    1.088   .     S
C53    O83     1.293   .     A
C53    C58     1.450   .     S
C53    O81     1.297   .     A
C54    O84     1.293   .     A
C54    C57     1.450   .     S
C54    O82     1.297   .     A
C55    C57     1.402   .     A
C55    Br85    1.947   .     S
C55    C65     1.422   .     A
C56    C58     1.402   .     A
C56    Br86    1.947   .     S
C56    C66     1.422   .     A
C57    C59     1.393   .     A
C58    C60     1.393   .     A
C59    Br87    1.946   .     S
C59    C61     1.406   .     A
C60    C62     1.406   .     A
C60    Br88    1.946   .     S
C61    C67     1.409   .     A
C61    C63     1.421   .     A
C62    C64     1.421   .     A
C62    C68     1.409   .     A
C63    C65     1.434   .     A
C63    C18     1.421   1_655 S
C64    C66     1.434   .     A
C67    Br89    1.937   .     S
C67    C3      1.394   1_655 S
C68    Br90    1.937   .     S
Cu69   Cu70    2.698   .     S
Cu69   O84     1.957   .     S
Cu69   O80     1.949   .     S
Cu69   O81     1.969   .     S
Cu69   N76     2.027   .     S
Cu69   O77     1.955   .     S
Cu70   O78     1.955   .     S
Cu70   O79     1.949   .     S
Cu70   O83     1.957   .     S
Cu70   O82     1.969   .     S
Cu70   N75     2.027   .     S
H71    C143    1.088   .     S
H72    C236    1.088   1_545 S
H73    N351    1.029   .     S
H74    N628    1.029   1_554 S
N75    H625    1.029   1_554 S
N75    N628    1.303   1_554 S
N76    N351    1.303   .     S
N76    H350    1.029   .     S
Br91   C141    1.938   .     S
Br92   C234    1.938   1_545 S
C93    O123    1.295   .     A
C93    O125    1.287   .     A
C93    C97     1.426   .     S
C94    O126    1.287   .     A
C94    O124    1.295   .     A
C94    C98     1.426   .     S
C95    C112    1.422   .     A
C95    C159    1.394   1_455 S
C96    C111    1.422   .     A
C96    C160    1.394   .     S
C96    Br230   1.938   .     S
C98    C189    1.326   .     S
C98    H210    1.088   .     S
C99    O129    1.293   .     A
C99    C104    1.450   .     S
C99    O127    1.297   .     A
C100   O130    1.293   .     A
C100   C103    1.450   .     S
C100   O128    1.297   .     A
C101   C103    1.402   .     A
C101   Br131   1.947   .     S
C101   C111    1.422   .     A
C102   C104    1.402   .     A
C102   Br132   1.947   .     S
C102   C112    1.422   .     A
C103   C105    1.393   .     A
C104   C106    1.393   .     A
C105   Br133   1.946   .     S
C105   C107    1.406   .     A
C106   C108    1.406   .     A
C106   Br134   1.946   .     S
C107   C113    1.409   .     A
C107   C109    1.421   .     A
C108   C110    1.421   .     A
C108   C114    1.409   .     A
C109   C111    1.434   .     A
C109   C156    1.421   .     S
C110   C112    1.434   .     A
C110   C155    1.421   1_455 S
C113   Br135   1.937   .     S
C113   C141    1.394   .     S
C114   Br136   1.937   .     S
C114   C142    1.394   1_455 S
Cu115  Cu116   2.698   .     S
Cu115  O130    1.957   .     S
Cu115  O126    1.949   .     S
Cu115  O127    1.969   .     S
Cu115  N122    2.027   .     S
Cu115  O123    1.955   .     S
Cu116  O124    1.955   .     S
Cu116  O125    1.949   .     S
Cu116  O129    1.957   .     S
Cu116  O128    1.969   .     S
Cu116  N121    2.027   .     S
H117   C189    1.088   .     S
H119   N397    1.029   .     S
H120   N674    1.029   1_554 S
N121   H671    1.029   1_554 S
N121   N674    1.303   1_554 S
N122   N397    1.303   .     S
N122   H396    1.029   .     S
Br137  C187    1.938   .     S
C139   O169    1.295   .     A
C139   O171    1.287   .     A
C139   C143    1.426   .     S
C140   O172    1.287   .     A
C140   O170    1.295   .     A
C140   C144    1.426   .     S
C141   C158    1.422   .     A
C142   C157    1.422   .     A
C142   C114    1.394   1_655 S
C142   Br276   1.938   .     S
C144   C235    1.326   .     S
C144   H256    1.088   .     S
C145   O175    1.293   .     A
C145   C150    1.450   .     S
C145   O173    1.297   .     A
C146   O176    1.293   .     A
C146   C149    1.450   .     S
C146   O174    1.297   .     A
C147   C149    1.402   .     A
C147   Br177   1.947   .     S
C147   C157    1.422   .     A
C148   C150    1.402   .     A
C148   Br178   1.947   .     S
C148   C158    1.422   .     A
C149   C151    1.393   .     A
C150   C152    1.393   .     A
C151   Br179   1.946   .     S
C151   C153    1.406   .     A
C152   C154    1.406   .     A
C152   Br180   1.946   .     S
C153   C159    1.409   .     A
C153   C155    1.421   .     A
C154   C156    1.421   .     A
C154   C160    1.409   .     A
C155   C157    1.434   .     A
C155   C110    1.421   1_655 S
C156   C158    1.434   .     A
C159   Br181   1.937   .     S
C159   C95     1.394   1_655 S
C160   Br182   1.937   .     S
Cu161  Cu162   2.698   .     S
Cu161  O176    1.957   .     S
Cu161  O172    1.949   .     S
Cu161  O173    1.969   .     S
Cu161  N168    2.027   .     S
Cu161  O169    1.955   .     S
Cu162  O170    1.955   .     S
Cu162  O171    1.949   .     S
Cu162  O175    1.957   .     S
Cu162  O174    1.969   .     S
Cu162  N167    2.027   .     S
H163   C235    1.088   .     S
H165   N443    1.029   .     S
H166   N720    1.029   1_554 S
N167   H717    1.029   1_554 S
N167   N720    1.303   1_554 S
N168   N443    1.303   .     S
N168   H442    1.029   .     S
Br183  C233    1.938   .     S
C185   O215    1.295   .     A
C185   O217    1.287   .     A
C185   C189    1.426   .     S
C186   O218    1.287   .     A
C186   O216    1.295   .     A
C186   C190    1.426   .     S
C187   C204    1.422   .     A
C187   C251    1.394   1_455 S
C188   C203    1.422   .     A
C188   C252    1.394   .     S
C188   Br46    1.938   1_565 S
C190   C5      1.326   1_565 S
C190   H26     1.088   1_565 S
C191   O221    1.293   .     A
C191   C196    1.450   .     S
C191   O219    1.297   .     A
C192   O222    1.293   .     A
C192   C195    1.450   .     S
C192   O220    1.297   .     A
C193   C195    1.402   .     A
C193   Br223   1.947   .     S
C193   C203    1.422   .     A
C194   C196    1.402   .     A
C194   Br224   1.947   .     S
C194   C204    1.422   .     A
C195   C197    1.393   .     A
C196   C198    1.393   .     A
C197   Br225   1.946   .     S
C197   C199    1.406   .     A
C198   C200    1.406   .     A
C198   Br226   1.946   .     S
C199   C205    1.409   .     A
C199   C201    1.421   .     A
C200   C202    1.421   .     A
C200   C206    1.409   .     A
C201   C203    1.434   .     A
C201   C248    1.421   .     S
C202   C204    1.434   .     A
C202   C247    1.421   1_455 S
C205   Br227   1.937   .     S
C205   C233    1.394   .     S
C206   Br228   1.937   .     S
C206   C234    1.394   1_455 S
Cu207  Cu208   2.698   .     S
Cu207  O222    1.957   .     S
Cu207  O218    1.949   .     S
Cu207  O219    1.969   .     S
Cu207  N214    2.027   .     S
Cu207  O215    1.955   .     S
Cu208  O216    1.955   .     S
Cu208  O217    1.949   .     S
Cu208  O221    1.957   .     S
Cu208  O220    1.969   .     S
Cu208  N213    2.027   .     S
H209   C5      1.088   1_565 S
H211   N489    1.029   .     S
H212   N766    1.029   1_554 S
N213   H763    1.029   1_554 S
N213   N766    1.303   1_554 S
N214   N489    1.303   .     S
N214   H488    1.029   .     S
Br229  C3      1.938   1_565 S
C231   O261    1.295   .     A
C231   O263    1.287   .     A
C231   C235    1.426   .     S
C232   O264    1.287   .     A
C232   O262    1.295   .     A
C232   C236    1.426   .     S
C233   C250    1.422   .     A
C234   C249    1.422   .     A
C234   C206    1.394   1_655 S
C234   Br92    1.938   1_565 S
C236   C51     1.326   1_565 S
C236   H72     1.088   1_565 S
C237   O267    1.293   .     A
C237   C242    1.450   .     S
C237   O265    1.297   .     A
C238   O268    1.293   .     A
C238   C241    1.450   .     S
C238   O266    1.297   .     A
C239   C241    1.402   .     A
C239   Br269   1.947   .     S
C239   C249    1.422   .     A
C240   C242    1.402   .     A
C240   Br270   1.947   .     S
C240   C250    1.422   .     A
C241   C243    1.393   .     A
C242   C244    1.393   .     A
C243   Br271   1.946   .     S
C243   C245    1.406   .     A
C244   C246    1.406   .     A
C244   Br272   1.946   .     S
C245   C251    1.409   .     A
C245   C247    1.421   .     A
C246   C248    1.421   .     A
C246   C252    1.409   .     A
C247   C249    1.434   .     A
C247   C202    1.421   1_655 S
C248   C250    1.434   .     A
C251   Br273   1.937   .     S
C251   C187    1.394   1_655 S
C252   Br274   1.937   .     S
Cu253  Cu254   2.698   .     S
Cu253  O268    1.957   .     S
Cu253  O264    1.949   .     S
Cu253  O265    1.969   .     S
Cu253  N260    2.027   .     S
Cu253  O261    1.955   .     S
Cu254  O262    1.955   .     S
Cu254  O263    1.949   .     S
Cu254  O267    1.957   .     S
Cu254  O266    1.969   .     S
Cu254  N259    2.027   .     S
H255   C51     1.088   1_565 S
H257   N535    1.029   .     S
H258   N812    1.029   1_554 S
N259   H809    1.029   1_554 S
N259   N812    1.303   1_554 S
N260   N535    1.303   .     S
N260   H534    1.029   .     S
Br275  C49     1.938   1_565 S
C277   O307    1.295   .     A
C277   O309    1.287   .     A
C277   C281    1.426   .     S
C278   O310    1.287   .     A
C278   O308    1.295   .     A
C278   C282    1.426   .     S
C279   C296    1.422   .     A
C279   C343    1.394   1_455 S
C279   Br505   1.938   1_545 S
C280   C295    1.422   .     A
C280   C344    1.394   .     S
C280   Br414   1.938   .     S
C281   C466    1.326   1_545 S
C281   H485    1.088   1_545 S
C282   C373    1.326   .     S
C282   H394    1.088   .     S
C283   O313    1.293   .     A
C283   C288    1.450   .     S
C283   O311    1.297   .     A
C284   O314    1.293   .     A
C284   C287    1.450   .     S
C284   O312    1.297   .     A
C285   C287    1.402   .     A
C285   Br315   1.947   .     S
C285   C295    1.422   .     A
C286   C288    1.402   .     A
C286   Br316   1.947   .     S
C286   C296    1.422   .     A
C287   C289    1.393   .     A
C288   C290    1.393   .     A
C289   Br317   1.946   .     S
C289   C291    1.406   .     A
C290   C292    1.406   .     A
C290   Br318   1.946   .     S
C291   C297    1.409   .     A
C291   C293    1.421   .     A
C292   C294    1.421   .     A
C292   C298    1.409   .     A
C293   C295    1.434   .     A
C293   C340    1.421   .     S
C294   C296    1.434   .     A
C294   C339    1.421   1_455 S
C297   Br319   1.937   .     S
C297   C325    1.394   .     S
C298   Br320   1.937   .     S
C298   C326    1.394   1_455 S
Cu299  Cu300   2.698   .     S
Cu299  O314    1.957   .     S
Cu299  O310    1.949   .     S
Cu299  O311    1.969   .     S
Cu299  N306    2.027   .     S
Cu299  O307    1.955   .     S
Cu300  O308    1.955   .     S
Cu300  O309    1.949   .     S
Cu300  O313    1.957   .     S
Cu300  O312    1.969   .     S
Cu300  N305    2.027   .     S
H301   C373    1.088   .     S
H302   C466    1.088   1_545 S
H303   N581    1.029   .     S
N306   N581    1.303   .     S
N306   H580    1.029   .     S
Br321  C371    1.938   .     S
Br322  C464    1.938   1_545 S
C323   O353    1.295   .     A
C323   O355    1.287   .     A
C323   C327    1.426   .     S
C324   O356    1.287   .     A
C324   O354    1.295   .     A
C324   C328    1.426   .     S
C325   C342    1.422   .     A
C325   Br551   1.938   1_545 S
C326   C341    1.422   .     A
C326   C298    1.394   1_655 S
C326   Br460   1.938   .     S
C327   C512    1.326   1_545 S
C327   H531    1.088   1_545 S
C328   C419    1.326   .     S
C328   H440    1.088   .     S
C329   O359    1.293   .     A
C329   C334    1.450   .     S
C329   O357    1.297   .     A
C330   O360    1.293   .     A
C330   C333    1.450   .     S
C330   O358    1.297   .     A
C331   C333    1.402   .     A
C331   Br361   1.947   .     S
C331   C341    1.422   .     A
C332   C334    1.402   .     A
C332   Br362   1.947   .     S
C332   C342    1.422   .     A
C333   C335    1.393   .     A
C334   C336    1.393   .     A
C335   Br363   1.946   .     S
C335   C337    1.406   .     A
C336   C338    1.406   .     A
C336   Br364   1.946   .     S
C337   C343    1.409   .     A
C337   C339    1.421   .     A
C338   C340    1.421   .     A
C338   C344    1.409   .     A
C339   C341    1.434   .     A
C339   C294    1.421   1_655 S
C340   C342    1.434   .     A
C343   Br365   1.937   .     S
C343   C279    1.394   1_655 S
C344   Br366   1.937   .     S
Cu345  Cu346   2.698   .     S
Cu345  O360    1.957   .     S
Cu345  O356    1.949   .     S
Cu345  O357    1.969   .     S
Cu345  N352    2.027   .     S
Cu345  O353    1.955   .     S
Cu346  O354    1.955   .     S
Cu346  O355    1.949   .     S
Cu346  O359    1.957   .     S
Cu346  O358    1.969   .     S
Cu346  N351    2.027   .     S
H347   C419    1.088   .     S
H348   C512    1.088   1_545 S
H349   N627    1.029   .     S
N352   N627    1.303   .     S
N352   H626    1.029   .     S
Br367  C417    1.938   .     S
Br368  C510    1.938   1_545 S
C369   O399    1.295   .     A
C369   O401    1.287   .     A
C369   C373    1.426   .     S
C370   O402    1.287   .     A
C370   O400    1.295   .     A
C370   C374    1.426   .     S
C371   C388    1.422   .     A
C371   C435    1.394   1_455 S
C372   C387    1.422   .     A
C372   C436    1.394   .     S
C372   Br506   1.938   .     S
C374   C465    1.326   .     S
C374   H486    1.088   .     S
C375   O405    1.293   .     A
C375   C380    1.450   .     S
C375   O403    1.297   .     A
C376   O406    1.293   .     A
C376   C379    1.450   .     S
C376   O404    1.297   .     A
C377   C379    1.402   .     A
C377   Br407   1.947   .     S
C377   C387    1.422   .     A
C378   C380    1.402   .     A
C378   Br408   1.947   .     S
C378   C388    1.422   .     A
C379   C381    1.393   .     A
C380   C382    1.393   .     A
C381   Br409   1.946   .     S
C381   C383    1.406   .     A
C382   C384    1.406   .     A
C382   Br410   1.946   .     S
C383   C389    1.409   .     A
C383   C385    1.421   .     A
C384   C386    1.421   .     A
C384   C390    1.409   .     A
C385   C387    1.434   .     A
C385   C432    1.421   .     S
C386   C388    1.434   .     A
C386   C431    1.421   1_455 S
C389   Br411   1.937   .     S
C389   C417    1.394   .     S
C390   Br412   1.937   .     S
C390   C418    1.394   1_455 S
Cu391  Cu392   2.698   .     S
Cu391  O406    1.957   .     S
Cu391  O402    1.949   .     S
Cu391  O403    1.969   .     S
Cu391  N398    2.027   .     S
Cu391  O399    1.955   .     S
Cu392  O400    1.955   .     S
Cu392  O401    1.949   .     S
Cu392  O405    1.957   .     S
Cu392  O404    1.969   .     S
Cu392  N397    2.027   .     S
H393   C465    1.088   .     S
H395   N673    1.029   .     S
N398   N673    1.303   .     S
N398   H672    1.029   .     S
Br413  C463    1.938   .     S
C415   O445    1.295   .     A
C415   O447    1.287   .     A
C415   C419    1.426   .     S
C416   O448    1.287   .     A
C416   O446    1.295   .     A
C416   C420    1.426   .     S
C417   C434    1.422   .     A
C418   C433    1.422   .     A
C418   C390    1.394   1_655 S
C418   Br552   1.938   .     S
C420   C511    1.326   .     S
C420   H532    1.088   .     S
C421   O451    1.293   .     A
C421   C426    1.450   .     S
C421   O449    1.297   .     A
C422   O452    1.293   .     A
C422   C425    1.450   .     S
C422   O450    1.297   .     A
C423   C425    1.402   .     A
C423   Br453   1.947   .     S
C423   C433    1.422   .     A
C424   C426    1.402   .     A
C424   Br454   1.947   .     S
C424   C434    1.422   .     A
C425   C427    1.393   .     A
C426   C428    1.393   .     A
C427   Br455   1.946   .     S
C427   C429    1.406   .     A
C428   C430    1.406   .     A
C428   Br456   1.946   .     S
C429   C435    1.409   .     A
C429   C431    1.421   .     A
C430   C432    1.421   .     A
C430   C436    1.409   .     A
C431   C433    1.434   .     A
C431   C386    1.421   1_655 S
C432   C434    1.434   .     A
C435   Br457   1.937   .     S
C435   C371    1.394   1_655 S
C436   Br458   1.937   .     S
Cu437  Cu438   2.698   .     S
Cu437  O452    1.957   .     S
Cu437  O448    1.949   .     S
Cu437  O449    1.969   .     S
Cu437  N444    2.027   .     S
Cu437  O445    1.955   .     S
Cu438  O446    1.955   .     S
Cu438  O447    1.949   .     S
Cu438  O451    1.957   .     S
Cu438  O450    1.969   .     S
Cu438  N443    2.027   .     S
H439   C511    1.088   .     S
H441   N719    1.029   .     S
N444   N719    1.303   .     S
N444   H718    1.029   .     S
Br459  C509    1.938   .     S
C461   O491    1.295   .     A
C461   O493    1.287   .     A
C461   C465    1.426   .     S
C462   O494    1.287   .     A
C462   O492    1.295   .     A
C462   C466    1.426   .     S
C463   C480    1.422   .     A
C463   C527    1.394   1_455 S
C464   C479    1.422   .     A
C464   C528    1.394   .     S
C464   Br322   1.938   1_565 S
C466   C281    1.326   1_565 S
C466   H302    1.088   1_565 S
C467   O497    1.293   .     A
C467   C472    1.450   .     S
C467   O495    1.297   .     A
C468   O498    1.293   .     A
C468   C471    1.450   .     S
C468   O496    1.297   .     A
C469   C471    1.402   .     A
C469   Br499   1.947   .     S
C469   C479    1.422   .     A
C470   C472    1.402   .     A
C470   Br500   1.947   .     S
C470   C480    1.422   .     A
C471   C473    1.393   .     A
C472   C474    1.393   .     A
C473   Br501   1.946   .     S
C473   C475    1.406   .     A
C474   C476    1.406   .     A
C474   Br502   1.946   .     S
C475   C481    1.409   .     A
C475   C477    1.421   .     A
C476   C478    1.421   .     A
C476   C482    1.409   .     A
C477   C479    1.434   .     A
C477   C524    1.421   .     S
C478   C480    1.434   .     A
C478   C523    1.421   1_455 S
C481   Br503   1.937   .     S
C481   C509    1.394   .     S
C482   Br504   1.937   .     S
C482   C510    1.394   1_455 S
Cu483  Cu484   2.698   .     S
Cu483  O498    1.957   .     S
Cu483  O494    1.949   .     S
Cu483  O495    1.969   .     S
Cu483  N490    2.027   .     S
Cu483  O491    1.955   .     S
Cu484  O492    1.955   .     S
Cu484  O493    1.949   .     S
Cu484  O497    1.957   .     S
Cu484  O496    1.969   .     S
Cu484  N489    2.027   .     S
H485   C281    1.088   1_565 S
H487   N765    1.029   .     S
N490   N765    1.303   .     S
N490   H764    1.029   .     S
Br505  C279    1.938   1_565 S
C507   O537    1.295   .     A
C507   O539    1.287   .     A
C507   C511    1.426   .     S
C508   O540    1.287   .     A
C508   O538    1.295   .     A
C508   C512    1.426   .     S
C509   C526    1.422   .     A
C510   C525    1.422   .     A
C510   C482    1.394   1_655 S
C510   Br368   1.938   1_565 S
C512   C327    1.326   1_565 S
C512   H348    1.088   1_565 S
C513   O543    1.293   .     A
C513   C518    1.450   .     S
C513   O541    1.297   .     A
C514   O544    1.293   .     A
C514   C517    1.450   .     S
C514   O542    1.297   .     A
C515   C517    1.402   .     A
C515   Br545   1.947   .     S
C515   C525    1.422   .     A
C516   C518    1.402   .     A
C516   Br546   1.947   .     S
C516   C526    1.422   .     A
C517   C519    1.393   .     A
C518   C520    1.393   .     A
C519   Br547   1.946   .     S
C519   C521    1.406   .     A
C520   C522    1.406   .     A
C520   Br548   1.946   .     S
C521   C527    1.409   .     A
C521   C523    1.421   .     A
C522   C524    1.421   .     A
C522   C528    1.409   .     A
C523   C525    1.434   .     A
C523   C478    1.421   1_655 S
C524   C526    1.434   .     A
C527   Br549   1.937   .     S
C527   C463    1.394   1_655 S
C528   Br550   1.937   .     S
Cu529  Cu530   2.698   .     S
Cu529  O544    1.957   .     S
Cu529  O540    1.949   .     S
Cu529  O541    1.969   .     S
Cu529  N536    2.027   .     S
Cu529  O537    1.955   .     S
Cu530  O538    1.955   .     S
Cu530  O539    1.949   .     S
Cu530  O543    1.957   .     S
Cu530  O542    1.969   .     S
Cu530  N535    2.027   .     S
H531   C327    1.088   1_565 S
H533   N811    1.029   .     S
N536   N811    1.303   .     S
N536   H810    1.029   .     S
Br551  C325    1.938   1_565 S
C553   O583    1.295   .     A
C553   O585    1.287   .     A
C553   C557    1.426   .     S
C554   O586    1.287   .     A
C554   O584    1.295   .     A
C554   C558    1.426   .     S
C555   C572    1.422   .     A
C555   C619    1.394   1_455 S
C555   Br781   1.938   1_545 S
C556   C571    1.422   .     A
C556   C620    1.394   .     S
C556   Br690   1.938   .     S
C557   C742    1.326   1_545 S
C557   H761    1.088   1_545 S
C558   C649    1.326   .     S
C558   H670    1.088   .     S
C559   O589    1.293   .     A
C559   C564    1.450   .     S
C559   O587    1.297   .     A
C560   O590    1.293   .     A
C560   C563    1.450   .     S
C560   O588    1.297   .     A
C561   C563    1.402   .     A
C561   Br591   1.947   .     S
C561   C571    1.422   .     A
C562   C564    1.402   .     A
C562   Br592   1.947   .     S
C562   C572    1.422   .     A
C563   C565    1.393   .     A
C564   C566    1.393   .     A
C565   Br593   1.946   .     S
C565   C567    1.406   .     A
C566   C568    1.406   .     A
C566   Br594   1.946   .     S
C567   C573    1.409   .     A
C567   C569    1.421   .     A
C568   C570    1.421   .     A
C568   C574    1.409   .     A
C569   C571    1.434   .     A
C569   C616    1.421   .     S
C570   C572    1.434   .     A
C570   C615    1.421   1_455 S
C573   Br595   1.937   .     S
C573   C601    1.394   .     S
C574   Br596   1.937   .     S
C574   C602    1.394   1_455 S
Cu575  Cu576   2.698   .     S
Cu575  O590    1.957   .     S
Cu575  O586    1.949   .     S
Cu575  O587    1.969   .     S
Cu575  N582    2.027   .     S
Cu575  O583    1.955   .     S
Cu576  O584    1.955   .     S
Cu576  O585    1.949   .     S
Cu576  O589    1.957   .     S
Cu576  O588    1.969   .     S
Cu576  N581    2.027   .     S
H577   C649    1.088   .     S
H578   C742    1.088   1_545 S
H579   N29     1.029   1_556 S
N582   N29     1.303   1_556 S
N582   H28     1.029   1_556 S
Br597  C647    1.938   .     S
Br598  C740    1.938   1_545 S
C599   O629    1.295   .     A
C599   O631    1.287   .     A
C599   C603    1.426   .     S
C600   O632    1.287   .     A
C600   O630    1.295   .     A
C600   C604    1.426   .     S
C601   C618    1.422   .     A
C601   Br827   1.938   1_545 S
C602   C617    1.422   .     A
C602   C574    1.394   1_655 S
C602   Br736   1.938   .     S
C603   C788    1.326   1_545 S
C603   H807    1.088   1_545 S
C604   C695    1.326   .     S
C604   H716    1.088   .     S
C605   O635    1.293   .     A
C605   C610    1.450   .     S
C605   O633    1.297   .     A
C606   O636    1.293   .     A
C606   C609    1.450   .     S
C606   O634    1.297   .     A
C607   C609    1.402   .     A
C607   Br637   1.947   .     S
C607   C617    1.422   .     A
C608   C610    1.402   .     A
C608   Br638   1.947   .     S
C608   C618    1.422   .     A
C609   C611    1.393   .     A
C610   C612    1.393   .     A
C611   Br639   1.946   .     S
C611   C613    1.406   .     A
C612   C614    1.406   .     A
C612   Br640   1.946   .     S
C613   C619    1.409   .     A
C613   C615    1.421   .     A
C614   C616    1.421   .     A
C614   C620    1.409   .     A
C615   C617    1.434   .     A
C615   C570    1.421   1_655 S
C616   C618    1.434   .     A
C619   Br641   1.937   .     S
C619   C555    1.394   1_655 S
C620   Br642   1.937   .     S
Cu621  Cu622   2.698   .     S
Cu621  O636    1.957   .     S
Cu621  O632    1.949   .     S
Cu621  O633    1.969   .     S
Cu621  N628    2.027   .     S
Cu621  O629    1.955   .     S
Cu622  O630    1.955   .     S
Cu622  O631    1.949   .     S
Cu622  O635    1.957   .     S
Cu622  O634    1.969   .     S
Cu622  N627    2.027   .     S
H623   C695    1.088   .     S
H624   C788    1.088   1_545 S
H625   N75     1.029   1_556 S
N628   N75     1.303   1_556 S
N628   H74     1.029   1_556 S
Br643  C693    1.938   .     S
Br644  C786    1.938   1_545 S
C645   O675    1.295   .     A
C645   O677    1.287   .     A
C645   C649    1.426   .     S
C646   O678    1.287   .     A
C646   O676    1.295   .     A
C646   C650    1.426   .     S
C647   C664    1.422   .     A
C647   C711    1.394   1_455 S
C648   C663    1.422   .     A
C648   C712    1.394   .     S
C648   Br782   1.938   .     S
C650   C741    1.326   .     S
C650   H762    1.088   .     S
C651   O681    1.293   .     A
C651   C656    1.450   .     S
C651   O679    1.297   .     A
C652   O682    1.293   .     A
C652   C655    1.450   .     S
C652   O680    1.297   .     A
C653   C655    1.402   .     A
C653   Br683   1.947   .     S
C653   C663    1.422   .     A
C654   C656    1.402   .     A
C654   Br684   1.947   .     S
C654   C664    1.422   .     A
C655   C657    1.393   .     A
C656   C658    1.393   .     A
C657   Br685   1.946   .     S
C657   C659    1.406   .     A
C658   C660    1.406   .     A
C658   Br686   1.946   .     S
C659   C665    1.409   .     A
C659   C661    1.421   .     A
C660   C662    1.421   .     A
C660   C666    1.409   .     A
C661   C663    1.434   .     A
C661   C708    1.421   .     S
C662   C664    1.434   .     A
C662   C707    1.421   1_455 S
C665   Br687   1.937   .     S
C665   C693    1.394   .     S
C666   Br688   1.937   .     S
C666   C694    1.394   1_455 S
Cu667  Cu668   2.698   .     S
Cu667  O682    1.957   .     S
Cu667  O678    1.949   .     S
Cu667  O679    1.969   .     S
Cu667  N674    2.027   .     S
Cu667  O675    1.955   .     S
Cu668  O676    1.955   .     S
Cu668  O677    1.949   .     S
Cu668  O681    1.957   .     S
Cu668  O680    1.969   .     S
Cu668  N673    2.027   .     S
H669   C741    1.088   .     S
H671   N121    1.029   1_556 S
N674   N121    1.303   1_556 S
N674   H120    1.029   1_556 S
Br689  C739    1.938   .     S
C691   O721    1.295   .     A
C691   O723    1.287   .     A
C691   C695    1.426   .     S
C692   O724    1.287   .     A
C692   O722    1.295   .     A
C692   C696    1.426   .     S
C693   C710    1.422   .     A
C694   C709    1.422   .     A
C694   C666    1.394   1_655 S
C694   Br828   1.938   .     S
C696   C787    1.326   .     S
C696   H808    1.088   .     S
C697   O727    1.293   .     A
C697   C702    1.450   .     S
C697   O725    1.297   .     A
C698   O728    1.293   .     A
C698   C701    1.450   .     S
C698   O726    1.297   .     A
C699   C701    1.402   .     A
C699   Br729   1.947   .     S
C699   C709    1.422   .     A
C700   C702    1.402   .     A
C700   Br730   1.947   .     S
C700   C710    1.422   .     A
C701   C703    1.393   .     A
C702   C704    1.393   .     A
C703   Br731   1.946   .     S
C703   C705    1.406   .     A
C704   C706    1.406   .     A
C704   Br732   1.946   .     S
C705   C711    1.409   .     A
C705   C707    1.421   .     A
C706   C708    1.421   .     A
C706   C712    1.409   .     A
C707   C709    1.434   .     A
C707   C662    1.421   1_655 S
C708   C710    1.434   .     A
C711   Br733   1.937   .     S
C711   C647    1.394   1_655 S
C712   Br734   1.937   .     S
Cu713  Cu714   2.698   .     S
Cu713  O728    1.957   .     S
Cu713  O724    1.949   .     S
Cu713  O725    1.969   .     S
Cu713  N720    2.027   .     S
Cu713  O721    1.955   .     S
Cu714  O722    1.955   .     S
Cu714  O723    1.949   .     S
Cu714  O727    1.957   .     S
Cu714  O726    1.969   .     S
Cu714  N719    2.027   .     S
H715   C787    1.088   .     S
H717   N167    1.029   1_556 S
N720   N167    1.303   1_556 S
N720   H166    1.029   1_556 S
Br735  C785    1.938   .     S
C737   O767    1.295   .     A
C737   O769    1.287   .     A
C737   C741    1.426   .     S
C738   O770    1.287   .     A
C738   O768    1.295   .     A
C738   C742    1.426   .     S
C739   C756    1.422   .     A
C739   C803    1.394   1_455 S
C740   C755    1.422   .     A
C740   C804    1.394   .     S
C740   Br598   1.938   1_565 S
C742   C557    1.326   1_565 S
C742   H578    1.088   1_565 S
C743   O773    1.293   .     A
C743   C748    1.450   .     S
C743   O771    1.297   .     A
C744   O774    1.293   .     A
C744   C747    1.450   .     S
C744   O772    1.297   .     A
C745   C747    1.402   .     A
C745   Br775   1.947   .     S
C745   C755    1.422   .     A
C746   C748    1.402   .     A
C746   Br776   1.947   .     S
C746   C756    1.422   .     A
C747   C749    1.393   .     A
C748   C750    1.393   .     A
C749   Br777   1.946   .     S
C749   C751    1.406   .     A
C750   C752    1.406   .     A
C750   Br778   1.946   .     S
C751   C757    1.409   .     A
C751   C753    1.421   .     A
C752   C754    1.421   .     A
C752   C758    1.409   .     A
C753   C755    1.434   .     A
C753   C800    1.421   .     S
C754   C756    1.434   .     A
C754   C799    1.421   1_455 S
C757   Br779   1.937   .     S
C757   C785    1.394   .     S
C758   Br780   1.937   .     S
C758   C786    1.394   1_455 S
Cu759  Cu760   2.698   .     S
Cu759  O774    1.957   .     S
Cu759  O770    1.949   .     S
Cu759  O771    1.969   .     S
Cu759  N766    2.027   .     S
Cu759  O767    1.955   .     S
Cu760  O768    1.955   .     S
Cu760  O769    1.949   .     S
Cu760  O773    1.957   .     S
Cu760  O772    1.969   .     S
Cu760  N765    2.027   .     S
H761   C557    1.088   1_565 S
H763   N213    1.029   1_556 S
N766   N213    1.303   1_556 S
N766   H212    1.029   1_556 S
Br781  C555    1.938   1_565 S
C783   O813    1.295   .     A
C783   O815    1.287   .     A
C783   C787    1.426   .     S
C784   O816    1.287   .     A
C784   O814    1.295   .     A
C784   C788    1.426   .     S
C785   C802    1.422   .     A
C786   C801    1.422   .     A
C786   C758    1.394   1_655 S
C786   Br644   1.938   1_565 S
C788   C603    1.326   1_565 S
C788   H624    1.088   1_565 S
C789   O819    1.293   .     A
C789   C794    1.450   .     S
C789   O817    1.297   .     A
C790   O820    1.293   .     A
C790   C793    1.450   .     S
C790   O818    1.297   .     A
C791   C793    1.402   .     A
C791   Br821   1.947   .     S
C791   C801    1.422   .     A
C792   C794    1.402   .     A
C792   Br822   1.947   .     S
C792   C802    1.422   .     A
C793   C795    1.393   .     A
C794   C796    1.393   .     A
C795   Br823   1.946   .     S
C795   C797    1.406   .     A
C796   C798    1.406   .     A
C796   Br824   1.946   .     S
C797   C803    1.409   .     A
C797   C799    1.421   .     A
C798   C800    1.421   .     A
C798   C804    1.409   .     A
C799   C801    1.434   .     A
C799   C754    1.421   1_655 S
C800   C802    1.434   .     A
C803   Br825   1.937   .     S
C803   C739    1.394   1_655 S
C804   Br826   1.937   .     S
Cu805  Cu806   2.698   .     S
Cu805  O820    1.957   .     S
Cu805  O816    1.949   .     S
Cu805  O817    1.969   .     S
Cu805  N812    2.027   .     S
Cu805  O813    1.955   .     S
Cu806  O814    1.955   .     S
Cu806  O815    1.949   .     S
Cu806  O819    1.957   .     S
Cu806  O818    1.969   .     S
Cu806  N811    2.027   .     S
H807   C603    1.088   1_565 S
H809   N259    1.029   1_556 S
N812   N259    1.303   1_556 S
N812   H258    1.029   1_556 S
Br827  C601    1.938   1_565 S
