data_str_m3_o10_o16_pcu_sym.42
_audit_creation_date              2020-01-03
_audit_creation_method            'Materials Studio'
_symmetry_space_group_name_H-M    'P1'
_symmetry_Int_Tables_number       1
_symmetry_cell_setting            triclinic
loop_
_symmetry_equiv_pos_as_xyz
  x,y,z
_cell_length_a                    23.4177
_cell_length_b                    25.7057
_cell_length_c                    25.2079
_cell_angle_alpha                 92.4593
_cell_angle_beta                  102.5654
_cell_angle_gamma                 93.9126
loop_
_atom_site_label
_atom_site_type_symbol
_atom_site_fract_x
_atom_site_fract_y
_atom_site_fract_z
_atom_site_U_iso_or_equiv
_atom_site_adp_type
_atom_site_occupancy
C1     C     0.01364   0.26464   0.24522   0.00000  Uiso   1.00
C2     C     0.06367   0.19697   0.41020   0.00000  Uiso   1.00
C3     C     0.01616   0.31741   0.23116   0.00000  Uiso   1.00
C4     C     0.03829   0.17747   0.35349   0.00000  Uiso   1.00
C5     C     0.30959   0.01358   0.24631   0.00000  Uiso   1.00
C6     C     0.31751   0.06840   0.24796   0.00000  Uiso   1.00
C7     C     0.29656   0.16231   0.14602   0.00000  Uiso   1.00
C8     C     0.28511   0.13455   0.49787   0.00000  Uiso   1.00
C9     C     0.27544   0.15915   0.08812   0.00000  Uiso   1.00
C10    C     0.02791   0.21802   0.44207   0.00000  Uiso   1.00
C11    C     0.04913   0.22814   0.49777   0.00000  Uiso   1.00
C12    C     0.14294   0.19564   0.49063   0.00000  Uiso   1.00
C13    C     0.10483   0.21447   0.02252   0.00000  Uiso   1.00
C14    C     0.05666   0.00070   0.19548   0.00000  Uiso   1.00
C15    C     0.12400   0.19364   0.43369   0.00000  Uiso   1.00
C16    C     0.19888   0.17787   0.01244   0.00000  Uiso   1.00
C17    C     0.23298   0.15748   0.47723   0.00000  Uiso   1.00
C18    C     0.21687   0.16409   0.42216   0.00000  Uiso   1.00
C19    C     0.16625   0.18755   0.40223   0.00000  Uiso   1.00
C20    C     0.22195   0.17934   0.06783   0.00000  Uiso   1.00
C21    C     0.30660   0.13558   0.05358   0.00000  Uiso   1.00
H22    H     0.01437   0.11894   0.06954   0.00000  Uiso   1.00
H23    H     0.02097   0.24379   0.02234   0.00000  Uiso   1.00
H24    H     0.16147   0.20172   0.36246   0.00000  Uiso   1.00
H25    H     0.13649   0.33116   0.17786   0.00000  Uiso   1.00
H26    H     0.27561   0.33138   0.26597   0.00000  Uiso   1.00
H27    H     0.15716   0.12197   0.21333   0.00000  Uiso   1.00
H28    H     0.17618   0.21369   0.28289   0.00000  Uiso   1.00
H29    H     0.24472   0.15362   0.39501   0.00000  Uiso   1.00
H30    H     0.31032   0.11790   0.47097   0.00000  Uiso   1.00
H31    H     0.19972   0.19727   0.09609   0.00000  Uiso   1.00
H32    H     0.31679   0.22624   0.42406   0.00000  Uiso   1.00
H33    H     0.11641   0.21941   0.06627   0.00000  Uiso   1.00
N34    N     0.14493   0.15223   0.23543   0.00000  Uiso   1.00
N35    N     0.18840   0.18110   0.26458   0.00000  Uiso   1.00
O36    O     0.29769   0.24629   0.25358   0.00000  Uiso   1.00
O37    O     0.11355   0.31764   0.20490   0.00000  Uiso   1.00
O38    O     0.05742   0.23704   0.24424   0.00000  Uiso   1.00
O39    O     0.31490   0.17358   0.33380   0.00000  Uiso   1.00
O40    O     0.07463   0.16433   0.32446   0.00000  Uiso   1.00
O41    O     0.27592   0.09629   0.25577   0.00000  Uiso   1.00
O42    O     0.03565   0.08704   0.24643   0.00000  Uiso   1.00
O43    O     0.25870   0.16901   0.17554   0.00000  Uiso   1.00
O44    O     0.01843   0.15976   0.16620   0.00000  Uiso   1.00
O45    O     0.03959   0.02761   0.15718   0.00000  Uiso   1.00
Zn46   Zn    0.27119   0.17284   0.25624   0.00000  Uiso   1.00
Zn47   Zn    0.06214   0.16049   0.24377   0.00000  Uiso   1.00
C48    C     0.34697   0.26464   0.24522   0.00000  Uiso   1.00
C49    C     0.39701   0.19697   0.41020   0.00000  Uiso   1.00
C50    C     0.34950   0.31741   0.23116   0.00000  Uiso   1.00
C51    C     0.37162   0.17747   0.35349   0.00000  Uiso   1.00
C52    C     0.64293   0.01358   0.24631   0.00000  Uiso   1.00
C53    C     0.65084   0.06840   0.24796   0.00000  Uiso   1.00
C54    C     0.62989   0.16231   0.14602   0.00000  Uiso   1.00
C55    C     0.61844   0.13455   0.49787   0.00000  Uiso   1.00
C56    C     0.60877   0.15915   0.08812   0.00000  Uiso   1.00
C57    C     0.36125   0.21802   0.44207   0.00000  Uiso   1.00
C58    C     0.38246   0.22814   0.49777   0.00000  Uiso   1.00
C59    C     0.47627   0.19564   0.49063   0.00000  Uiso   1.00
C60    C     0.43817   0.21447   0.02252   0.00000  Uiso   1.00
C61    C     0.39000   0.00070   0.19548   0.00000  Uiso   1.00
C62    C     0.45733   0.19364   0.43369   0.00000  Uiso   1.00
C63    C     0.53221   0.17787   0.01244   0.00000  Uiso   1.00
C64    C     0.56631   0.15748   0.47723   0.00000  Uiso   1.00
C65    C     0.55021   0.16409   0.42216   0.00000  Uiso   1.00
C66    C     0.49958   0.18755   0.40223   0.00000  Uiso   1.00
C67    C     0.55528   0.17934   0.06783   0.00000  Uiso   1.00
C68    C     0.63993   0.13558   0.05358   0.00000  Uiso   1.00
H69    H     0.34770   0.11894   0.06954   0.00000  Uiso   1.00
H70    H     0.35431   0.24379   0.02234   0.00000  Uiso   1.00
H71    H     0.49480   0.20172   0.36246   0.00000  Uiso   1.00
H72    H     0.46982   0.33116   0.17786   0.00000  Uiso   1.00
H73    H     0.60894   0.33138   0.26597   0.00000  Uiso   1.00
H74    H     0.49049   0.12197   0.21333   0.00000  Uiso   1.00
H75    H     0.50952   0.21369   0.28289   0.00000  Uiso   1.00
H76    H     0.57805   0.15362   0.39501   0.00000  Uiso   1.00
H77    H     0.64365   0.11790   0.47097   0.00000  Uiso   1.00
H78    H     0.53306   0.19727   0.09609   0.00000  Uiso   1.00
H79    H     0.65012   0.22624   0.42406   0.00000  Uiso   1.00
H80    H     0.44974   0.21941   0.06627   0.00000  Uiso   1.00
N81    N     0.47827   0.15223   0.23543   0.00000  Uiso   1.00
N82    N     0.52173   0.18110   0.26458   0.00000  Uiso   1.00
O83    O     0.63102   0.24629   0.25358   0.00000  Uiso   1.00
O84    O     0.44688   0.31764   0.20490   0.00000  Uiso   1.00
O85    O     0.39075   0.23704   0.24424   0.00000  Uiso   1.00
O86    O     0.64823   0.17358   0.33380   0.00000  Uiso   1.00
O87    O     0.40796   0.16433   0.32446   0.00000  Uiso   1.00
O88    O     0.60925   0.09629   0.25577   0.00000  Uiso   1.00
O89    O     0.36898   0.08704   0.24643   0.00000  Uiso   1.00
O90    O     0.59204   0.16901   0.17554   0.00000  Uiso   1.00
O91    O     0.35177   0.15976   0.16620   0.00000  Uiso   1.00
O92    O     0.37292   0.02761   0.15718   0.00000  Uiso   1.00
Zn93   Zn    0.60453   0.17284   0.25624   0.00000  Uiso   1.00
Zn94   Zn    0.39547   0.16049   0.24377   0.00000  Uiso   1.00
C95    C     0.68031   0.26464   0.24522   0.00000  Uiso   1.00
C96    C     0.73034   0.19697   0.41020   0.00000  Uiso   1.00
C97    C     0.68283   0.31741   0.23116   0.00000  Uiso   1.00
C98    C     0.70496   0.17747   0.35349   0.00000  Uiso   1.00
C99    C     0.97626   0.01358   0.24631   0.00000  Uiso   1.00
C100   C     0.98418   0.06840   0.24796   0.00000  Uiso   1.00
C101   C     0.96322   0.16231   0.14602   0.00000  Uiso   1.00
C102   C     0.95177   0.13455   0.49787   0.00000  Uiso   1.00
C103   C     0.94211   0.15915   0.08812   0.00000  Uiso   1.00
C104   C     0.69458   0.21802   0.44207   0.00000  Uiso   1.00
C105   C     0.71580   0.22814   0.49777   0.00000  Uiso   1.00
C106   C     0.80960   0.19564   0.49063   0.00000  Uiso   1.00
C107   C     0.77150   0.21447   0.02252   0.00000  Uiso   1.00
C108   C     0.72333   0.00070   0.19548   0.00000  Uiso   1.00
C109   C     0.79066   0.19364   0.43369   0.00000  Uiso   1.00
C110   C     0.86555   0.17787   0.01244   0.00000  Uiso   1.00
C111   C     0.89964   0.15748   0.47723   0.00000  Uiso   1.00
C112   C     0.88354   0.16409   0.42216   0.00000  Uiso   1.00
C113   C     0.83292   0.18755   0.40223   0.00000  Uiso   1.00
C114   C     0.88862   0.17934   0.06783   0.00000  Uiso   1.00
C115   C     0.97327   0.13558   0.05358   0.00000  Uiso   1.00
H116   H     0.68104   0.11894   0.06954   0.00000  Uiso   1.00
H117   H     0.68764   0.24379   0.02234   0.00000  Uiso   1.00
H118   H     0.82813   0.20172   0.36246   0.00000  Uiso   1.00
H119   H     0.80315   0.33116   0.17786   0.00000  Uiso   1.00
H120   H     0.94227   0.33138   0.26597   0.00000  Uiso   1.00
H121   H     0.82382   0.12197   0.21333   0.00000  Uiso   1.00
H122   H     0.84285   0.21369   0.28289   0.00000  Uiso   1.00
H123   H     0.91138   0.15362   0.39501   0.00000  Uiso   1.00
H124   H     0.97699   0.11790   0.47097   0.00000  Uiso   1.00
H125   H     0.86639   0.19727   0.09609   0.00000  Uiso   1.00
H126   H     0.98346   0.22624   0.42406   0.00000  Uiso   1.00
H127   H     0.78308   0.21941   0.06627   0.00000  Uiso   1.00
N128   N     0.81160   0.15223   0.23543   0.00000  Uiso   1.00
N129   N     0.85507   0.18110   0.26458   0.00000  Uiso   1.00
O130   O     0.96435   0.24629   0.25358   0.00000  Uiso   1.00
O131   O     0.78021   0.31764   0.20490   0.00000  Uiso   1.00
O132   O     0.72408   0.23704   0.24424   0.00000  Uiso   1.00
O133   O     0.98157   0.17358   0.33380   0.00000  Uiso   1.00
O134   O     0.74130   0.16433   0.32446   0.00000  Uiso   1.00
O135   O     0.94258   0.09629   0.25577   0.00000  Uiso   1.00
O136   O     0.70231   0.08704   0.24643   0.00000  Uiso   1.00
O137   O     0.92537   0.16901   0.17554   0.00000  Uiso   1.00
O138   O     0.68510   0.15976   0.16620   0.00000  Uiso   1.00
O139   O     0.70625   0.02761   0.15718   0.00000  Uiso   1.00
Zn140  Zn    0.93786   0.17284   0.25624   0.00000  Uiso   1.00
Zn141  Zn    0.72881   0.16049   0.24377   0.00000  Uiso   1.00
C142   C     0.01364   0.59797   0.24522   0.00000  Uiso   1.00
C143   C     0.06367   0.53031   0.41020   0.00000  Uiso   1.00
C144   C     0.01616   0.65075   0.23116   0.00000  Uiso   1.00
C145   C     0.03829   0.51080   0.35349   0.00000  Uiso   1.00
C146   C     0.30959   0.34691   0.24631   0.00000  Uiso   1.00
C147   C     0.31751   0.40173   0.24796   0.00000  Uiso   1.00
C148   C     0.29656   0.49564   0.14602   0.00000  Uiso   1.00
C149   C     0.28511   0.46788   0.49787   0.00000  Uiso   1.00
C150   C     0.27544   0.49248   0.08812   0.00000  Uiso   1.00
C151   C     0.02791   0.55135   0.44207   0.00000  Uiso   1.00
C152   C     0.04913   0.56147   0.49777   0.00000  Uiso   1.00
C153   C     0.14294   0.52897   0.49063   0.00000  Uiso   1.00
C154   C     0.10483   0.54780   0.02252   0.00000  Uiso   1.00
C155   C     0.05666   0.33404   0.19548   0.00000  Uiso   1.00
C156   C     0.12400   0.52697   0.43369   0.00000  Uiso   1.00
C157   C     0.19888   0.51121   0.01244   0.00000  Uiso   1.00
C158   C     0.23298   0.49081   0.47723   0.00000  Uiso   1.00
C159   C     0.21687   0.49743   0.42216   0.00000  Uiso   1.00
C160   C     0.16625   0.52088   0.40223   0.00000  Uiso   1.00
C161   C     0.22195   0.51267   0.06783   0.00000  Uiso   1.00
C162   C     0.30660   0.46891   0.05358   0.00000  Uiso   1.00
H163   H     0.01437   0.45227   0.06954   0.00000  Uiso   1.00
H164   H     0.02097   0.57712   0.02234   0.00000  Uiso   1.00
H165   H     0.16147   0.53505   0.36246   0.00000  Uiso   1.00
H166   H     0.13649   0.66449   0.17786   0.00000  Uiso   1.00
H167   H     0.27561   0.66471   0.26597   0.00000  Uiso   1.00
H168   H     0.15716   0.45530   0.21333   0.00000  Uiso   1.00
H169   H     0.17618   0.54703   0.28289   0.00000  Uiso   1.00
H170   H     0.24472   0.48695   0.39501   0.00000  Uiso   1.00
H171   H     0.31032   0.45123   0.47097   0.00000  Uiso   1.00
H172   H     0.19972   0.53060   0.09609   0.00000  Uiso   1.00
H173   H     0.31679   0.55958   0.42406   0.00000  Uiso   1.00
H174   H     0.11641   0.55274   0.06627   0.00000  Uiso   1.00
N175   N     0.14493   0.48556   0.23543   0.00000  Uiso   1.00
N176   N     0.18840   0.51444   0.26458   0.00000  Uiso   1.00
O177   O     0.29769   0.57963   0.25358   0.00000  Uiso   1.00
O178   O     0.11355   0.65097   0.20490   0.00000  Uiso   1.00
O179   O     0.05742   0.57038   0.24424   0.00000  Uiso   1.00
O180   O     0.31490   0.50691   0.33380   0.00000  Uiso   1.00
O181   O     0.07463   0.49766   0.32446   0.00000  Uiso   1.00
O182   O     0.27592   0.42962   0.25577   0.00000  Uiso   1.00
O183   O     0.03565   0.42037   0.24643   0.00000  Uiso   1.00
O184   O     0.25870   0.50234   0.17554   0.00000  Uiso   1.00
O185   O     0.01843   0.49309   0.16620   0.00000  Uiso   1.00
O186   O     0.03959   0.36095   0.15718   0.00000  Uiso   1.00
Zn187  Zn    0.27119   0.50618   0.25624   0.00000  Uiso   1.00
Zn188  Zn    0.06214   0.49382   0.24377   0.00000  Uiso   1.00
C189   C     0.34697   0.59797   0.24522   0.00000  Uiso   1.00
C190   C     0.39701   0.53031   0.41020   0.00000  Uiso   1.00
C191   C     0.34950   0.65075   0.23116   0.00000  Uiso   1.00
C192   C     0.37162   0.51080   0.35349   0.00000  Uiso   1.00
C193   C     0.64293   0.34691   0.24631   0.00000  Uiso   1.00
C194   C     0.65084   0.40173   0.24796   0.00000  Uiso   1.00
C195   C     0.62989   0.49564   0.14602   0.00000  Uiso   1.00
C196   C     0.61844   0.46788   0.49787   0.00000  Uiso   1.00
C197   C     0.60877   0.49248   0.08812   0.00000  Uiso   1.00
C198   C     0.36125   0.55135   0.44207   0.00000  Uiso   1.00
C199   C     0.38246   0.56147   0.49777   0.00000  Uiso   1.00
C200   C     0.47627   0.52897   0.49063   0.00000  Uiso   1.00
C201   C     0.43817   0.54780   0.02252   0.00000  Uiso   1.00
C202   C     0.39000   0.33404   0.19548   0.00000  Uiso   1.00
C203   C     0.45733   0.52697   0.43369   0.00000  Uiso   1.00
C204   C     0.53221   0.51121   0.01244   0.00000  Uiso   1.00
C205   C     0.56631   0.49081   0.47723   0.00000  Uiso   1.00
C206   C     0.55021   0.49743   0.42216   0.00000  Uiso   1.00
C207   C     0.49958   0.52088   0.40223   0.00000  Uiso   1.00
C208   C     0.55528   0.51267   0.06783   0.00000  Uiso   1.00
C209   C     0.63993   0.46891   0.05358   0.00000  Uiso   1.00
H210   H     0.34770   0.45227   0.06954   0.00000  Uiso   1.00
H211   H     0.35431   0.57712   0.02234   0.00000  Uiso   1.00
H212   H     0.49480   0.53505   0.36246   0.00000  Uiso   1.00
H213   H     0.46982   0.66449   0.17786   0.00000  Uiso   1.00
H214   H     0.60894   0.66471   0.26597   0.00000  Uiso   1.00
H215   H     0.49049   0.45530   0.21333   0.00000  Uiso   1.00
H216   H     0.50952   0.54703   0.28289   0.00000  Uiso   1.00
H217   H     0.57805   0.48695   0.39501   0.00000  Uiso   1.00
H218   H     0.64365   0.45123   0.47097   0.00000  Uiso   1.00
H219   H     0.53306   0.53060   0.09609   0.00000  Uiso   1.00
H220   H     0.65012   0.55958   0.42406   0.00000  Uiso   1.00
H221   H     0.44974   0.55274   0.06627   0.00000  Uiso   1.00
N222   N     0.47827   0.48556   0.23543   0.00000  Uiso   1.00
N223   N     0.52173   0.51444   0.26458   0.00000  Uiso   1.00
O224   O     0.63102   0.57963   0.25358   0.00000  Uiso   1.00
O225   O     0.44688   0.65097   0.20490   0.00000  Uiso   1.00
O226   O     0.39075   0.57038   0.24424   0.00000  Uiso   1.00
O227   O     0.64823   0.50691   0.33380   0.00000  Uiso   1.00
O228   O     0.40796   0.49766   0.32446   0.00000  Uiso   1.00
O229   O     0.60925   0.42962   0.25577   0.00000  Uiso   1.00
O230   O     0.36898   0.42037   0.24643   0.00000  Uiso   1.00
O231   O     0.59204   0.50234   0.17554   0.00000  Uiso   1.00
O232   O     0.35177   0.49309   0.16620   0.00000  Uiso   1.00
O233   O     0.37292   0.36095   0.15718   0.00000  Uiso   1.00
Zn234  Zn    0.60453   0.50618   0.25624   0.00000  Uiso   1.00
Zn235  Zn    0.39547   0.49382   0.24377   0.00000  Uiso   1.00
C236   C     0.68031   0.59797   0.24522   0.00000  Uiso   1.00
C237   C     0.73034   0.53031   0.41020   0.00000  Uiso   1.00
C238   C     0.68283   0.65075   0.23116   0.00000  Uiso   1.00
C239   C     0.70496   0.51080   0.35349   0.00000  Uiso   1.00
C240   C     0.97626   0.34691   0.24631   0.00000  Uiso   1.00
C241   C     0.98418   0.40173   0.24796   0.00000  Uiso   1.00
C242   C     0.96322   0.49564   0.14602   0.00000  Uiso   1.00
C243   C     0.95177   0.46788   0.49787   0.00000  Uiso   1.00
C244   C     0.94211   0.49248   0.08812   0.00000  Uiso   1.00
C245   C     0.69458   0.55135   0.44207   0.00000  Uiso   1.00
C246   C     0.71580   0.56147   0.49777   0.00000  Uiso   1.00
C247   C     0.80960   0.52897   0.49063   0.00000  Uiso   1.00
C248   C     0.77150   0.54780   0.02252   0.00000  Uiso   1.00
C249   C     0.72333   0.33404   0.19548   0.00000  Uiso   1.00
C250   C     0.79066   0.52697   0.43369   0.00000  Uiso   1.00
C251   C     0.86555   0.51121   0.01244   0.00000  Uiso   1.00
C252   C     0.89964   0.49081   0.47723   0.00000  Uiso   1.00
C253   C     0.88354   0.49743   0.42216   0.00000  Uiso   1.00
C254   C     0.83292   0.52088   0.40223   0.00000  Uiso   1.00
C255   C     0.88862   0.51267   0.06783   0.00000  Uiso   1.00
C256   C     0.97327   0.46891   0.05358   0.00000  Uiso   1.00
H257   H     0.68104   0.45227   0.06954   0.00000  Uiso   1.00
H258   H     0.68764   0.57712   0.02234   0.00000  Uiso   1.00
H259   H     0.82813   0.53505   0.36246   0.00000  Uiso   1.00
H260   H     0.80315   0.66449   0.17786   0.00000  Uiso   1.00
H261   H     0.94227   0.66471   0.26597   0.00000  Uiso   1.00
H262   H     0.82382   0.45530   0.21333   0.00000  Uiso   1.00
H263   H     0.84285   0.54703   0.28289   0.00000  Uiso   1.00
H264   H     0.91138   0.48695   0.39501   0.00000  Uiso   1.00
H265   H     0.97699   0.45123   0.47097   0.00000  Uiso   1.00
H266   H     0.86639   0.53060   0.09609   0.00000  Uiso   1.00
H267   H     0.98346   0.55958   0.42406   0.00000  Uiso   1.00
H268   H     0.78308   0.55274   0.06627   0.00000  Uiso   1.00
N269   N     0.81160   0.48556   0.23543   0.00000  Uiso   1.00
N270   N     0.85507   0.51444   0.26458   0.00000  Uiso   1.00
O271   O     0.96435   0.57963   0.25358   0.00000  Uiso   1.00
O272   O     0.78021   0.65097   0.20490   0.00000  Uiso   1.00
O273   O     0.72408   0.57038   0.24424   0.00000  Uiso   1.00
O274   O     0.98157   0.50691   0.33380   0.00000  Uiso   1.00
O275   O     0.74130   0.49766   0.32446   0.00000  Uiso   1.00
O276   O     0.94258   0.42962   0.25577   0.00000  Uiso   1.00
O277   O     0.70231   0.42037   0.24643   0.00000  Uiso   1.00
O278   O     0.92537   0.50234   0.17554   0.00000  Uiso   1.00
O279   O     0.68510   0.49309   0.16620   0.00000  Uiso   1.00
O280   O     0.70625   0.36095   0.15718   0.00000  Uiso   1.00
Zn281  Zn    0.93786   0.50618   0.25624   0.00000  Uiso   1.00
Zn282  Zn    0.72881   0.49382   0.24377   0.00000  Uiso   1.00
C283   C     0.01364   0.93130   0.24522   0.00000  Uiso   1.00
C284   C     0.06367   0.86364   0.41020   0.00000  Uiso   1.00
C285   C     0.01616   0.98408   0.23116   0.00000  Uiso   1.00
C286   C     0.03829   0.84414   0.35349   0.00000  Uiso   1.00
C287   C     0.30959   0.68024   0.24631   0.00000  Uiso   1.00
C288   C     0.31751   0.73506   0.24796   0.00000  Uiso   1.00
C289   C     0.29656   0.82898   0.14602   0.00000  Uiso   1.00
C290   C     0.28511   0.80121   0.49787   0.00000  Uiso   1.00
C291   C     0.27544   0.82582   0.08812   0.00000  Uiso   1.00
C292   C     0.02791   0.88469   0.44207   0.00000  Uiso   1.00
C293   C     0.04913   0.89480   0.49777   0.00000  Uiso   1.00
C294   C     0.14294   0.86230   0.49063   0.00000  Uiso   1.00
C295   C     0.10483   0.88113   0.02252   0.00000  Uiso   1.00
C296   C     0.05666   0.66737   0.19548   0.00000  Uiso   1.00
C297   C     0.12400   0.86031   0.43369   0.00000  Uiso   1.00
C298   C     0.19888   0.84454   0.01244   0.00000  Uiso   1.00
C299   C     0.23298   0.82414   0.47723   0.00000  Uiso   1.00
C300   C     0.21687   0.83076   0.42216   0.00000  Uiso   1.00
C301   C     0.16625   0.85421   0.40223   0.00000  Uiso   1.00
C302   C     0.22195   0.84601   0.06783   0.00000  Uiso   1.00
C303   C     0.30660   0.80225   0.05358   0.00000  Uiso   1.00
H304   H     0.01437   0.78561   0.06954   0.00000  Uiso   1.00
H305   H     0.02097   0.91045   0.02234   0.00000  Uiso   1.00
H306   H     0.16147   0.86839   0.36246   0.00000  Uiso   1.00
H307   H     0.13649   0.99782   0.17786   0.00000  Uiso   1.00
H308   H     0.27561   0.99804   0.26597   0.00000  Uiso   1.00
H309   H     0.15716   0.78864   0.21333   0.00000  Uiso   1.00
H310   H     0.17618   0.88036   0.28289   0.00000  Uiso   1.00
H311   H     0.24472   0.82029   0.39501   0.00000  Uiso   1.00
H312   H     0.31032   0.78457   0.47097   0.00000  Uiso   1.00
H313   H     0.19972   0.86394   0.09609   0.00000  Uiso   1.00
H314   H     0.31679   0.89291   0.42406   0.00000  Uiso   1.00
H315   H     0.11641   0.88608   0.06627   0.00000  Uiso   1.00
N316   N     0.14493   0.81890   0.23543   0.00000  Uiso   1.00
N317   N     0.18840   0.84777   0.26458   0.00000  Uiso   1.00
O318   O     0.29769   0.91296   0.25358   0.00000  Uiso   1.00
O319   O     0.11355   0.98431   0.20490   0.00000  Uiso   1.00
O320   O     0.05742   0.90371   0.24424   0.00000  Uiso   1.00
O321   O     0.31490   0.84024   0.33380   0.00000  Uiso   1.00
O322   O     0.07463   0.83099   0.32446   0.00000  Uiso   1.00
O323   O     0.27592   0.76296   0.25577   0.00000  Uiso   1.00
O324   O     0.03565   0.75371   0.24643   0.00000  Uiso   1.00
O325   O     0.25870   0.83567   0.17554   0.00000  Uiso   1.00
O326   O     0.01843   0.82642   0.16620   0.00000  Uiso   1.00
O327   O     0.03959   0.69428   0.15718   0.00000  Uiso   1.00
Zn328  Zn    0.27119   0.83951   0.25624   0.00000  Uiso   1.00
Zn329  Zn    0.06214   0.82716   0.24377   0.00000  Uiso   1.00
C330   C     0.34697   0.93130   0.24522   0.00000  Uiso   1.00
C331   C     0.39701   0.86364   0.41020   0.00000  Uiso   1.00
C332   C     0.34950   0.98408   0.23116   0.00000  Uiso   1.00
C333   C     0.37162   0.84414   0.35349   0.00000  Uiso   1.00
C334   C     0.64293   0.68024   0.24631   0.00000  Uiso   1.00
C335   C     0.65084   0.73506   0.24796   0.00000  Uiso   1.00
C336   C     0.62989   0.82898   0.14602   0.00000  Uiso   1.00
C337   C     0.61844   0.80121   0.49787   0.00000  Uiso   1.00
C338   C     0.60877   0.82582   0.08812   0.00000  Uiso   1.00
C339   C     0.36125   0.88469   0.44207   0.00000  Uiso   1.00
C340   C     0.38246   0.89480   0.49777   0.00000  Uiso   1.00
C341   C     0.47627   0.86230   0.49063   0.00000  Uiso   1.00
C342   C     0.43817   0.88113   0.02252   0.00000  Uiso   1.00
C343   C     0.39000   0.66737   0.19548   0.00000  Uiso   1.00
C344   C     0.45733   0.86031   0.43369   0.00000  Uiso   1.00
C345   C     0.53221   0.84454   0.01244   0.00000  Uiso   1.00
C346   C     0.56631   0.82414   0.47723   0.00000  Uiso   1.00
C347   C     0.55021   0.83076   0.42216   0.00000  Uiso   1.00
C348   C     0.49958   0.85421   0.40223   0.00000  Uiso   1.00
C349   C     0.55528   0.84601   0.06783   0.00000  Uiso   1.00
C350   C     0.63993   0.80225   0.05358   0.00000  Uiso   1.00
H351   H     0.34770   0.78561   0.06954   0.00000  Uiso   1.00
H352   H     0.35431   0.91045   0.02234   0.00000  Uiso   1.00
H353   H     0.49480   0.86839   0.36246   0.00000  Uiso   1.00
H354   H     0.46982   0.99782   0.17786   0.00000  Uiso   1.00
H355   H     0.60894   0.99804   0.26597   0.00000  Uiso   1.00
H356   H     0.49049   0.78864   0.21333   0.00000  Uiso   1.00
H357   H     0.50952   0.88036   0.28289   0.00000  Uiso   1.00
H358   H     0.57805   0.82029   0.39501   0.00000  Uiso   1.00
H359   H     0.64365   0.78457   0.47097   0.00000  Uiso   1.00
H360   H     0.53306   0.86394   0.09609   0.00000  Uiso   1.00
H361   H     0.65012   0.89291   0.42406   0.00000  Uiso   1.00
H362   H     0.44974   0.88608   0.06627   0.00000  Uiso   1.00
N363   N     0.47827   0.81890   0.23543   0.00000  Uiso   1.00
N364   N     0.52173   0.84777   0.26458   0.00000  Uiso   1.00
O365   O     0.63102   0.91296   0.25358   0.00000  Uiso   1.00
O366   O     0.44688   0.98431   0.20490   0.00000  Uiso   1.00
O367   O     0.39075   0.90371   0.24424   0.00000  Uiso   1.00
O368   O     0.64823   0.84024   0.33380   0.00000  Uiso   1.00
O369   O     0.40796   0.83099   0.32446   0.00000  Uiso   1.00
O370   O     0.60925   0.76296   0.25577   0.00000  Uiso   1.00
O371   O     0.36898   0.75371   0.24643   0.00000  Uiso   1.00
O372   O     0.59204   0.83567   0.17554   0.00000  Uiso   1.00
O373   O     0.35177   0.82642   0.16620   0.00000  Uiso   1.00
O374   O     0.37292   0.69428   0.15718   0.00000  Uiso   1.00
Zn375  Zn    0.60453   0.83951   0.25624   0.00000  Uiso   1.00
Zn376  Zn    0.39547   0.82716   0.24377   0.00000  Uiso   1.00
C377   C     0.68031   0.93130   0.24522   0.00000  Uiso   1.00
C378   C     0.73034   0.86364   0.41020   0.00000  Uiso   1.00
C379   C     0.68283   0.98408   0.23116   0.00000  Uiso   1.00
C380   C     0.70496   0.84414   0.35349   0.00000  Uiso   1.00
C381   C     0.97626   0.68024   0.24631   0.00000  Uiso   1.00
C382   C     0.98418   0.73506   0.24796   0.00000  Uiso   1.00
C383   C     0.96322   0.82898   0.14602   0.00000  Uiso   1.00
C384   C     0.95177   0.80121   0.49787   0.00000  Uiso   1.00
C385   C     0.94211   0.82582   0.08812   0.00000  Uiso   1.00
C386   C     0.69458   0.88469   0.44207   0.00000  Uiso   1.00
C387   C     0.71580   0.89480   0.49777   0.00000  Uiso   1.00
C388   C     0.80960   0.86230   0.49063   0.00000  Uiso   1.00
C389   C     0.77150   0.88113   0.02252   0.00000  Uiso   1.00
C390   C     0.72333   0.66737   0.19548   0.00000  Uiso   1.00
C391   C     0.79066   0.86031   0.43369   0.00000  Uiso   1.00
C392   C     0.86555   0.84454   0.01244   0.00000  Uiso   1.00
C393   C     0.89964   0.82414   0.47723   0.00000  Uiso   1.00
C394   C     0.88354   0.83076   0.42216   0.00000  Uiso   1.00
C395   C     0.83292   0.85421   0.40223   0.00000  Uiso   1.00
C396   C     0.88862   0.84601   0.06783   0.00000  Uiso   1.00
C397   C     0.97327   0.80225   0.05358   0.00000  Uiso   1.00
H398   H     0.68104   0.78561   0.06954   0.00000  Uiso   1.00
H399   H     0.68764   0.91045   0.02234   0.00000  Uiso   1.00
H400   H     0.82813   0.86839   0.36246   0.00000  Uiso   1.00
H401   H     0.80315   0.99782   0.17786   0.00000  Uiso   1.00
H402   H     0.94227   0.99804   0.26597   0.00000  Uiso   1.00
H403   H     0.82382   0.78864   0.21333   0.00000  Uiso   1.00
H404   H     0.84285   0.88036   0.28289   0.00000  Uiso   1.00
H405   H     0.91138   0.82029   0.39501   0.00000  Uiso   1.00
H406   H     0.97699   0.78457   0.47097   0.00000  Uiso   1.00
H407   H     0.86639   0.86394   0.09609   0.00000  Uiso   1.00
H408   H     0.98346   0.89291   0.42406   0.00000  Uiso   1.00
H409   H     0.78308   0.88608   0.06627   0.00000  Uiso   1.00
N410   N     0.81160   0.81890   0.23543   0.00000  Uiso   1.00
N411   N     0.85507   0.84777   0.26458   0.00000  Uiso   1.00
O412   O     0.96435   0.91296   0.25358   0.00000  Uiso   1.00
O413   O     0.78021   0.98431   0.20490   0.00000  Uiso   1.00
O414   O     0.72408   0.90371   0.24424   0.00000  Uiso   1.00
O415   O     0.98157   0.84024   0.33380   0.00000  Uiso   1.00
O416   O     0.74130   0.83099   0.32446   0.00000  Uiso   1.00
O417   O     0.94258   0.76296   0.25577   0.00000  Uiso   1.00
O418   O     0.70231   0.75371   0.24643   0.00000  Uiso   1.00
O419   O     0.92537   0.83567   0.17554   0.00000  Uiso   1.00
O420   O     0.68510   0.82642   0.16620   0.00000  Uiso   1.00
O421   O     0.70625   0.69428   0.15718   0.00000  Uiso   1.00
Zn422  Zn    0.93786   0.83951   0.25624   0.00000  Uiso   1.00
Zn423  Zn    0.72881   0.82716   0.24377   0.00000  Uiso   1.00
C424   C     0.01364   0.26464   0.74522   0.00000  Uiso   1.00
C425   C     0.06367   0.19697   0.91020   0.00000  Uiso   1.00
C426   C     0.01616   0.31741   0.73116   0.00000  Uiso   1.00
C427   C     0.03829   0.17747   0.85349   0.00000  Uiso   1.00
C428   C     0.30959   0.01358   0.74631   0.00000  Uiso   1.00
C429   C     0.31751   0.06840   0.74796   0.00000  Uiso   1.00
C430   C     0.29656   0.16231   0.64602   0.00000  Uiso   1.00
C431   C     0.28511   0.13455   0.99787   0.00000  Uiso   1.00
C432   C     0.27544   0.15915   0.58812   0.00000  Uiso   1.00
C433   C     0.02791   0.21802   0.94207   0.00000  Uiso   1.00
C434   C     0.04913   0.22814   0.99777   0.00000  Uiso   1.00
C435   C     0.14294   0.19564   0.99063   0.00000  Uiso   1.00
C436   C     0.10483   0.21447   0.52252   0.00000  Uiso   1.00
C437   C     0.05666   0.00070   0.69548   0.00000  Uiso   1.00
C438   C     0.12400   0.19364   0.93369   0.00000  Uiso   1.00
C439   C     0.19888   0.17787   0.51244   0.00000  Uiso   1.00
C440   C     0.23298   0.15748   0.97723   0.00000  Uiso   1.00
C441   C     0.21687   0.16409   0.92216   0.00000  Uiso   1.00
C442   C     0.16625   0.18755   0.90223   0.00000  Uiso   1.00
C443   C     0.22195   0.17934   0.56783   0.00000  Uiso   1.00
C444   C     0.30660   0.13558   0.55358   0.00000  Uiso   1.00
H445   H     0.01437   0.11894   0.56954   0.00000  Uiso   1.00
H446   H     0.02097   0.24379   0.52234   0.00000  Uiso   1.00
H447   H     0.16147   0.20172   0.86246   0.00000  Uiso   1.00
H448   H     0.13649   0.33116   0.67786   0.00000  Uiso   1.00
H449   H     0.27561   0.33138   0.76597   0.00000  Uiso   1.00
H450   H     0.15716   0.12197   0.71333   0.00000  Uiso   1.00
H451   H     0.17618   0.21369   0.78289   0.00000  Uiso   1.00
H452   H     0.24472   0.15362   0.89501   0.00000  Uiso   1.00
H453   H     0.31032   0.11790   0.97097   0.00000  Uiso   1.00
H454   H     0.19972   0.19727   0.59609   0.00000  Uiso   1.00
H455   H     0.31679   0.22624   0.92406   0.00000  Uiso   1.00
H456   H     0.11641   0.21941   0.56627   0.00000  Uiso   1.00
N457   N     0.14493   0.15223   0.73543   0.00000  Uiso   1.00
N458   N     0.18840   0.18110   0.76458   0.00000  Uiso   1.00
O459   O     0.29769   0.24629   0.75358   0.00000  Uiso   1.00
O460   O     0.11355   0.31764   0.70490   0.00000  Uiso   1.00
O461   O     0.05742   0.23704   0.74424   0.00000  Uiso   1.00
O462   O     0.31490   0.17358   0.83380   0.00000  Uiso   1.00
O463   O     0.07463   0.16433   0.82446   0.00000  Uiso   1.00
O464   O     0.27592   0.09629   0.75577   0.00000  Uiso   1.00
O465   O     0.03565   0.08704   0.74643   0.00000  Uiso   1.00
O466   O     0.25870   0.16901   0.67554   0.00000  Uiso   1.00
O467   O     0.01843   0.15976   0.66620   0.00000  Uiso   1.00
O468   O     0.03959   0.02761   0.65718   0.00000  Uiso   1.00
Zn469  Zn    0.27119   0.17284   0.75624   0.00000  Uiso   1.00
Zn470  Zn    0.06214   0.16049   0.74377   0.00000  Uiso   1.00
C471   C     0.34697   0.26464   0.74522   0.00000  Uiso   1.00
C472   C     0.39701   0.19697   0.91020   0.00000  Uiso   1.00
C473   C     0.34950   0.31741   0.73116   0.00000  Uiso   1.00
C474   C     0.37162   0.17747   0.85349   0.00000  Uiso   1.00
C475   C     0.64293   0.01358   0.74631   0.00000  Uiso   1.00
C476   C     0.65084   0.06840   0.74796   0.00000  Uiso   1.00
C477   C     0.62989   0.16231   0.64602   0.00000  Uiso   1.00
C478   C     0.61844   0.13455   0.99787   0.00000  Uiso   1.00
C479   C     0.60877   0.15915   0.58812   0.00000  Uiso   1.00
C480   C     0.36125   0.21802   0.94207   0.00000  Uiso   1.00
C481   C     0.38246   0.22814   0.99777   0.00000  Uiso   1.00
C482   C     0.47627   0.19564   0.99063   0.00000  Uiso   1.00
C483   C     0.43817   0.21447   0.52252   0.00000  Uiso   1.00
C484   C     0.39000   0.00070   0.69548   0.00000  Uiso   1.00
C485   C     0.45733   0.19364   0.93369   0.00000  Uiso   1.00
C486   C     0.53221   0.17787   0.51244   0.00000  Uiso   1.00
C487   C     0.56631   0.15748   0.97723   0.00000  Uiso   1.00
C488   C     0.55021   0.16409   0.92216   0.00000  Uiso   1.00
C489   C     0.49958   0.18755   0.90223   0.00000  Uiso   1.00
C490   C     0.55528   0.17934   0.56783   0.00000  Uiso   1.00
C491   C     0.63993   0.13558   0.55358   0.00000  Uiso   1.00
H492   H     0.34770   0.11894   0.56954   0.00000  Uiso   1.00
H493   H     0.35431   0.24379   0.52234   0.00000  Uiso   1.00
H494   H     0.49480   0.20172   0.86246   0.00000  Uiso   1.00
H495   H     0.46982   0.33116   0.67786   0.00000  Uiso   1.00
H496   H     0.60894   0.33138   0.76597   0.00000  Uiso   1.00
H497   H     0.49049   0.12197   0.71333   0.00000  Uiso   1.00
H498   H     0.50952   0.21369   0.78289   0.00000  Uiso   1.00
H499   H     0.57805   0.15362   0.89501   0.00000  Uiso   1.00
H500   H     0.64365   0.11790   0.97097   0.00000  Uiso   1.00
H501   H     0.53306   0.19727   0.59609   0.00000  Uiso   1.00
H502   H     0.65012   0.22624   0.92406   0.00000  Uiso   1.00
H503   H     0.44974   0.21941   0.56627   0.00000  Uiso   1.00
N504   N     0.47827   0.15223   0.73543   0.00000  Uiso   1.00
N505   N     0.52173   0.18110   0.76458   0.00000  Uiso   1.00
O506   O     0.63102   0.24629   0.75358   0.00000  Uiso   1.00
O507   O     0.44688   0.31764   0.70490   0.00000  Uiso   1.00
O508   O     0.39075   0.23704   0.74424   0.00000  Uiso   1.00
O509   O     0.64823   0.17358   0.83380   0.00000  Uiso   1.00
O510   O     0.40796   0.16433   0.82446   0.00000  Uiso   1.00
O511   O     0.60925   0.09629   0.75577   0.00000  Uiso   1.00
O512   O     0.36898   0.08704   0.74643   0.00000  Uiso   1.00
O513   O     0.59204   0.16901   0.67554   0.00000  Uiso   1.00
O514   O     0.35177   0.15976   0.66620   0.00000  Uiso   1.00
O515   O     0.37292   0.02761   0.65718   0.00000  Uiso   1.00
Zn516  Zn    0.60453   0.17284   0.75624   0.00000  Uiso   1.00
Zn517  Zn    0.39547   0.16049   0.74377   0.00000  Uiso   1.00
C518   C     0.68031   0.26464   0.74522   0.00000  Uiso   1.00
C519   C     0.73034   0.19697   0.91020   0.00000  Uiso   1.00
C520   C     0.68283   0.31741   0.73116   0.00000  Uiso   1.00
C521   C     0.70496   0.17747   0.85349   0.00000  Uiso   1.00
C522   C     0.97626   0.01358   0.74631   0.00000  Uiso   1.00
C523   C     0.98418   0.06840   0.74796   0.00000  Uiso   1.00
C524   C     0.96322   0.16231   0.64602   0.00000  Uiso   1.00
C525   C     0.95177   0.13455   0.99787   0.00000  Uiso   1.00
C526   C     0.94211   0.15915   0.58812   0.00000  Uiso   1.00
C527   C     0.69458   0.21802   0.94207   0.00000  Uiso   1.00
C528   C     0.71580   0.22814   0.99777   0.00000  Uiso   1.00
C529   C     0.80960   0.19564   0.99063   0.00000  Uiso   1.00
C530   C     0.77150   0.21447   0.52252   0.00000  Uiso   1.00
C531   C     0.72333   0.00070   0.69548   0.00000  Uiso   1.00
C532   C     0.79066   0.19364   0.93369   0.00000  Uiso   1.00
C533   C     0.86555   0.17787   0.51244   0.00000  Uiso   1.00
C534   C     0.89964   0.15748   0.97723   0.00000  Uiso   1.00
C535   C     0.88354   0.16409   0.92216   0.00000  Uiso   1.00
C536   C     0.83292   0.18755   0.90223   0.00000  Uiso   1.00
C537   C     0.88862   0.17934   0.56783   0.00000  Uiso   1.00
C538   C     0.97327   0.13558   0.55358   0.00000  Uiso   1.00
H539   H     0.68104   0.11894   0.56954   0.00000  Uiso   1.00
H540   H     0.68764   0.24379   0.52234   0.00000  Uiso   1.00
H541   H     0.82813   0.20172   0.86246   0.00000  Uiso   1.00
H542   H     0.80315   0.33116   0.67786   0.00000  Uiso   1.00
H543   H     0.94227   0.33138   0.76597   0.00000  Uiso   1.00
H544   H     0.82382   0.12197   0.71333   0.00000  Uiso   1.00
H545   H     0.84285   0.21369   0.78289   0.00000  Uiso   1.00
H546   H     0.91138   0.15362   0.89501   0.00000  Uiso   1.00
H547   H     0.97699   0.11790   0.97097   0.00000  Uiso   1.00
H548   H     0.86639   0.19727   0.59609   0.00000  Uiso   1.00
H549   H     0.98346   0.22624   0.92406   0.00000  Uiso   1.00
H550   H     0.78308   0.21941   0.56627   0.00000  Uiso   1.00
N551   N     0.81160   0.15223   0.73543   0.00000  Uiso   1.00
N552   N     0.85507   0.18110   0.76458   0.00000  Uiso   1.00
O553   O     0.96435   0.24629   0.75358   0.00000  Uiso   1.00
O554   O     0.78021   0.31764   0.70490   0.00000  Uiso   1.00
O555   O     0.72408   0.23704   0.74424   0.00000  Uiso   1.00
O556   O     0.98157   0.17358   0.83380   0.00000  Uiso   1.00
O557   O     0.74130   0.16433   0.82446   0.00000  Uiso   1.00
O558   O     0.94258   0.09629   0.75577   0.00000  Uiso   1.00
O559   O     0.70231   0.08704   0.74643   0.00000  Uiso   1.00
O560   O     0.92537   0.16901   0.67554   0.00000  Uiso   1.00
O561   O     0.68510   0.15976   0.66620   0.00000  Uiso   1.00
O562   O     0.70625   0.02761   0.65718   0.00000  Uiso   1.00
Zn563  Zn    0.93786   0.17284   0.75624   0.00000  Uiso   1.00
Zn564  Zn    0.72881   0.16049   0.74377   0.00000  Uiso   1.00
C565   C     0.01364   0.59797   0.74522   0.00000  Uiso   1.00
C566   C     0.06367   0.53031   0.91020   0.00000  Uiso   1.00
C567   C     0.01616   0.65075   0.73116   0.00000  Uiso   1.00
C568   C     0.03829   0.51080   0.85349   0.00000  Uiso   1.00
C569   C     0.30959   0.34691   0.74631   0.00000  Uiso   1.00
C570   C     0.31751   0.40173   0.74796   0.00000  Uiso   1.00
C571   C     0.29656   0.49564   0.64602   0.00000  Uiso   1.00
C572   C     0.28511   0.46788   0.99787   0.00000  Uiso   1.00
C573   C     0.27544   0.49248   0.58812   0.00000  Uiso   1.00
C574   C     0.02791   0.55135   0.94207   0.00000  Uiso   1.00
C575   C     0.04913   0.56147   0.99777   0.00000  Uiso   1.00
C576   C     0.14294   0.52897   0.99063   0.00000  Uiso   1.00
C577   C     0.10483   0.54780   0.52252   0.00000  Uiso   1.00
C578   C     0.05666   0.33404   0.69548   0.00000  Uiso   1.00
C579   C     0.12400   0.52697   0.93369   0.00000  Uiso   1.00
C580   C     0.19888   0.51121   0.51244   0.00000  Uiso   1.00
C581   C     0.23298   0.49081   0.97723   0.00000  Uiso   1.00
C582   C     0.21687   0.49743   0.92216   0.00000  Uiso   1.00
C583   C     0.16625   0.52088   0.90223   0.00000  Uiso   1.00
C584   C     0.22195   0.51267   0.56783   0.00000  Uiso   1.00
C585   C     0.30660   0.46891   0.55358   0.00000  Uiso   1.00
H586   H     0.01437   0.45227   0.56954   0.00000  Uiso   1.00
H587   H     0.02097   0.57712   0.52234   0.00000  Uiso   1.00
H588   H     0.16147   0.53505   0.86246   0.00000  Uiso   1.00
H589   H     0.13649   0.66449   0.67786   0.00000  Uiso   1.00
H590   H     0.27561   0.66471   0.76597   0.00000  Uiso   1.00
H591   H     0.15716   0.45530   0.71333   0.00000  Uiso   1.00
H592   H     0.17618   0.54703   0.78289   0.00000  Uiso   1.00
H593   H     0.24472   0.48695   0.89501   0.00000  Uiso   1.00
H594   H     0.31032   0.45123   0.97097   0.00000  Uiso   1.00
H595   H     0.19972   0.53060   0.59609   0.00000  Uiso   1.00
H596   H     0.31679   0.55958   0.92406   0.00000  Uiso   1.00
H597   H     0.11641   0.55274   0.56627   0.00000  Uiso   1.00
N598   N     0.14493   0.48556   0.73543   0.00000  Uiso   1.00
N599   N     0.18840   0.51444   0.76458   0.00000  Uiso   1.00
O600   O     0.29769   0.57963   0.75358   0.00000  Uiso   1.00
O601   O     0.11355   0.65097   0.70490   0.00000  Uiso   1.00
O602   O     0.05742   0.57038   0.74424   0.00000  Uiso   1.00
O603   O     0.31490   0.50691   0.83380   0.00000  Uiso   1.00
O604   O     0.07463   0.49766   0.82446   0.00000  Uiso   1.00
O605   O     0.27592   0.42962   0.75577   0.00000  Uiso   1.00
O606   O     0.03565   0.42037   0.74643   0.00000  Uiso   1.00
O607   O     0.25870   0.50234   0.67554   0.00000  Uiso   1.00
O608   O     0.01843   0.49309   0.66620   0.00000  Uiso   1.00
O609   O     0.03959   0.36095   0.65718   0.00000  Uiso   1.00
Zn610  Zn    0.27119   0.50618   0.75624   0.00000  Uiso   1.00
Zn611  Zn    0.06214   0.49382   0.74377   0.00000  Uiso   1.00
C612   C     0.34697   0.59797   0.74522   0.00000  Uiso   1.00
C613   C     0.39701   0.53031   0.91020   0.00000  Uiso   1.00
C614   C     0.34950   0.65075   0.73116   0.00000  Uiso   1.00
C615   C     0.37162   0.51080   0.85349   0.00000  Uiso   1.00
C616   C     0.64293   0.34691   0.74631   0.00000  Uiso   1.00
C617   C     0.65084   0.40173   0.74796   0.00000  Uiso   1.00
C618   C     0.62989   0.49564   0.64602   0.00000  Uiso   1.00
C619   C     0.61844   0.46788   0.99787   0.00000  Uiso   1.00
C620   C     0.60877   0.49248   0.58812   0.00000  Uiso   1.00
C621   C     0.36125   0.55135   0.94207   0.00000  Uiso   1.00
C622   C     0.38246   0.56147   0.99777   0.00000  Uiso   1.00
C623   C     0.47627   0.52897   0.99063   0.00000  Uiso   1.00
C624   C     0.43817   0.54780   0.52252   0.00000  Uiso   1.00
C625   C     0.39000   0.33404   0.69548   0.00000  Uiso   1.00
C626   C     0.45733   0.52697   0.93369   0.00000  Uiso   1.00
C627   C     0.53221   0.51121   0.51244   0.00000  Uiso   1.00
C628   C     0.56631   0.49081   0.97723   0.00000  Uiso   1.00
C629   C     0.55021   0.49743   0.92216   0.00000  Uiso   1.00
C630   C     0.49958   0.52088   0.90223   0.00000  Uiso   1.00
C631   C     0.55528   0.51267   0.56783   0.00000  Uiso   1.00
C632   C     0.63993   0.46891   0.55358   0.00000  Uiso   1.00
H633   H     0.34770   0.45227   0.56954   0.00000  Uiso   1.00
H634   H     0.35431   0.57712   0.52234   0.00000  Uiso   1.00
H635   H     0.49480   0.53505   0.86246   0.00000  Uiso   1.00
H636   H     0.46982   0.66449   0.67786   0.00000  Uiso   1.00
H637   H     0.60894   0.66471   0.76597   0.00000  Uiso   1.00
H638   H     0.49049   0.45530   0.71333   0.00000  Uiso   1.00
H639   H     0.50952   0.54703   0.78289   0.00000  Uiso   1.00
H640   H     0.57805   0.48695   0.89501   0.00000  Uiso   1.00
H641   H     0.64365   0.45123   0.97097   0.00000  Uiso   1.00
H642   H     0.53306   0.53060   0.59609   0.00000  Uiso   1.00
H643   H     0.65012   0.55958   0.92406   0.00000  Uiso   1.00
H644   H     0.44974   0.55274   0.56627   0.00000  Uiso   1.00
N645   N     0.47827   0.48556   0.73543   0.00000  Uiso   1.00
N646   N     0.52173   0.51444   0.76458   0.00000  Uiso   1.00
O647   O     0.63102   0.57963   0.75358   0.00000  Uiso   1.00
O648   O     0.44688   0.65097   0.70490   0.00000  Uiso   1.00
O649   O     0.39075   0.57038   0.74424   0.00000  Uiso   1.00
O650   O     0.64823   0.50691   0.83380   0.00000  Uiso   1.00
O651   O     0.40796   0.49766   0.82446   0.00000  Uiso   1.00
O652   O     0.60925   0.42962   0.75577   0.00000  Uiso   1.00
O653   O     0.36898   0.42037   0.74643   0.00000  Uiso   1.00
O654   O     0.59204   0.50234   0.67554   0.00000  Uiso   1.00
O655   O     0.35177   0.49309   0.66620   0.00000  Uiso   1.00
O656   O     0.37292   0.36095   0.65718   0.00000  Uiso   1.00
Zn657  Zn    0.60453   0.50618   0.75624   0.00000  Uiso   1.00
Zn658  Zn    0.39547   0.49382   0.74377   0.00000  Uiso   1.00
C659   C     0.68031   0.59797   0.74522   0.00000  Uiso   1.00
C660   C     0.73034   0.53031   0.91020   0.00000  Uiso   1.00
C661   C     0.68283   0.65075   0.73116   0.00000  Uiso   1.00
C662   C     0.70496   0.51080   0.85349   0.00000  Uiso   1.00
C663   C     0.97626   0.34691   0.74631   0.00000  Uiso   1.00
C664   C     0.98418   0.40173   0.74796   0.00000  Uiso   1.00
C665   C     0.96322   0.49564   0.64602   0.00000  Uiso   1.00
C666   C     0.95177   0.46788   0.99787   0.00000  Uiso   1.00
C667   C     0.94211   0.49248   0.58812   0.00000  Uiso   1.00
C668   C     0.69458   0.55135   0.94207   0.00000  Uiso   1.00
C669   C     0.71580   0.56147   0.99777   0.00000  Uiso   1.00
C670   C     0.80960   0.52897   0.99063   0.00000  Uiso   1.00
C671   C     0.77150   0.54780   0.52252   0.00000  Uiso   1.00
C672   C     0.72333   0.33404   0.69548   0.00000  Uiso   1.00
C673   C     0.79066   0.52697   0.93369   0.00000  Uiso   1.00
C674   C     0.86555   0.51121   0.51244   0.00000  Uiso   1.00
C675   C     0.89964   0.49081   0.97723   0.00000  Uiso   1.00
C676   C     0.88354   0.49743   0.92216   0.00000  Uiso   1.00
C677   C     0.83292   0.52088   0.90223   0.00000  Uiso   1.00
C678   C     0.88862   0.51267   0.56783   0.00000  Uiso   1.00
C679   C     0.97327   0.46891   0.55358   0.00000  Uiso   1.00
H680   H     0.68104   0.45227   0.56954   0.00000  Uiso   1.00
H681   H     0.68764   0.57712   0.52234   0.00000  Uiso   1.00
H682   H     0.82813   0.53505   0.86246   0.00000  Uiso   1.00
H683   H     0.80315   0.66449   0.67786   0.00000  Uiso   1.00
H684   H     0.94227   0.66471   0.76597   0.00000  Uiso   1.00
H685   H     0.82382   0.45530   0.71333   0.00000  Uiso   1.00
H686   H     0.84285   0.54703   0.78289   0.00000  Uiso   1.00
H687   H     0.91138   0.48695   0.89501   0.00000  Uiso   1.00
H688   H     0.97699   0.45123   0.97097   0.00000  Uiso   1.00
H689   H     0.86639   0.53060   0.59609   0.00000  Uiso   1.00
H690   H     0.98346   0.55958   0.92406   0.00000  Uiso   1.00
H691   H     0.78308   0.55274   0.56627   0.00000  Uiso   1.00
N692   N     0.81160   0.48556   0.73543   0.00000  Uiso   1.00
N693   N     0.85507   0.51444   0.76458   0.00000  Uiso   1.00
O694   O     0.96435   0.57963   0.75358   0.00000  Uiso   1.00
O695   O     0.78021   0.65097   0.70490   0.00000  Uiso   1.00
O696   O     0.72408   0.57038   0.74424   0.00000  Uiso   1.00
O697   O     0.98157   0.50691   0.83380   0.00000  Uiso   1.00
O698   O     0.74130   0.49766   0.82446   0.00000  Uiso   1.00
O699   O     0.94258   0.42962   0.75577   0.00000  Uiso   1.00
O700   O     0.70231   0.42037   0.74643   0.00000  Uiso   1.00
O701   O     0.92537   0.50234   0.67554   0.00000  Uiso   1.00
O702   O     0.68510   0.49309   0.66620   0.00000  Uiso   1.00
O703   O     0.70625   0.36095   0.65718   0.00000  Uiso   1.00
Zn704  Zn    0.93786   0.50618   0.75624   0.00000  Uiso   1.00
Zn705  Zn    0.72881   0.49382   0.74377   0.00000  Uiso   1.00
C706   C     0.01364   0.93130   0.74522   0.00000  Uiso   1.00
C707   C     0.06367   0.86364   0.91020   0.00000  Uiso   1.00
C708   C     0.01616   0.98408   0.73116   0.00000  Uiso   1.00
C709   C     0.03829   0.84414   0.85349   0.00000  Uiso   1.00
C710   C     0.30959   0.68024   0.74631   0.00000  Uiso   1.00
C711   C     0.31751   0.73506   0.74796   0.00000  Uiso   1.00
C712   C     0.29656   0.82898   0.64602   0.00000  Uiso   1.00
C713   C     0.28511   0.80121   0.99787   0.00000  Uiso   1.00
C714   C     0.27544   0.82582   0.58812   0.00000  Uiso   1.00
C715   C     0.02791   0.88469   0.94207   0.00000  Uiso   1.00
C716   C     0.04913   0.89480   0.99777   0.00000  Uiso   1.00
C717   C     0.14294   0.86230   0.99063   0.00000  Uiso   1.00
C718   C     0.10483   0.88113   0.52252   0.00000  Uiso   1.00
C719   C     0.05666   0.66737   0.69548   0.00000  Uiso   1.00
C720   C     0.12400   0.86031   0.93369   0.00000  Uiso   1.00
C721   C     0.19888   0.84454   0.51244   0.00000  Uiso   1.00
C722   C     0.23298   0.82414   0.97723   0.00000  Uiso   1.00
C723   C     0.21687   0.83076   0.92216   0.00000  Uiso   1.00
C724   C     0.16625   0.85421   0.90223   0.00000  Uiso   1.00
C725   C     0.22195   0.84601   0.56783   0.00000  Uiso   1.00
C726   C     0.30660   0.80225   0.55358   0.00000  Uiso   1.00
H727   H     0.01437   0.78561   0.56954   0.00000  Uiso   1.00
H728   H     0.02097   0.91045   0.52234   0.00000  Uiso   1.00
H729   H     0.16147   0.86839   0.86246   0.00000  Uiso   1.00
H730   H     0.13649   0.99782   0.67786   0.00000  Uiso   1.00
H731   H     0.27561   0.99804   0.76597   0.00000  Uiso   1.00
H732   H     0.15716   0.78864   0.71333   0.00000  Uiso   1.00
H733   H     0.17618   0.88036   0.78289   0.00000  Uiso   1.00
H734   H     0.24472   0.82029   0.89501   0.00000  Uiso   1.00
H735   H     0.31032   0.78457   0.97097   0.00000  Uiso   1.00
H736   H     0.19972   0.86394   0.59609   0.00000  Uiso   1.00
H737   H     0.31679   0.89291   0.92406   0.00000  Uiso   1.00
H738   H     0.11641   0.88608   0.56627   0.00000  Uiso   1.00
N739   N     0.14493   0.81890   0.73543   0.00000  Uiso   1.00
N740   N     0.18840   0.84777   0.76458   0.00000  Uiso   1.00
O741   O     0.29769   0.91296   0.75358   0.00000  Uiso   1.00
O742   O     0.11355   0.98431   0.70490   0.00000  Uiso   1.00
O743   O     0.05742   0.90371   0.74424   0.00000  Uiso   1.00
O744   O     0.31490   0.84024   0.83380   0.00000  Uiso   1.00
O745   O     0.07463   0.83099   0.82446   0.00000  Uiso   1.00
O746   O     0.27592   0.76296   0.75577   0.00000  Uiso   1.00
O747   O     0.03565   0.75371   0.74643   0.00000  Uiso   1.00
O748   O     0.25870   0.83567   0.67554   0.00000  Uiso   1.00
O749   O     0.01843   0.82642   0.66620   0.00000  Uiso   1.00
O750   O     0.03959   0.69428   0.65718   0.00000  Uiso   1.00
Zn751  Zn    0.27119   0.83951   0.75624   0.00000  Uiso   1.00
Zn752  Zn    0.06214   0.82716   0.74377   0.00000  Uiso   1.00
C753   C     0.34697   0.93130   0.74522   0.00000  Uiso   1.00
C754   C     0.39701   0.86364   0.91020   0.00000  Uiso   1.00
C755   C     0.34950   0.98408   0.73116   0.00000  Uiso   1.00
C756   C     0.37162   0.84414   0.85349   0.00000  Uiso   1.00
C757   C     0.64293   0.68024   0.74631   0.00000  Uiso   1.00
C758   C     0.65084   0.73506   0.74796   0.00000  Uiso   1.00
C759   C     0.62989   0.82898   0.64602   0.00000  Uiso   1.00
C760   C     0.61844   0.80121   0.99787   0.00000  Uiso   1.00
C761   C     0.60877   0.82582   0.58812   0.00000  Uiso   1.00
C762   C     0.36125   0.88469   0.94207   0.00000  Uiso   1.00
C763   C     0.38246   0.89480   0.99777   0.00000  Uiso   1.00
C764   C     0.47627   0.86230   0.99063   0.00000  Uiso   1.00
C765   C     0.43817   0.88113   0.52252   0.00000  Uiso   1.00
C766   C     0.39000   0.66737   0.69548   0.00000  Uiso   1.00
C767   C     0.45733   0.86031   0.93369   0.00000  Uiso   1.00
C768   C     0.53221   0.84454   0.51244   0.00000  Uiso   1.00
C769   C     0.56631   0.82414   0.97723   0.00000  Uiso   1.00
C770   C     0.55021   0.83076   0.92216   0.00000  Uiso   1.00
C771   C     0.49958   0.85421   0.90223   0.00000  Uiso   1.00
C772   C     0.55528   0.84601   0.56783   0.00000  Uiso   1.00
C773   C     0.63993   0.80225   0.55358   0.00000  Uiso   1.00
H774   H     0.34770   0.78561   0.56954   0.00000  Uiso   1.00
H775   H     0.35431   0.91045   0.52234   0.00000  Uiso   1.00
H776   H     0.49480   0.86839   0.86246   0.00000  Uiso   1.00
H777   H     0.46982   0.99782   0.67786   0.00000  Uiso   1.00
H778   H     0.60894   0.99804   0.76597   0.00000  Uiso   1.00
H779   H     0.49049   0.78864   0.71333   0.00000  Uiso   1.00
H780   H     0.50952   0.88036   0.78289   0.00000  Uiso   1.00
H781   H     0.57805   0.82029   0.89501   0.00000  Uiso   1.00
H782   H     0.64365   0.78457   0.97097   0.00000  Uiso   1.00
H783   H     0.53306   0.86394   0.59609   0.00000  Uiso   1.00
H784   H     0.65012   0.89291   0.92406   0.00000  Uiso   1.00
H785   H     0.44974   0.88608   0.56627   0.00000  Uiso   1.00
N786   N     0.47827   0.81890   0.73543   0.00000  Uiso   1.00
N787   N     0.52173   0.84777   0.76458   0.00000  Uiso   1.00
O788   O     0.63102   0.91296   0.75358   0.00000  Uiso   1.00
O789   O     0.44688   0.98431   0.70490   0.00000  Uiso   1.00
O790   O     0.39075   0.90371   0.74424   0.00000  Uiso   1.00
O791   O     0.64823   0.84024   0.83380   0.00000  Uiso   1.00
O792   O     0.40796   0.83099   0.82446   0.00000  Uiso   1.00
O793   O     0.60925   0.76296   0.75577   0.00000  Uiso   1.00
O794   O     0.36898   0.75371   0.74643   0.00000  Uiso   1.00
O795   O     0.59204   0.83567   0.67554   0.00000  Uiso   1.00
O796   O     0.35177   0.82642   0.66620   0.00000  Uiso   1.00
O797   O     0.37292   0.69428   0.65718   0.00000  Uiso   1.00
Zn798  Zn    0.60453   0.83951   0.75624   0.00000  Uiso   1.00
Zn799  Zn    0.39547   0.82716   0.74377   0.00000  Uiso   1.00
C800   C     0.68031   0.93130   0.74522   0.00000  Uiso   1.00
C801   C     0.73034   0.86364   0.91020   0.00000  Uiso   1.00
C802   C     0.68283   0.98408   0.73116   0.00000  Uiso   1.00
C803   C     0.70496   0.84414   0.85349   0.00000  Uiso   1.00
C804   C     0.97626   0.68024   0.74631   0.00000  Uiso   1.00
C805   C     0.98418   0.73506   0.74796   0.00000  Uiso   1.00
C806   C     0.96322   0.82898   0.64602   0.00000  Uiso   1.00
C807   C     0.95177   0.80121   0.99787   0.00000  Uiso   1.00
C808   C     0.94211   0.82582   0.58812   0.00000  Uiso   1.00
C809   C     0.69458   0.88469   0.94207   0.00000  Uiso   1.00
C810   C     0.71580   0.89480   0.99777   0.00000  Uiso   1.00
C811   C     0.80960   0.86230   0.99063   0.00000  Uiso   1.00
C812   C     0.77150   0.88113   0.52252   0.00000  Uiso   1.00
C813   C     0.72333   0.66737   0.69548   0.00000  Uiso   1.00
C814   C     0.79066   0.86031   0.93369   0.00000  Uiso   1.00
C815   C     0.86555   0.84454   0.51244   0.00000  Uiso   1.00
C816   C     0.89964   0.82414   0.97723   0.00000  Uiso   1.00
C817   C     0.88354   0.83076   0.92216   0.00000  Uiso   1.00
C818   C     0.83292   0.85421   0.90223   0.00000  Uiso   1.00
C819   C     0.88862   0.84601   0.56783   0.00000  Uiso   1.00
C820   C     0.97327   0.80225   0.55358   0.00000  Uiso   1.00
H821   H     0.68104   0.78561   0.56954   0.00000  Uiso   1.00
H822   H     0.68764   0.91045   0.52234   0.00000  Uiso   1.00
H823   H     0.82813   0.86839   0.86246   0.00000  Uiso   1.00
H824   H     0.80315   0.99782   0.67786   0.00000  Uiso   1.00
H825   H     0.94227   0.99804   0.76597   0.00000  Uiso   1.00
H826   H     0.82382   0.78864   0.71333   0.00000  Uiso   1.00
H827   H     0.84285   0.88036   0.78289   0.00000  Uiso   1.00
H828   H     0.91138   0.82029   0.89501   0.00000  Uiso   1.00
H829   H     0.97699   0.78457   0.97097   0.00000  Uiso   1.00
H830   H     0.86639   0.86394   0.59609   0.00000  Uiso   1.00
H831   H     0.98346   0.89291   0.92406   0.00000  Uiso   1.00
H832   H     0.78308   0.88608   0.56627   0.00000  Uiso   1.00
N833   N     0.81160   0.81890   0.73543   0.00000  Uiso   1.00
N834   N     0.85507   0.84777   0.76458   0.00000  Uiso   1.00
O835   O     0.96435   0.91296   0.75358   0.00000  Uiso   1.00
O836   O     0.78021   0.98431   0.70490   0.00000  Uiso   1.00
O837   O     0.72408   0.90371   0.74424   0.00000  Uiso   1.00
O838   O     0.98157   0.84024   0.83380   0.00000  Uiso   1.00
O839   O     0.74130   0.83099   0.82446   0.00000  Uiso   1.00
O840   O     0.94258   0.76296   0.75577   0.00000  Uiso   1.00
O841   O     0.70231   0.75371   0.74643   0.00000  Uiso   1.00
O842   O     0.92537   0.83567   0.67554   0.00000  Uiso   1.00
O843   O     0.68510   0.82642   0.66620   0.00000  Uiso   1.00
O844   O     0.70625   0.69428   0.65718   0.00000  Uiso   1.00
Zn845  Zn    0.93786   0.83951   0.75624   0.00000  Uiso   1.00
Zn846  Zn    0.72881   0.82716   0.74377   0.00000  Uiso   1.00
loop_
_geom_bond_atom_site_label_1
_geom_bond_atom_site_label_2
_geom_bond_distance
_geom_bond_site_symmetry_2
_ccdc_geom_bond_type
C1     O38     1.290   .     A
C1     C3      1.417   .     S
C1     O130    1.280   1_455 S
C2     C4      1.475   .     S
C2     C15     1.418   .     A
C2     C10     1.399   .     A
C3     C240    1.349   1_455 S
C3     C155    1.497   .     S
C4     O40     1.290   .     A
C4     O133    1.308   1_455 S
C5     C6      1.406   .     S
C5     C332    1.349   1_545 S
C5     H308    1.088   1_545 S
C6     O41     1.292   .     A
C6     O89     1.275   .     S
C7     O43     1.291   .     A
C7     C9      1.432   .     S
C7     O91     1.290   .     S
C8     C17     1.399   .     A
C8     H30     1.084   .     S
C8     C444    1.383   .     S
C9     C20     1.390   .     A
C9     C21     1.396   .     A
C10    C11     1.390   .     A
C10    H126    1.080   1_455 S
C11    C436    1.393   .     S
C11    H446    1.083   .     S
C12    C15     1.405   .     A
C12    C436    1.419   .     S
C12    C439    1.420   .     S
C13    H33     1.077   .     S
C13    C435    1.419   1_554 S
C13    C434    1.393   1_554 S
C14    O45     1.224   .     D
C14    C285    1.497   1_545 S
C14    O319    1.399   1_545 S
C15    C19     1.409   .     A
C16    C20     1.381   .     A
C16    C435    1.420   1_554 S
C16    C440    1.423   1_554 S
C17    C18     1.378   .     A
C17    C439    1.423   .     S
C18    H29     1.081   .     S
C18    C19     1.373   .     A
C19    H24     1.067   .     S
C20    H31     1.075   .     S
C21    C431    1.383   1_554 S
C21    H69     1.083   .     S
H22    C115    1.083   1_455 S
H23    C434    1.083   1_554 S
H25    O37     1.014   .     S
H26    C146    1.088   .     S
H27    N34     1.029   .     S
H28    N35     1.027   .     S
H32    C57     1.080   .     S
N34    N35     1.285   .     D
N34    Zn47    2.019   .     S
N35    Zn46    2.019   .     S
O36    Zn46    1.955   .     S
O36    C48     1.280   .     S
O37    C155    1.399   .     S
O38    Zn47    1.978   .     S
O39    Zn46    1.999   .     S
O39    C51     1.308   .     S
O40    Zn47    1.988   .     S
O41    Zn46    1.978   .     S
O42    Zn47    1.955   .     S
O42    C100    1.275   1_455 S
O43    Zn46    1.988   .     S
O44    Zn47    1.999   .     S
O44    C101    1.290   1_455 S
C48    O85     1.290   .     A
C48    C50     1.417   .     S
C49    C51     1.475   .     S
C49    C62     1.418   .     A
C49    C57     1.399   .     A
C50    C146    1.349   .     S
C50    C202    1.497   .     S
C51    O87     1.290   .     A
C52    C53     1.406   .     S
C52    C379    1.349   1_545 S
C52    H355    1.088   1_545 S
C53    O88     1.292   .     A
C53    O136    1.275   .     S
C54    O90     1.291   .     A
C54    C56     1.432   .     S
C54    O138    1.290   .     S
C55    C64     1.399   .     A
C55    H77     1.084   .     S
C55    C491    1.383   .     S
C56    C67     1.390   .     A
C56    C68     1.396   .     A
C57    C58     1.390   .     A
C58    C483    1.393   .     S
C58    H493    1.083   .     S
C59    C62     1.405   .     A
C59    C483    1.419   .     S
C59    C486    1.420   .     S
C60    H80     1.077   .     S
C60    C482    1.419   1_554 S
C60    C481    1.393   1_554 S
C61    O92     1.224   .     D
C61    C332    1.497   1_545 S
C61    O366    1.399   1_545 S
C62    C66     1.409   .     A
C63    C67     1.381   .     A
C63    C482    1.420   1_554 S
C63    C487    1.423   1_554 S
C64    C65     1.378   .     A
C64    C486    1.423   .     S
C65    H76     1.081   .     S
C65    C66     1.373   .     A
C66    H71     1.067   .     S
C67    H78     1.075   .     S
C68    C478    1.383   1_554 S
C68    H116    1.083   .     S
H70    C481    1.083   1_554 S
H72    O84     1.014   .     S
H73    C193    1.088   .     S
H74    N81     1.029   .     S
H75    N82     1.027   .     S
H79    C104    1.080   .     S
N81    N82     1.285   .     D
N81    Zn94    2.019   .     S
N82    Zn93    2.019   .     S
O83    Zn93    1.955   .     S
O83    C95     1.280   .     S
O84    C202    1.399   .     S
O85    Zn94    1.978   .     S
O86    Zn93    1.999   .     S
O86    C98     1.308   .     S
O87    Zn94    1.988   .     S
O88    Zn93    1.978   .     S
O89    Zn94    1.955   .     S
O90    Zn93    1.988   .     S
O91    Zn94    1.999   .     S
C95    O132    1.290   .     A
C95    C97     1.417   .     S
C96    C98     1.475   .     S
C96    C109    1.418   .     A
C96    C104    1.399   .     A
C97    C193    1.349   .     S
C97    C249    1.497   .     S
C98    O134    1.290   .     A
C99    C100    1.406   .     S
C99    C285    1.349   1_645 S
C99    H402    1.088   1_545 S
C100   O135    1.292   .     A
C100   O42     1.275   1_655 S
C101   O137    1.291   .     A
C101   C103    1.432   .     S
C101   O44     1.290   1_655 S
C102   C111    1.399   .     A
C102   H124    1.084   .     S
C102   C538    1.383   .     S
C103   C114    1.390   .     A
C103   C115    1.396   .     A
C104   C105    1.390   .     A
C105   C530    1.393   .     S
C105   H540    1.083   .     S
C106   C109    1.405   .     A
C106   C530    1.419   .     S
C106   C533    1.420   .     S
C107   H127    1.077   .     S
C107   C529    1.419   1_554 S
C107   C528    1.393   1_554 S
C108   O139    1.224   .     D
C108   C379    1.497   1_545 S
C108   O413    1.399   1_545 S
C109   C113    1.409   .     A
C110   C114    1.381   .     A
C110   C529    1.420   1_554 S
C110   C534    1.423   1_554 S
C111   C112    1.378   .     A
C111   C533    1.423   .     S
C112   H123    1.081   .     S
C112   C113    1.373   .     A
C113   H118    1.067   .     S
C114   H125    1.075   .     S
C115   C525    1.383   1_554 S
C115   H22     1.083   1_655 S
H117   C528    1.083   1_554 S
H119   O131    1.014   .     S
H120   C240    1.088   .     S
H121   N128    1.029   .     S
H122   N129    1.027   .     S
H126   C10     1.080   1_655 S
N128   N129    1.285   .     D
N128   Zn141   2.019   .     S
N129   Zn140   2.019   .     S
O130   Zn140   1.955   .     S
O130   C1      1.280   1_655 S
O131   C249    1.399   .     S
O132   Zn141   1.978   .     S
O133   Zn140   1.999   .     S
O133   C4      1.308   1_655 S
O134   Zn141   1.988   .     S
O135   Zn140   1.978   .     S
O136   Zn141   1.955   .     S
O137   Zn140   1.988   .     S
O138   Zn141   1.999   .     S
C142   O179    1.290   .     A
C142   C144    1.417   .     S
C142   O271    1.280   1_455 S
C143   C145    1.475   .     S
C143   C156    1.418   .     A
C143   C151    1.399   .     A
C144   C381    1.349   1_455 S
C144   C296    1.497   .     S
C145   O181    1.290   .     A
C145   O274    1.308   1_455 S
C146   C147    1.406   .     S
C147   O182    1.292   .     A
C147   O230    1.275   .     S
C148   O184    1.291   .     A
C148   C150    1.432   .     S
C148   O232    1.290   .     S
C149   C158    1.399   .     A
C149   H171    1.084   .     S
C149   C585    1.383   .     S
C150   C161    1.390   .     A
C150   C162    1.396   .     A
C151   C152    1.390   .     A
C151   H267    1.080   1_455 S
C152   C577    1.393   .     S
C152   H587    1.083   .     S
C153   C156    1.405   .     A
C153   C577    1.419   .     S
C153   C580    1.420   .     S
C154   H174    1.077   .     S
C154   C576    1.419   1_554 S
C154   C575    1.393   1_554 S
C155   O186    1.224   .     D
C156   C160    1.409   .     A
C157   C161    1.381   .     A
C157   C576    1.420   1_554 S
C157   C581    1.423   1_554 S
C158   C159    1.378   .     A
C158   C580    1.423   .     S
C159   H170    1.081   .     S
C159   C160    1.373   .     A
C160   H165    1.067   .     S
C161   H172    1.075   .     S
C162   C572    1.383   1_554 S
C162   H210    1.083   .     S
H163   C256    1.083   1_455 S
H164   C575    1.083   1_554 S
H166   O178    1.014   .     S
H167   C287    1.088   .     S
H168   N175    1.029   .     S
H169   N176    1.027   .     S
H173   C198    1.080   .     S
N175   N176    1.285   .     D
N175   Zn188   2.019   .     S
N176   Zn187   2.019   .     S
O177   Zn187   1.955   .     S
O177   C189    1.280   .     S
O178   C296    1.399   .     S
O179   Zn188   1.978   .     S
O180   Zn187   1.999   .     S
O180   C192    1.308   .     S
O181   Zn188   1.988   .     S
O182   Zn187   1.978   .     S
O183   Zn188   1.955   .     S
O183   C241    1.275   1_455 S
O184   Zn187   1.988   .     S
O185   Zn188   1.999   .     S
O185   C242    1.290   1_455 S
C189   O226    1.290   .     A
C189   C191    1.417   .     S
C190   C192    1.475   .     S
C190   C203    1.418   .     A
C190   C198    1.399   .     A
C191   C287    1.349   .     S
C191   C343    1.497   .     S
C192   O228    1.290   .     A
C193   C194    1.406   .     S
C194   O229    1.292   .     A
C194   O277    1.275   .     S
C195   O231    1.291   .     A
C195   C197    1.432   .     S
C195   O279    1.290   .     S
C196   C205    1.399   .     A
C196   H218    1.084   .     S
C196   C632    1.383   .     S
C197   C208    1.390   .     A
C197   C209    1.396   .     A
C198   C199    1.390   .     A
C199   C624    1.393   .     S
C199   H634    1.083   .     S
C200   C203    1.405   .     A
C200   C624    1.419   .     S
C200   C627    1.420   .     S
C201   H221    1.077   .     S
C201   C623    1.419   1_554 S
C201   C622    1.393   1_554 S
C202   O233    1.224   .     D
C203   C207    1.409   .     A
C204   C208    1.381   .     A
C204   C623    1.420   1_554 S
C204   C628    1.423   1_554 S
C205   C206    1.378   .     A
C205   C627    1.423   .     S
C206   H217    1.081   .     S
C206   C207    1.373   .     A
C207   H212    1.067   .     S
C208   H219    1.075   .     S
C209   C619    1.383   1_554 S
C209   H257    1.083   .     S
H211   C622    1.083   1_554 S
H213   O225    1.014   .     S
H214   C334    1.088   .     S
H215   N222    1.029   .     S
H216   N223    1.027   .     S
H220   C245    1.080   .     S
N222   N223    1.285   .     D
N222   Zn235   2.019   .     S
N223   Zn234   2.019   .     S
O224   Zn234   1.955   .     S
O224   C236    1.280   .     S
O225   C343    1.399   .     S
O226   Zn235   1.978   .     S
O227   Zn234   1.999   .     S
O227   C239    1.308   .     S
O228   Zn235   1.988   .     S
O229   Zn234   1.978   .     S
O230   Zn235   1.955   .     S
O231   Zn234   1.988   .     S
O232   Zn235   1.999   .     S
C236   O273    1.290   .     A
C236   C238    1.417   .     S
C237   C239    1.475   .     S
C237   C250    1.418   .     A
C237   C245    1.399   .     A
C238   C334    1.349   .     S
C238   C390    1.497   .     S
C239   O275    1.290   .     A
C240   C241    1.406   .     S
C240   C3      1.349   1_655 S
C241   O276    1.292   .     A
C241   O183    1.275   1_655 S
C242   O278    1.291   .     A
C242   C244    1.432   .     S
C242   O185    1.290   1_655 S
C243   C252    1.399   .     A
C243   H265    1.084   .     S
C243   C679    1.383   .     S
C244   C255    1.390   .     A
C244   C256    1.396   .     A
C245   C246    1.390   .     A
C246   C671    1.393   .     S
C246   H681    1.083   .     S
C247   C250    1.405   .     A
C247   C671    1.419   .     S
C247   C674    1.420   .     S
C248   H268    1.077   .     S
C248   C670    1.419   1_554 S
C248   C669    1.393   1_554 S
C249   O280    1.224   .     D
C250   C254    1.409   .     A
C251   C255    1.381   .     A
C251   C670    1.420   1_554 S
C251   C675    1.423   1_554 S
C252   C253    1.378   .     A
C252   C674    1.423   .     S
C253   H264    1.081   .     S
C253   C254    1.373   .     A
C254   H259    1.067   .     S
C255   H266    1.075   .     S
C256   C666    1.383   1_554 S
C256   H163    1.083   1_655 S
H258   C669    1.083   1_554 S
H260   O272    1.014   .     S
H261   C381    1.088   .     S
H262   N269    1.029   .     S
H263   N270    1.027   .     S
H267   C151    1.080   1_655 S
N269   N270    1.285   .     D
N269   Zn282   2.019   .     S
N270   Zn281   2.019   .     S
O271   Zn281   1.955   .     S
O271   C142    1.280   1_655 S
O272   C390    1.399   .     S
O273   Zn282   1.978   .     S
O274   Zn281   1.999   .     S
O274   C145    1.308   1_655 S
O275   Zn282   1.988   .     S
O276   Zn281   1.978   .     S
O277   Zn282   1.955   .     S
O278   Zn281   1.988   .     S
O279   Zn282   1.999   .     S
C283   O320    1.290   .     A
C283   C285    1.417   .     S
C283   O412    1.280   1_455 S
C284   C286    1.475   .     S
C284   C297    1.418   .     A
C284   C292    1.399   .     A
C285   C99     1.349   1_465 S
C285   C14     1.497   1_565 S
C286   O322    1.290   .     A
C286   O415    1.308   1_455 S
C287   C288    1.406   .     S
C288   O323    1.292   .     A
C288   O371    1.275   .     S
C289   O325    1.291   .     A
C289   C291    1.432   .     S
C289   O373    1.290   .     S
C290   C299    1.399   .     A
C290   H312    1.084   .     S
C290   C726    1.383   .     S
C291   C302    1.390   .     A
C291   C303    1.396   .     A
C292   C293    1.390   .     A
C292   H408    1.080   1_455 S
C293   C718    1.393   .     S
C293   H728    1.083   .     S
C294   C297    1.405   .     A
C294   C718    1.419   .     S
C294   C721    1.420   .     S
C295   H315    1.077   .     S
C295   C717    1.419   1_554 S
C295   C716    1.393   1_554 S
C296   O327    1.224   .     D
C297   C301    1.409   .     A
C298   C302    1.381   .     A
C298   C717    1.420   1_554 S
C298   C722    1.423   1_554 S
C299   C300    1.378   .     A
C299   C721    1.423   .     S
C300   H311    1.081   .     S
C300   C301    1.373   .     A
C301   H306    1.067   .     S
C302   H313    1.075   .     S
C303   C713    1.383   1_554 S
C303   H351    1.083   .     S
H304   C397    1.083   1_455 S
H305   C716    1.083   1_554 S
H307   O319    1.014   .     S
H308   C5      1.088   1_565 S
H309   N316    1.029   .     S
H310   N317    1.027   .     S
H314   C339    1.080   .     S
N316   N317    1.285   .     D
N316   Zn329   2.019   .     S
N317   Zn328   2.019   .     S
O318   Zn328   1.955   .     S
O318   C330    1.280   .     S
O319   C14     1.399   1_565 S
O320   Zn329   1.978   .     S
O321   Zn328   1.999   .     S
O321   C333    1.308   .     S
O322   Zn329   1.988   .     S
O323   Zn328   1.978   .     S
O324   Zn329   1.955   .     S
O324   C382    1.275   1_455 S
O325   Zn328   1.988   .     S
O326   Zn329   1.999   .     S
O326   C383    1.290   1_455 S
C330   O367    1.290   .     A
C330   C332    1.417   .     S
C331   C333    1.475   .     S
C331   C344    1.418   .     A
C331   C339    1.399   .     A
C332   C5      1.349   1_565 S
C332   C61     1.497   1_565 S
C333   O369    1.290   .     A
C334   C335    1.406   .     S
C335   O370    1.292   .     A
C335   O418    1.275   .     S
C336   O372    1.291   .     A
C336   C338    1.432   .     S
C336   O420    1.290   .     S
C337   C346    1.399   .     A
C337   H359    1.084   .     S
C337   C773    1.383   .     S
C338   C349    1.390   .     A
C338   C350    1.396   .     A
C339   C340    1.390   .     A
C340   C765    1.393   .     S
C340   H775    1.083   .     S
C341   C344    1.405   .     A
C341   C765    1.419   .     S
C341   C768    1.420   .     S
C342   H362    1.077   .     S
C342   C764    1.419   1_554 S
C342   C763    1.393   1_554 S
C343   O374    1.224   .     D
C344   C348    1.409   .     A
C345   C349    1.381   .     A
C345   C764    1.420   1_554 S
C345   C769    1.423   1_554 S
C346   C347    1.378   .     A
C346   C768    1.423   .     S
C347   H358    1.081   .     S
C347   C348    1.373   .     A
C348   H353    1.067   .     S
C349   H360    1.075   .     S
C350   C760    1.383   1_554 S
C350   H398    1.083   .     S
H352   C763    1.083   1_554 S
H354   O366    1.014   .     S
H355   C52     1.088   1_565 S
H356   N363    1.029   .     S
H357   N364    1.027   .     S
H361   C386    1.080   .     S
N363   N364    1.285   .     D
N363   Zn376   2.019   .     S
N364   Zn375   2.019   .     S
O365   Zn375   1.955   .     S
O365   C377    1.280   .     S
O366   C61     1.399   1_565 S
O367   Zn376   1.978   .     S
O368   Zn375   1.999   .     S
O368   C380    1.308   .     S
O369   Zn376   1.988   .     S
O370   Zn375   1.978   .     S
O371   Zn376   1.955   .     S
O372   Zn375   1.988   .     S
O373   Zn376   1.999   .     S
C377   O414    1.290   .     A
C377   C379    1.417   .     S
C378   C380    1.475   .     S
C378   C391    1.418   .     A
C378   C386    1.399   .     A
C379   C52     1.349   1_565 S
C379   C108    1.497   1_565 S
C380   O416    1.290   .     A
C381   C382    1.406   .     S
C381   C144    1.349   1_655 S
C382   O417    1.292   .     A
C382   O324    1.275   1_655 S
C383   O419    1.291   .     A
C383   C385    1.432   .     S
C383   O326    1.290   1_655 S
C384   C393    1.399   .     A
C384   H406    1.084   .     S
C384   C820    1.383   .     S
C385   C396    1.390   .     A
C385   C397    1.396   .     A
C386   C387    1.390   .     A
C387   C812    1.393   .     S
C387   H822    1.083   .     S
C388   C391    1.405   .     A
C388   C812    1.419   .     S
C388   C815    1.420   .     S
C389   H409    1.077   .     S
C389   C811    1.419   1_554 S
C389   C810    1.393   1_554 S
C390   O421    1.224   .     D
C391   C395    1.409   .     A
C392   C396    1.381   .     A
C392   C811    1.420   1_554 S
C392   C816    1.423   1_554 S
C393   C394    1.378   .     A
C393   C815    1.423   .     S
C394   H405    1.081   .     S
C394   C395    1.373   .     A
C395   H400    1.067   .     S
C396   H407    1.075   .     S
C397   C807    1.383   1_554 S
C397   H304    1.083   1_655 S
H399   C810    1.083   1_554 S
H401   O413    1.014   .     S
H402   C99     1.088   1_565 S
H403   N410    1.029   .     S
H404   N411    1.027   .     S
H408   C292    1.080   1_655 S
N410   N411    1.285   .     D
N410   Zn423   2.019   .     S
N411   Zn422   2.019   .     S
O412   Zn422   1.955   .     S
O412   C283    1.280   1_655 S
O413   C108    1.399   1_565 S
O414   Zn423   1.978   .     S
O415   Zn422   1.999   .     S
O415   C286    1.308   1_655 S
O416   Zn423   1.988   .     S
O417   Zn422   1.978   .     S
O418   Zn423   1.955   .     S
O419   Zn422   1.988   .     S
O420   Zn423   1.999   .     S
C424   O461    1.290   .     A
C424   C426    1.417   .     S
C424   O553    1.280   1_455 S
C425   C427    1.475   .     S
C425   C438    1.418   .     A
C425   C433    1.399   .     A
C426   C663    1.349   1_455 S
C426   C578    1.497   .     S
C427   O463    1.290   .     A
C427   O556    1.308   1_455 S
C428   C429    1.406   .     S
C428   C755    1.349   1_545 S
C428   H731    1.088   1_545 S
C429   O464    1.292   .     A
C429   O512    1.275   .     S
C430   O466    1.291   .     A
C430   C432    1.432   .     S
C430   O514    1.290   .     S
C431   C440    1.399   .     A
C431   H453    1.084   .     S
C431   C21     1.383   1_556 S
C432   C443    1.390   .     A
C432   C444    1.396   .     A
C433   C434    1.390   .     A
C433   H549    1.080   1_455 S
C434   C13     1.393   1_556 S
C434   H23     1.083   1_556 S
C435   C438    1.405   .     A
C435   C13     1.419   1_556 S
C435   C16     1.420   1_556 S
C436   H456    1.077   .     S
C437   O468    1.224   .     D
C437   C708    1.497   1_545 S
C437   O742    1.399   1_545 S
C438   C442    1.409   .     A
C439   C443    1.381   .     A
C440   C441    1.378   .     A
C440   C16     1.423   1_556 S
C441   H452    1.081   .     S
C441   C442    1.373   .     A
C442   H447    1.067   .     S
C443   H454    1.075   .     S
C444   H492    1.083   .     S
H445   C538    1.083   1_455 S
H448   O460    1.014   .     S
H449   C569    1.088   .     S
H450   N457    1.029   .     S
H451   N458    1.027   .     S
H455   C480    1.080   .     S
N457   N458    1.285   .     D
N457   Zn470   2.019   .     S
N458   Zn469   2.019   .     S
O459   Zn469   1.955   .     S
O459   C471    1.280   .     S
O460   C578    1.399   .     S
O461   Zn470   1.978   .     S
O462   Zn469   1.999   .     S
O462   C474    1.308   .     S
O463   Zn470   1.988   .     S
O464   Zn469   1.978   .     S
O465   Zn470   1.955   .     S
O465   C523    1.275   1_455 S
O466   Zn469   1.988   .     S
O467   Zn470   1.999   .     S
O467   C524    1.290   1_455 S
C471   O508    1.290   .     A
C471   C473    1.417   .     S
C472   C474    1.475   .     S
C472   C485    1.418   .     A
C472   C480    1.399   .     A
C473   C569    1.349   .     S
C473   C625    1.497   .     S
C474   O510    1.290   .     A
C475   C476    1.406   .     S
C475   C802    1.349   1_545 S
C475   H778    1.088   1_545 S
C476   O511    1.292   .     A
C476   O559    1.275   .     S
C477   O513    1.291   .     A
C477   C479    1.432   .     S
C477   O561    1.290   .     S
C478   C487    1.399   .     A
C478   H500    1.084   .     S
C478   C68     1.383   1_556 S
C479   C490    1.390   .     A
C479   C491    1.396   .     A
C480   C481    1.390   .     A
C481   C60     1.393   1_556 S
C481   H70     1.083   1_556 S
C482   C485    1.405   .     A
C482   C60     1.419   1_556 S
C482   C63     1.420   1_556 S
C483   H503    1.077   .     S
C484   O515    1.224   .     D
C484   C755    1.497   1_545 S
C484   O789    1.399   1_545 S
C485   C489    1.409   .     A
C486   C490    1.381   .     A
C487   C488    1.378   .     A
C487   C63     1.423   1_556 S
C488   H499    1.081   .     S
C488   C489    1.373   .     A
C489   H494    1.067   .     S
C490   H501    1.075   .     S
C491   H539    1.083   .     S
H495   O507    1.014   .     S
H496   C616    1.088   .     S
H497   N504    1.029   .     S
H498   N505    1.027   .     S
H502   C527    1.080   .     S
N504   N505    1.285   .     D
N504   Zn517   2.019   .     S
N505   Zn516   2.019   .     S
O506   Zn516   1.955   .     S
O506   C518    1.280   .     S
O507   C625    1.399   .     S
O508   Zn517   1.978   .     S
O509   Zn516   1.999   .     S
O509   C521    1.308   .     S
O510   Zn517   1.988   .     S
O511   Zn516   1.978   .     S
O512   Zn517   1.955   .     S
O513   Zn516   1.988   .     S
O514   Zn517   1.999   .     S
C518   O555    1.290   .     A
C518   C520    1.417   .     S
C519   C521    1.475   .     S
C519   C532    1.418   .     A
C519   C527    1.399   .     A
C520   C616    1.349   .     S
C520   C672    1.497   .     S
C521   O557    1.290   .     A
C522   C523    1.406   .     S
C522   C708    1.349   1_645 S
C522   H825    1.088   1_545 S
C523   O558    1.292   .     A
C523   O465    1.275   1_655 S
C524   O560    1.291   .     A
C524   C526    1.432   .     S
C524   O467    1.290   1_655 S
C525   C534    1.399   .     A
C525   H547    1.084   .     S
C525   C115    1.383   1_556 S
C526   C537    1.390   .     A
C526   C538    1.396   .     A
C527   C528    1.390   .     A
C528   C107    1.393   1_556 S
C528   H117    1.083   1_556 S
C529   C532    1.405   .     A
C529   C107    1.419   1_556 S
C529   C110    1.420   1_556 S
C530   H550    1.077   .     S
C531   O562    1.224   .     D
C531   C802    1.497   1_545 S
C531   O836    1.399   1_545 S
C532   C536    1.409   .     A
C533   C537    1.381   .     A
C534   C535    1.378   .     A
C534   C110    1.423   1_556 S
C535   H546    1.081   .     S
C535   C536    1.373   .     A
C536   H541    1.067   .     S
C537   H548    1.075   .     S
C538   H445    1.083   1_655 S
H542   O554    1.014   .     S
H543   C663    1.088   .     S
H544   N551    1.029   .     S
H545   N552    1.027   .     S
H549   C433    1.080   1_655 S
N551   N552    1.285   .     D
N551   Zn564   2.019   .     S
N552   Zn563   2.019   .     S
O553   Zn563   1.955   .     S
O553   C424    1.280   1_655 S
O554   C672    1.399   .     S
O555   Zn564   1.978   .     S
O556   Zn563   1.999   .     S
O556   C427    1.308   1_655 S
O557   Zn564   1.988   .     S
O558   Zn563   1.978   .     S
O559   Zn564   1.955   .     S
O560   Zn563   1.988   .     S
O561   Zn564   1.999   .     S
C565   O602    1.290   .     A
C565   C567    1.417   .     S
C565   O694    1.280   1_455 S
C566   C568    1.475   .     S
C566   C579    1.418   .     A
C566   C574    1.399   .     A
C567   C804    1.349   1_455 S
C567   C719    1.497   .     S
C568   O604    1.290   .     A
C568   O697    1.308   1_455 S
C569   C570    1.406   .     S
C570   O605    1.292   .     A
C570   O653    1.275   .     S
C571   O607    1.291   .     A
C571   C573    1.432   .     S
C571   O655    1.290   .     S
C572   C581    1.399   .     A
C572   H594    1.084   .     S
C572   C162    1.383   1_556 S
C573   C584    1.390   .     A
C573   C585    1.396   .     A
C574   C575    1.390   .     A
C574   H690    1.080   1_455 S
C575   C154    1.393   1_556 S
C575   H164    1.083   1_556 S
C576   C579    1.405   .     A
C576   C154    1.419   1_556 S
C576   C157    1.420   1_556 S
C577   H597    1.077   .     S
C578   O609    1.224   .     D
C579   C583    1.409   .     A
C580   C584    1.381   .     A
C581   C582    1.378   .     A
C581   C157    1.423   1_556 S
C582   H593    1.081   .     S
C582   C583    1.373   .     A
C583   H588    1.067   .     S
C584   H595    1.075   .     S
C585   H633    1.083   .     S
H586   C679    1.083   1_455 S
H589   O601    1.014   .     S
H590   C710    1.088   .     S
H591   N598    1.029   .     S
H592   N599    1.027   .     S
H596   C621    1.080   .     S
N598   N599    1.285   .     D
N598   Zn611   2.019   .     S
N599   Zn610   2.019   .     S
O600   Zn610   1.955   .     S
O600   C612    1.280   .     S
O601   C719    1.399   .     S
O602   Zn611   1.978   .     S
O603   Zn610   1.999   .     S
O603   C615    1.308   .     S
O604   Zn611   1.988   .     S
O605   Zn610   1.978   .     S
O606   Zn611   1.955   .     S
O606   C664    1.275   1_455 S
O607   Zn610   1.988   .     S
O608   Zn611   1.999   .     S
O608   C665    1.290   1_455 S
C612   O649    1.290   .     A
C612   C614    1.417   .     S
C613   C615    1.475   .     S
C613   C626    1.418   .     A
C613   C621    1.399   .     A
C614   C710    1.349   .     S
C614   C766    1.497   .     S
C615   O651    1.290   .     A
C616   C617    1.406   .     S
C617   O652    1.292   .     A
C617   O700    1.275   .     S
C618   O654    1.291   .     A
C618   C620    1.432   .     S
C618   O702    1.290   .     S
C619   C628    1.399   .     A
C619   H641    1.084   .     S
C619   C209    1.383   1_556 S
C620   C631    1.390   .     A
C620   C632    1.396   .     A
C621   C622    1.390   .     A
C622   C201    1.393   1_556 S
C622   H211    1.083   1_556 S
C623   C626    1.405   .     A
C623   C201    1.419   1_556 S
C623   C204    1.420   1_556 S
C624   H644    1.077   .     S
C625   O656    1.224   .     D
C626   C630    1.409   .     A
C627   C631    1.381   .     A
C628   C629    1.378   .     A
C628   C204    1.423   1_556 S
C629   H640    1.081   .     S
C629   C630    1.373   .     A
C630   H635    1.067   .     S
C631   H642    1.075   .     S
C632   H680    1.083   .     S
H636   O648    1.014   .     S
H637   C757    1.088   .     S
H638   N645    1.029   .     S
H639   N646    1.027   .     S
H643   C668    1.080   .     S
N645   N646    1.285   .     D
N645   Zn658   2.019   .     S
N646   Zn657   2.019   .     S
O647   Zn657   1.955   .     S
O647   C659    1.280   .     S
O648   C766    1.399   .     S
O649   Zn658   1.978   .     S
O650   Zn657   1.999   .     S
O650   C662    1.308   .     S
O651   Zn658   1.988   .     S
O652   Zn657   1.978   .     S
O653   Zn658   1.955   .     S
O654   Zn657   1.988   .     S
O655   Zn658   1.999   .     S
C659   O696    1.290   .     A
C659   C661    1.417   .     S
C660   C662    1.475   .     S
C660   C673    1.418   .     A
C660   C668    1.399   .     A
C661   C757    1.349   .     S
C661   C813    1.497   .     S
C662   O698    1.290   .     A
C663   C664    1.406   .     S
C663   C426    1.349   1_655 S
C664   O699    1.292   .     A
C664   O606    1.275   1_655 S
C665   O701    1.291   .     A
C665   C667    1.432   .     S
C665   O608    1.290   1_655 S
C666   C675    1.399   .     A
C666   H688    1.084   .     S
C666   C256    1.383   1_556 S
C667   C678    1.390   .     A
C667   C679    1.396   .     A
C668   C669    1.390   .     A
C669   C248    1.393   1_556 S
C669   H258    1.083   1_556 S
C670   C673    1.405   .     A
C670   C248    1.419   1_556 S
C670   C251    1.420   1_556 S
C671   H691    1.077   .     S
C672   O703    1.224   .     D
C673   C677    1.409   .     A
C674   C678    1.381   .     A
C675   C676    1.378   .     A
C675   C251    1.423   1_556 S
C676   H687    1.081   .     S
C676   C677    1.373   .     A
C677   H682    1.067   .     S
C678   H689    1.075   .     S
C679   H586    1.083   1_655 S
H683   O695    1.014   .     S
H684   C804    1.088   .     S
H685   N692    1.029   .     S
H686   N693    1.027   .     S
H690   C574    1.080   1_655 S
N692   N693    1.285   .     D
N692   Zn705   2.019   .     S
N693   Zn704   2.019   .     S
O694   Zn704   1.955   .     S
O694   C565    1.280   1_655 S
O695   C813    1.399   .     S
O696   Zn705   1.978   .     S
O697   Zn704   1.999   .     S
O697   C568    1.308   1_655 S
O698   Zn705   1.988   .     S
O699   Zn704   1.978   .     S
O700   Zn705   1.955   .     S
O701   Zn704   1.988   .     S
O702   Zn705   1.999   .     S
C706   O743    1.290   .     A
C706   C708    1.417   .     S
C706   O835    1.280   1_455 S
C707   C709    1.475   .     S
C707   C720    1.418   .     A
C707   C715    1.399   .     A
C708   C522    1.349   1_465 S
C708   C437    1.497   1_565 S
C709   O745    1.290   .     A
C709   O838    1.308   1_455 S
C710   C711    1.406   .     S
C711   O746    1.292   .     A
C711   O794    1.275   .     S
C712   O748    1.291   .     A
C712   C714    1.432   .     S
C712   O796    1.290   .     S
C713   C722    1.399   .     A
C713   H735    1.084   .     S
C713   C303    1.383   1_556 S
C714   C725    1.390   .     A
C714   C726    1.396   .     A
C715   C716    1.390   .     A
C715   H831    1.080   1_455 S
C716   C295    1.393   1_556 S
C716   H305    1.083   1_556 S
C717   C720    1.405   .     A
C717   C295    1.419   1_556 S
C717   C298    1.420   1_556 S
C718   H738    1.077   .     S
C719   O750    1.224   .     D
C720   C724    1.409   .     A
C721   C725    1.381   .     A
C722   C723    1.378   .     A
C722   C298    1.423   1_556 S
C723   H734    1.081   .     S
C723   C724    1.373   .     A
C724   H729    1.067   .     S
C725   H736    1.075   .     S
C726   H774    1.083   .     S
H727   C820    1.083   1_455 S
H730   O742    1.014   .     S
H731   C428    1.088   1_565 S
H732   N739    1.029   .     S
H733   N740    1.027   .     S
H737   C762    1.080   .     S
N739   N740    1.285   .     D
N739   Zn752   2.019   .     S
N740   Zn751   2.019   .     S
O741   Zn751   1.955   .     S
O741   C753    1.280   .     S
O742   C437    1.399   1_565 S
O743   Zn752   1.978   .     S
O744   Zn751   1.999   .     S
O744   C756    1.308   .     S
O745   Zn752   1.988   .     S
O746   Zn751   1.978   .     S
O747   Zn752   1.955   .     S
O747   C805    1.275   1_455 S
O748   Zn751   1.988   .     S
O749   Zn752   1.999   .     S
O749   C806    1.290   1_455 S
C753   O790    1.290   .     A
C753   C755    1.417   .     S
C754   C756    1.475   .     S
C754   C767    1.418   .     A
C754   C762    1.399   .     A
C755   C428    1.349   1_565 S
C755   C484    1.497   1_565 S
C756   O792    1.290   .     A
C757   C758    1.406   .     S
C758   O793    1.292   .     A
C758   O841    1.275   .     S
C759   O795    1.291   .     A
C759   C761    1.432   .     S
C759   O843    1.290   .     S
C760   C769    1.399   .     A
C760   H782    1.084   .     S
C760   C350    1.383   1_556 S
C761   C772    1.390   .     A
C761   C773    1.396   .     A
C762   C763    1.390   .     A
C763   C342    1.393   1_556 S
C763   H352    1.083   1_556 S
C764   C767    1.405   .     A
C764   C342    1.419   1_556 S
C764   C345    1.420   1_556 S
C765   H785    1.077   .     S
C766   O797    1.224   .     D
C767   C771    1.409   .     A
C768   C772    1.381   .     A
C769   C770    1.378   .     A
C769   C345    1.423   1_556 S
C770   H781    1.081   .     S
C770   C771    1.373   .     A
C771   H776    1.067   .     S
C772   H783    1.075   .     S
C773   H821    1.083   .     S
H777   O789    1.014   .     S
H778   C475    1.088   1_565 S
H779   N786    1.029   .     S
H780   N787    1.027   .     S
H784   C809    1.080   .     S
N786   N787    1.285   .     D
N786   Zn799   2.019   .     S
N787   Zn798   2.019   .     S
O788   Zn798   1.955   .     S
O788   C800    1.280   .     S
O789   C484    1.399   1_565 S
O790   Zn799   1.978   .     S
O791   Zn798   1.999   .     S
O791   C803    1.308   .     S
O792   Zn799   1.988   .     S
O793   Zn798   1.978   .     S
O794   Zn799   1.955   .     S
O795   Zn798   1.988   .     S
O796   Zn799   1.999   .     S
C800   O837    1.290   .     A
C800   C802    1.417   .     S
C801   C803    1.475   .     S
C801   C814    1.418   .     A
C801   C809    1.399   .     A
C802   C475    1.349   1_565 S
C802   C531    1.497   1_565 S
C803   O839    1.290   .     A
C804   C805    1.406   .     S
C804   C567    1.349   1_655 S
C805   O840    1.292   .     A
C805   O747    1.275   1_655 S
C806   O842    1.291   .     A
C806   C808    1.432   .     S
C806   O749    1.290   1_655 S
C807   C816    1.399   .     A
C807   H829    1.084   .     S
C807   C397    1.383   1_556 S
C808   C819    1.390   .     A
C808   C820    1.396   .     A
C809   C810    1.390   .     A
C810   C389    1.393   1_556 S
C810   H399    1.083   1_556 S
C811   C814    1.405   .     A
C811   C389    1.419   1_556 S
C811   C392    1.420   1_556 S
C812   H832    1.077   .     S
C813   O844    1.224   .     D
C814   C818    1.409   .     A
C815   C819    1.381   .     A
C816   C817    1.378   .     A
C816   C392    1.423   1_556 S
C817   H828    1.081   .     S
C817   C818    1.373   .     A
C818   H823    1.067   .     S
C819   H830    1.075   .     S
C820   H727    1.083   1_655 S
H824   O836    1.014   .     S
H825   C522    1.088   1_565 S
H826   N833    1.029   .     S
H827   N834    1.027   .     S
H831   C715    1.080   1_655 S
N833   N834    1.285   .     D
N833   Zn846   2.019   .     S
N834   Zn845   2.019   .     S
O835   Zn845   1.955   .     S
O835   C706    1.280   1_655 S
O836   C531    1.399   1_565 S
O837   Zn846   1.978   .     S
O838   Zn845   1.999   .     S
O838   C709    1.308   1_655 S
O839   Zn846   1.988   .     S
O840   Zn845   1.978   .     S
O841   Zn846   1.955   .     S
O842   Zn845   1.988   .     S
O843   Zn846   1.999   .     S
