data_str_m2_o1_o18_pcu_sym.44
_audit_creation_date              2020-01-03
_audit_creation_method            'Materials Studio'
_symmetry_space_group_name_H-M    'P1'
_symmetry_Int_Tables_number       1
_symmetry_cell_setting            triclinic
loop_
_symmetry_equiv_pos_as_xyz
  x,y,z
_cell_length_a                    28.7660
_cell_length_b                    32.5812
_cell_length_c                    30.6411
_cell_angle_alpha                 88.5851
_cell_angle_beta                  75.0940
_cell_angle_gamma                 90.3465
loop_
_atom_site_label
_atom_site_type_symbol
_atom_site_fract_x
_atom_site_fract_y
_atom_site_fract_z
_atom_site_U_iso_or_equiv
_atom_site_adp_type
_atom_site_occupancy
C1     C     0.33302   0.08740   0.25007   0.00000  Uiso   1.00
C2     C     0.03818   0.02180   0.25904   0.00000  Uiso   1.00
C3     C     0.00056   0.29041   0.25089   0.00000  Uiso   1.00
C4     C     0.33222   0.04267   0.25067   0.00000  Uiso   1.00
C5     C     0.18282   0.14646   0.28314   0.00000  Uiso   1.00
C6     C     0.15037   0.18752   0.21732   0.00000  Uiso   1.00
C7     C     0.13340   0.14617   0.28357   0.00000  Uiso   1.00
C8     C     0.19981   0.18773   0.21684   0.00000  Uiso   1.00
C9     C     0.30630   0.16723   0.33617   0.00000  Uiso   1.00
C10    C     0.02707   0.16656   0.16376   0.00000  Uiso   1.00
C11    C     0.29126   0.17133   0.38541   0.00000  Uiso   1.00
C12    C     0.00020   0.24584   0.25026   0.00000  Uiso   1.00
C13    C     0.04220   0.16552   0.11413   0.00000  Uiso   1.00
C14    C     0.30547   0.19447   0.45521   0.00000  Uiso   1.00
C15    C     0.02678   0.15072   0.04222   0.00000  Uiso   1.00
C16    C     0.32259   0.18665   0.40941   0.00000  Uiso   1.00
C17    C     0.01030   0.15420   0.08884   0.00000  Uiso   1.00
C18    C     0.24296   0.16356   0.40773   0.00000  Uiso   1.00
C19    C     0.09056   0.17383   0.09220   0.00000  Uiso   1.00
C20    C     0.22411   0.17344   0.45323   0.00000  Uiso   1.00
C21    C     0.10837   0.17016   0.04520   0.00000  Uiso   1.00
C22    C     0.25664   0.18807   0.47723   0.00000  Uiso   1.00
C23    C     0.19200   0.19087   0.04519   0.00000  Uiso   1.00
C24    C     0.07542   0.15822   0.02033   0.00000  Uiso   1.00
C25    C     0.17409   0.16927   0.47539   0.00000  Uiso   1.00
C26    C     0.15798   0.17681   0.02251   0.00000  Uiso   1.00
C27    C     0.21398   0.03527   0.27391   0.00000  Uiso   1.00
C28    C     0.16740   0.04085   0.26008   0.00000  Uiso   1.00
C29    C     0.07171   0.28906   0.31611   0.00000  Uiso   1.00
C30    C     0.11239   0.26380   0.32582   0.00000  Uiso   1.00
C31    C     0.09988   0.12402   0.32304   0.00000  Uiso   1.00
C32    C     0.23316   0.21060   0.17782   0.00000  Uiso   1.00
C33    C     0.13951   0.15880   0.45178   0.00000  Uiso   1.00
C34    C     0.24015   0.19662   0.02281   0.00000  Uiso   1.00
C35    C     0.09128   0.15342   0.47391   0.00000  Uiso   1.00
C36    C     0.29268   0.02037   0.24370   0.00000  Uiso   1.00
C37    C     0.03885   0.31253   0.26052   0.00000  Uiso   1.00
C38    C     0.29481   0.31121   0.24221   0.00000  Uiso   1.00
Cu39   Cu    0.04689   0.16667   0.25000   0.00000  Uiso   1.00
Cu40   Cu    0.28645   0.16666   0.25000   0.00000  Uiso   1.00
H41    H     0.26474   0.20783   0.04147   0.00000  Uiso   1.00
H42    H     0.14817   0.15520   0.41576   0.00000  Uiso   1.00
H43    H     0.26523   0.29464   0.23452   0.00000  Uiso   1.00
H44    H     0.06832   0.03851   0.26507   0.00000  Uiso   1.00
H45    H     0.19471   0.13060   0.30967   0.00000  Uiso   1.00
H46    H     0.13830   0.20402   0.19126   0.00000  Uiso   1.00
H47    H     0.21675   0.05904   0.29854   0.00000  Uiso   1.00
H48    H     0.21184   0.00455   0.29128   0.00000  Uiso   1.00
H49    H     0.16236   0.01541   0.23820   0.00000  Uiso   1.00
H50    H     0.13700   0.04045   0.29086   0.00000  Uiso   1.00
H51    H     0.16801   0.07046   0.24125   0.00000  Uiso   1.00
H52    H     0.06623   0.14498   0.45448   0.00000  Uiso   1.00
H53    H     0.03705   0.27300   0.33267   0.00000  Uiso   1.00
H54    H     0.07235   0.31980   0.33109   0.00000  Uiso   1.00
H55    H     0.10813   0.26122   0.36286   0.00000  Uiso   1.00
H56    H     0.11163   0.23249   0.31249   0.00000  Uiso   1.00
H57    H     0.14763   0.27872   0.30957   0.00000  Uiso   1.00
H58    H     0.08216   0.14651   0.34827   0.00000  Uiso   1.00
H59    H     0.07333   0.10471   0.31253   0.00000  Uiso   1.00
H60    H     0.11972   0.10293   0.34066   0.00000  Uiso   1.00
H61    H     0.25996   0.22942   0.18846   0.00000  Uiso   1.00
H62    H     0.25067   0.18862   0.15196   0.00000  Uiso   1.00
H63    H     0.11385   0.18207   0.11299   0.00000  Uiso   1.00
H64    H     0.21318   0.23232   0.16102   0.00000  Uiso   1.00
H65    H     0.22080   0.14976   0.38854   0.00000  Uiso   1.00
H66    H     0.30642   0.14675   0.10510   0.00000  Uiso   1.00
H67    H     0.02649   0.19364   0.39264   0.00000  Uiso   1.00
H68    H     0.33023   0.20648   0.47322   0.00000  Uiso   1.00
H69    H     0.00165   0.14120   0.02336   0.00000  Uiso   1.00
H70    H     0.18274   0.19873   0.08024   0.00000  Uiso   1.00
N71    N     0.11736   0.16668   0.24999   0.00000  Uiso   1.00
N72    N     0.21597   0.16666   0.25001   0.00000  Uiso   1.00
O73    O     0.03958   0.10655   0.25000   0.00000  Uiso   1.00
O74    O     0.07830   0.29293   0.26890   0.00000  Uiso   1.00
O75    O     0.29375   0.22678   0.25000   0.00000  Uiso   1.00
O76    O     0.29372   0.10654   0.25001   0.00000  Uiso   1.00
O77    O     0.03961   0.22679   0.25000   0.00000  Uiso   1.00
O78    O     0.01852   0.16668   0.31492   0.00000  Uiso   1.00
O79    O     0.31481   0.16666   0.18509   0.00000  Uiso   1.00
O80    O     0.27267   0.16667   0.31492   0.00000  Uiso   1.00
O81    O     0.06067   0.16667   0.18508   0.00000  Uiso   1.00
O82    O     0.25317   0.03969   0.23518   0.00000  Uiso   1.00
C83    C     0.66636   0.08740   0.25007   0.00000  Uiso   1.00
C84    C     0.37151   0.02180   0.25904   0.00000  Uiso   1.00
C85    C     0.33389   0.29041   0.25089   0.00000  Uiso   1.00
C86    C     0.66555   0.04267   0.25067   0.00000  Uiso   1.00
C87    C     0.51615   0.14646   0.28314   0.00000  Uiso   1.00
C88    C     0.48370   0.18752   0.21732   0.00000  Uiso   1.00
C89    C     0.46673   0.14617   0.28357   0.00000  Uiso   1.00
C90    C     0.53315   0.18773   0.21684   0.00000  Uiso   1.00
C91    C     0.63964   0.16723   0.33617   0.00000  Uiso   1.00
C92    C     0.36041   0.16656   0.16376   0.00000  Uiso   1.00
C93    C     0.62459   0.17133   0.38541   0.00000  Uiso   1.00
C94    C     0.33354   0.24584   0.25026   0.00000  Uiso   1.00
C95    C     0.37554   0.16552   0.11413   0.00000  Uiso   1.00
C96    C     0.63881   0.19447   0.45521   0.00000  Uiso   1.00
C97    C     0.36012   0.15072   0.04222   0.00000  Uiso   1.00
C98    C     0.65592   0.18665   0.40941   0.00000  Uiso   1.00
C99    C     0.34364   0.15420   0.08884   0.00000  Uiso   1.00
C100   C     0.57629   0.16356   0.40773   0.00000  Uiso   1.00
C101   C     0.42389   0.17383   0.09220   0.00000  Uiso   1.00
C102   C     0.55744   0.17344   0.45323   0.00000  Uiso   1.00
C103   C     0.44170   0.17016   0.04520   0.00000  Uiso   1.00
C104   C     0.58997   0.18807   0.47723   0.00000  Uiso   1.00
C105   C     0.52533   0.19087   0.04519   0.00000  Uiso   1.00
C106   C     0.40876   0.15822   0.02033   0.00000  Uiso   1.00
C107   C     0.50742   0.16927   0.47539   0.00000  Uiso   1.00
C108   C     0.49131   0.17681   0.02251   0.00000  Uiso   1.00
C109   C     0.54731   0.03527   0.27391   0.00000  Uiso   1.00
C110   C     0.50074   0.04085   0.26008   0.00000  Uiso   1.00
C111   C     0.40504   0.28906   0.31611   0.00000  Uiso   1.00
C112   C     0.44572   0.26380   0.32582   0.00000  Uiso   1.00
C113   C     0.43321   0.12402   0.32304   0.00000  Uiso   1.00
C114   C     0.56649   0.21060   0.17782   0.00000  Uiso   1.00
C115   C     0.47284   0.15880   0.45178   0.00000  Uiso   1.00
C116   C     0.57348   0.19662   0.02281   0.00000  Uiso   1.00
C117   C     0.42461   0.15342   0.47391   0.00000  Uiso   1.00
C118   C     0.62602   0.02037   0.24370   0.00000  Uiso   1.00
C119   C     0.37218   0.31253   0.26052   0.00000  Uiso   1.00
C120   C     0.62814   0.31121   0.24221   0.00000  Uiso   1.00
Cu121  Cu    0.38022   0.16667   0.25000   0.00000  Uiso   1.00
Cu122  Cu    0.61978   0.16666   0.25000   0.00000  Uiso   1.00
H123   H     0.59808   0.20783   0.04147   0.00000  Uiso   1.00
H124   H     0.48150   0.15520   0.41576   0.00000  Uiso   1.00
H125   H     0.59856   0.29464   0.23452   0.00000  Uiso   1.00
H126   H     0.40165   0.03851   0.26507   0.00000  Uiso   1.00
H127   H     0.52805   0.13060   0.30967   0.00000  Uiso   1.00
H128   H     0.47163   0.20402   0.19126   0.00000  Uiso   1.00
H129   H     0.55008   0.05904   0.29854   0.00000  Uiso   1.00
H130   H     0.54517   0.00455   0.29128   0.00000  Uiso   1.00
H131   H     0.49570   0.01541   0.23820   0.00000  Uiso   1.00
H132   H     0.47034   0.04045   0.29086   0.00000  Uiso   1.00
H133   H     0.50134   0.07046   0.24125   0.00000  Uiso   1.00
H134   H     0.39956   0.14498   0.45448   0.00000  Uiso   1.00
H135   H     0.37039   0.27300   0.33267   0.00000  Uiso   1.00
H136   H     0.40568   0.31980   0.33109   0.00000  Uiso   1.00
H137   H     0.44146   0.26122   0.36286   0.00000  Uiso   1.00
H138   H     0.44496   0.23249   0.31249   0.00000  Uiso   1.00
H139   H     0.48096   0.27872   0.30957   0.00000  Uiso   1.00
H140   H     0.41549   0.14651   0.34827   0.00000  Uiso   1.00
H141   H     0.40666   0.10471   0.31253   0.00000  Uiso   1.00
H142   H     0.45306   0.10293   0.34066   0.00000  Uiso   1.00
H143   H     0.59329   0.22942   0.18846   0.00000  Uiso   1.00
H144   H     0.58401   0.18862   0.15196   0.00000  Uiso   1.00
H145   H     0.44719   0.18207   0.11299   0.00000  Uiso   1.00
H146   H     0.54651   0.23232   0.16102   0.00000  Uiso   1.00
H147   H     0.55413   0.14976   0.38854   0.00000  Uiso   1.00
H148   H     0.63976   0.14675   0.10510   0.00000  Uiso   1.00
H149   H     0.35982   0.19364   0.39264   0.00000  Uiso   1.00
H150   H     0.66356   0.20648   0.47322   0.00000  Uiso   1.00
H151   H     0.33498   0.14120   0.02336   0.00000  Uiso   1.00
H152   H     0.51608   0.19873   0.08024   0.00000  Uiso   1.00
N153   N     0.45069   0.16668   0.24999   0.00000  Uiso   1.00
N154   N     0.54931   0.16666   0.25001   0.00000  Uiso   1.00
O155   O     0.37291   0.10655   0.25000   0.00000  Uiso   1.00
O156   O     0.41163   0.29293   0.26890   0.00000  Uiso   1.00
O157   O     0.62709   0.22678   0.25000   0.00000  Uiso   1.00
O158   O     0.62706   0.10654   0.25001   0.00000  Uiso   1.00
O159   O     0.37294   0.22679   0.25000   0.00000  Uiso   1.00
O160   O     0.35186   0.16668   0.31492   0.00000  Uiso   1.00
O161   O     0.64814   0.16666   0.18509   0.00000  Uiso   1.00
O162   O     0.60600   0.16667   0.31492   0.00000  Uiso   1.00
O163   O     0.39400   0.16667   0.18508   0.00000  Uiso   1.00
O164   O     0.58651   0.03969   0.23518   0.00000  Uiso   1.00
C165   C     0.99969   0.08740   0.25007   0.00000  Uiso   1.00
C166   C     0.70485   0.02180   0.25904   0.00000  Uiso   1.00
C167   C     0.66723   0.29041   0.25089   0.00000  Uiso   1.00
C168   C     0.99888   0.04267   0.25067   0.00000  Uiso   1.00
C169   C     0.84949   0.14646   0.28314   0.00000  Uiso   1.00
C170   C     0.81703   0.18752   0.21732   0.00000  Uiso   1.00
C171   C     0.80006   0.14617   0.28357   0.00000  Uiso   1.00
C172   C     0.86648   0.18773   0.21684   0.00000  Uiso   1.00
C173   C     0.97297   0.16723   0.33617   0.00000  Uiso   1.00
C174   C     0.69374   0.16656   0.16376   0.00000  Uiso   1.00
C175   C     0.95792   0.17133   0.38541   0.00000  Uiso   1.00
C176   C     0.66687   0.24584   0.25026   0.00000  Uiso   1.00
C177   C     0.70887   0.16552   0.11413   0.00000  Uiso   1.00
C178   C     0.97214   0.19447   0.45521   0.00000  Uiso   1.00
C179   C     0.69345   0.15072   0.04222   0.00000  Uiso   1.00
C180   C     0.98925   0.18665   0.40941   0.00000  Uiso   1.00
C181   C     0.67697   0.15420   0.08884   0.00000  Uiso   1.00
C182   C     0.90962   0.16356   0.40773   0.00000  Uiso   1.00
C183   C     0.75723   0.17383   0.09220   0.00000  Uiso   1.00
C184   C     0.89077   0.17344   0.45323   0.00000  Uiso   1.00
C185   C     0.77504   0.17016   0.04520   0.00000  Uiso   1.00
C186   C     0.92331   0.18807   0.47723   0.00000  Uiso   1.00
C187   C     0.85867   0.19087   0.04519   0.00000  Uiso   1.00
C188   C     0.74209   0.15822   0.02033   0.00000  Uiso   1.00
C189   C     0.84075   0.16927   0.47539   0.00000  Uiso   1.00
C190   C     0.82465   0.17681   0.02251   0.00000  Uiso   1.00
C191   C     0.88065   0.03527   0.27391   0.00000  Uiso   1.00
C192   C     0.83407   0.04085   0.26008   0.00000  Uiso   1.00
C193   C     0.73837   0.28906   0.31611   0.00000  Uiso   1.00
C194   C     0.77905   0.26380   0.32582   0.00000  Uiso   1.00
C195   C     0.76654   0.12402   0.32304   0.00000  Uiso   1.00
C196   C     0.89982   0.21060   0.17782   0.00000  Uiso   1.00
C197   C     0.80617   0.15880   0.45178   0.00000  Uiso   1.00
C198   C     0.90681   0.19662   0.02281   0.00000  Uiso   1.00
C199   C     0.75795   0.15342   0.47391   0.00000  Uiso   1.00
C200   C     0.95935   0.02037   0.24370   0.00000  Uiso   1.00
C201   C     0.70551   0.31253   0.26052   0.00000  Uiso   1.00
C202   C     0.96148   0.31121   0.24221   0.00000  Uiso   1.00
Cu203  Cu    0.71355   0.16667   0.25000   0.00000  Uiso   1.00
Cu204  Cu    0.95311   0.16666   0.25000   0.00000  Uiso   1.00
H205   H     0.93141   0.20783   0.04147   0.00000  Uiso   1.00
H206   H     0.81484   0.15520   0.41576   0.00000  Uiso   1.00
H207   H     0.93190   0.29464   0.23452   0.00000  Uiso   1.00
H208   H     0.73498   0.03851   0.26507   0.00000  Uiso   1.00
H209   H     0.86138   0.13060   0.30967   0.00000  Uiso   1.00
H210   H     0.80496   0.20402   0.19126   0.00000  Uiso   1.00
H211   H     0.88341   0.05904   0.29854   0.00000  Uiso   1.00
H212   H     0.87851   0.00455   0.29128   0.00000  Uiso   1.00
H213   H     0.82903   0.01541   0.23820   0.00000  Uiso   1.00
H214   H     0.80367   0.04045   0.29086   0.00000  Uiso   1.00
H215   H     0.83467   0.07046   0.24125   0.00000  Uiso   1.00
H216   H     0.73290   0.14498   0.45448   0.00000  Uiso   1.00
H217   H     0.70372   0.27300   0.33267   0.00000  Uiso   1.00
H218   H     0.73901   0.31980   0.33109   0.00000  Uiso   1.00
H219   H     0.77480   0.26122   0.36286   0.00000  Uiso   1.00
H220   H     0.77829   0.23249   0.31249   0.00000  Uiso   1.00
H221   H     0.81430   0.27872   0.30957   0.00000  Uiso   1.00
H222   H     0.74883   0.14651   0.34827   0.00000  Uiso   1.00
H223   H     0.73999   0.10471   0.31253   0.00000  Uiso   1.00
H224   H     0.78639   0.10293   0.34066   0.00000  Uiso   1.00
H225   H     0.92662   0.22942   0.18846   0.00000  Uiso   1.00
H226   H     0.91734   0.18862   0.15196   0.00000  Uiso   1.00
H227   H     0.78052   0.18207   0.11299   0.00000  Uiso   1.00
H228   H     0.87984   0.23232   0.16102   0.00000  Uiso   1.00
H229   H     0.88746   0.14976   0.38854   0.00000  Uiso   1.00
H230   H     0.97309   0.14675   0.10510   0.00000  Uiso   1.00
H231   H     0.69316   0.19364   0.39264   0.00000  Uiso   1.00
H232   H     0.99690   0.20648   0.47322   0.00000  Uiso   1.00
H233   H     0.66832   0.14120   0.02336   0.00000  Uiso   1.00
H234   H     0.84941   0.19873   0.08024   0.00000  Uiso   1.00
N235   N     0.78403   0.16668   0.24999   0.00000  Uiso   1.00
N236   N     0.88264   0.16666   0.25001   0.00000  Uiso   1.00
O237   O     0.70625   0.10655   0.25000   0.00000  Uiso   1.00
O238   O     0.74497   0.29293   0.26890   0.00000  Uiso   1.00
O239   O     0.96042   0.22678   0.25000   0.00000  Uiso   1.00
O240   O     0.96039   0.10654   0.25001   0.00000  Uiso   1.00
O241   O     0.70628   0.22679   0.25000   0.00000  Uiso   1.00
O242   O     0.68519   0.16668   0.31492   0.00000  Uiso   1.00
O243   O     0.98148   0.16666   0.18509   0.00000  Uiso   1.00
O244   O     0.93933   0.16667   0.31492   0.00000  Uiso   1.00
O245   O     0.72733   0.16667   0.18508   0.00000  Uiso   1.00
O246   O     0.91984   0.03969   0.23518   0.00000  Uiso   1.00
C247   C     0.33302   0.42074   0.25007   0.00000  Uiso   1.00
C248   C     0.03818   0.35513   0.25904   0.00000  Uiso   1.00
C249   C     0.00056   0.62374   0.25089   0.00000  Uiso   1.00
C250   C     0.33222   0.37601   0.25067   0.00000  Uiso   1.00
C251   C     0.18282   0.47980   0.28314   0.00000  Uiso   1.00
C252   C     0.15037   0.52085   0.21732   0.00000  Uiso   1.00
C253   C     0.13340   0.47950   0.28357   0.00000  Uiso   1.00
C254   C     0.19981   0.52106   0.21684   0.00000  Uiso   1.00
C255   C     0.30630   0.50056   0.33617   0.00000  Uiso   1.00
C256   C     0.02707   0.49989   0.16376   0.00000  Uiso   1.00
C257   C     0.29126   0.50466   0.38541   0.00000  Uiso   1.00
C258   C     0.00020   0.57918   0.25026   0.00000  Uiso   1.00
C259   C     0.04220   0.49885   0.11413   0.00000  Uiso   1.00
C260   C     0.30547   0.52780   0.45521   0.00000  Uiso   1.00
C261   C     0.02678   0.48406   0.04222   0.00000  Uiso   1.00
C262   C     0.32259   0.51998   0.40941   0.00000  Uiso   1.00
C263   C     0.01030   0.48753   0.08884   0.00000  Uiso   1.00
C264   C     0.24296   0.49689   0.40773   0.00000  Uiso   1.00
C265   C     0.09056   0.50716   0.09220   0.00000  Uiso   1.00
C266   C     0.22411   0.50677   0.45323   0.00000  Uiso   1.00
C267   C     0.10837   0.50349   0.04520   0.00000  Uiso   1.00
C268   C     0.25664   0.52141   0.47723   0.00000  Uiso   1.00
C269   C     0.19200   0.52421   0.04519   0.00000  Uiso   1.00
C270   C     0.07542   0.49156   0.02033   0.00000  Uiso   1.00
C271   C     0.17409   0.50261   0.47539   0.00000  Uiso   1.00
C272   C     0.15798   0.51014   0.02251   0.00000  Uiso   1.00
C273   C     0.21398   0.36861   0.27391   0.00000  Uiso   1.00
C274   C     0.16740   0.37418   0.26008   0.00000  Uiso   1.00
C275   C     0.07171   0.62239   0.31611   0.00000  Uiso   1.00
C276   C     0.11239   0.59713   0.32582   0.00000  Uiso   1.00
C277   C     0.09988   0.45735   0.32304   0.00000  Uiso   1.00
C278   C     0.23316   0.54394   0.17782   0.00000  Uiso   1.00
C279   C     0.13951   0.49213   0.45178   0.00000  Uiso   1.00
C280   C     0.24015   0.52996   0.02281   0.00000  Uiso   1.00
C281   C     0.09128   0.48675   0.47391   0.00000  Uiso   1.00
C282   C     0.29268   0.35370   0.24370   0.00000  Uiso   1.00
C283   C     0.03885   0.64586   0.26052   0.00000  Uiso   1.00
C284   C     0.29481   0.64454   0.24221   0.00000  Uiso   1.00
Cu285  Cu    0.04689   0.50001   0.25000   0.00000  Uiso   1.00
Cu286  Cu    0.28645   0.49999   0.25000   0.00000  Uiso   1.00
H287   H     0.26474   0.54116   0.04147   0.00000  Uiso   1.00
H288   H     0.14817   0.48854   0.41576   0.00000  Uiso   1.00
H289   H     0.26523   0.62797   0.23452   0.00000  Uiso   1.00
H290   H     0.06832   0.37184   0.26507   0.00000  Uiso   1.00
H291   H     0.19471   0.46394   0.30967   0.00000  Uiso   1.00
H292   H     0.13830   0.53735   0.19126   0.00000  Uiso   1.00
H293   H     0.21675   0.39238   0.29854   0.00000  Uiso   1.00
H294   H     0.21184   0.33788   0.29128   0.00000  Uiso   1.00
H295   H     0.16236   0.34874   0.23820   0.00000  Uiso   1.00
H296   H     0.13700   0.37378   0.29086   0.00000  Uiso   1.00
H297   H     0.16801   0.40379   0.24125   0.00000  Uiso   1.00
H298   H     0.06623   0.47832   0.45448   0.00000  Uiso   1.00
H299   H     0.03705   0.60633   0.33267   0.00000  Uiso   1.00
H300   H     0.07235   0.65313   0.33109   0.00000  Uiso   1.00
H301   H     0.10813   0.59455   0.36286   0.00000  Uiso   1.00
H302   H     0.11163   0.56583   0.31249   0.00000  Uiso   1.00
H303   H     0.14763   0.61205   0.30957   0.00000  Uiso   1.00
H304   H     0.08216   0.47984   0.34827   0.00000  Uiso   1.00
H305   H     0.07333   0.43805   0.31253   0.00000  Uiso   1.00
H306   H     0.11972   0.43627   0.34066   0.00000  Uiso   1.00
H307   H     0.25996   0.56275   0.18846   0.00000  Uiso   1.00
H308   H     0.25067   0.52195   0.15196   0.00000  Uiso   1.00
H309   H     0.11385   0.51540   0.11299   0.00000  Uiso   1.00
H310   H     0.21318   0.56565   0.16102   0.00000  Uiso   1.00
H311   H     0.22080   0.48309   0.38854   0.00000  Uiso   1.00
H312   H     0.30642   0.48009   0.10510   0.00000  Uiso   1.00
H313   H     0.02649   0.52697   0.39264   0.00000  Uiso   1.00
H314   H     0.33023   0.53982   0.47322   0.00000  Uiso   1.00
H315   H     0.00165   0.47453   0.02336   0.00000  Uiso   1.00
H316   H     0.18274   0.53206   0.08024   0.00000  Uiso   1.00
N317   N     0.11736   0.50001   0.24999   0.00000  Uiso   1.00
N318   N     0.21597   0.49999   0.25001   0.00000  Uiso   1.00
O319   O     0.03958   0.43989   0.25000   0.00000  Uiso   1.00
O320   O     0.07830   0.62626   0.26890   0.00000  Uiso   1.00
O321   O     0.29375   0.56011   0.25000   0.00000  Uiso   1.00
O322   O     0.29372   0.43988   0.25001   0.00000  Uiso   1.00
O323   O     0.03961   0.56012   0.25000   0.00000  Uiso   1.00
O324   O     0.01852   0.50001   0.31492   0.00000  Uiso   1.00
O325   O     0.31481   0.49999   0.18509   0.00000  Uiso   1.00
O326   O     0.27267   0.50000   0.31492   0.00000  Uiso   1.00
O327   O     0.06067   0.50000   0.18508   0.00000  Uiso   1.00
O328   O     0.25317   0.37302   0.23518   0.00000  Uiso   1.00
C329   C     0.66636   0.42074   0.25007   0.00000  Uiso   1.00
C330   C     0.37151   0.35513   0.25904   0.00000  Uiso   1.00
C331   C     0.33389   0.62374   0.25089   0.00000  Uiso   1.00
C332   C     0.66555   0.37601   0.25067   0.00000  Uiso   1.00
C333   C     0.51615   0.47980   0.28314   0.00000  Uiso   1.00
C334   C     0.48370   0.52085   0.21732   0.00000  Uiso   1.00
C335   C     0.46673   0.47950   0.28357   0.00000  Uiso   1.00
C336   C     0.53315   0.52106   0.21684   0.00000  Uiso   1.00
C337   C     0.63964   0.50056   0.33617   0.00000  Uiso   1.00
C338   C     0.36041   0.49989   0.16376   0.00000  Uiso   1.00
C339   C     0.62459   0.50466   0.38541   0.00000  Uiso   1.00
C340   C     0.33354   0.57918   0.25026   0.00000  Uiso   1.00
C341   C     0.37554   0.49885   0.11413   0.00000  Uiso   1.00
C342   C     0.63881   0.52780   0.45521   0.00000  Uiso   1.00
C343   C     0.36012   0.48406   0.04222   0.00000  Uiso   1.00
C344   C     0.65592   0.51998   0.40941   0.00000  Uiso   1.00
C345   C     0.34364   0.48753   0.08884   0.00000  Uiso   1.00
C346   C     0.57629   0.49689   0.40773   0.00000  Uiso   1.00
C347   C     0.42389   0.50716   0.09220   0.00000  Uiso   1.00
C348   C     0.55744   0.50677   0.45323   0.00000  Uiso   1.00
C349   C     0.44170   0.50349   0.04520   0.00000  Uiso   1.00
C350   C     0.58997   0.52141   0.47723   0.00000  Uiso   1.00
C351   C     0.52533   0.52421   0.04519   0.00000  Uiso   1.00
C352   C     0.40876   0.49156   0.02033   0.00000  Uiso   1.00
C353   C     0.50742   0.50261   0.47539   0.00000  Uiso   1.00
C354   C     0.49131   0.51014   0.02251   0.00000  Uiso   1.00
C355   C     0.54731   0.36861   0.27391   0.00000  Uiso   1.00
C356   C     0.50074   0.37418   0.26008   0.00000  Uiso   1.00
C357   C     0.40504   0.62239   0.31611   0.00000  Uiso   1.00
C358   C     0.44572   0.59713   0.32582   0.00000  Uiso   1.00
C359   C     0.43321   0.45735   0.32304   0.00000  Uiso   1.00
C360   C     0.56649   0.54394   0.17782   0.00000  Uiso   1.00
C361   C     0.47284   0.49213   0.45178   0.00000  Uiso   1.00
C362   C     0.57348   0.52996   0.02281   0.00000  Uiso   1.00
C363   C     0.42461   0.48675   0.47391   0.00000  Uiso   1.00
C364   C     0.62602   0.35370   0.24370   0.00000  Uiso   1.00
C365   C     0.37218   0.64586   0.26052   0.00000  Uiso   1.00
C366   C     0.62814   0.64454   0.24221   0.00000  Uiso   1.00
Cu367  Cu    0.38022   0.50001   0.25000   0.00000  Uiso   1.00
Cu368  Cu    0.61978   0.49999   0.25000   0.00000  Uiso   1.00
H369   H     0.59808   0.54116   0.04147   0.00000  Uiso   1.00
H370   H     0.48150   0.48854   0.41576   0.00000  Uiso   1.00
H371   H     0.59856   0.62797   0.23452   0.00000  Uiso   1.00
H372   H     0.40165   0.37184   0.26507   0.00000  Uiso   1.00
H373   H     0.52805   0.46394   0.30967   0.00000  Uiso   1.00
H374   H     0.47163   0.53735   0.19126   0.00000  Uiso   1.00
H375   H     0.55008   0.39238   0.29854   0.00000  Uiso   1.00
H376   H     0.54517   0.33788   0.29128   0.00000  Uiso   1.00
H377   H     0.49570   0.34874   0.23820   0.00000  Uiso   1.00
H378   H     0.47034   0.37378   0.29086   0.00000  Uiso   1.00
H379   H     0.50134   0.40379   0.24125   0.00000  Uiso   1.00
H380   H     0.39956   0.47832   0.45448   0.00000  Uiso   1.00
H381   H     0.37039   0.60633   0.33267   0.00000  Uiso   1.00
H382   H     0.40568   0.65313   0.33109   0.00000  Uiso   1.00
H383   H     0.44146   0.59455   0.36286   0.00000  Uiso   1.00
H384   H     0.44496   0.56583   0.31249   0.00000  Uiso   1.00
H385   H     0.48096   0.61205   0.30957   0.00000  Uiso   1.00
H386   H     0.41549   0.47984   0.34827   0.00000  Uiso   1.00
H387   H     0.40666   0.43805   0.31253   0.00000  Uiso   1.00
H388   H     0.45306   0.43627   0.34066   0.00000  Uiso   1.00
H389   H     0.59329   0.56275   0.18846   0.00000  Uiso   1.00
H390   H     0.58401   0.52195   0.15196   0.00000  Uiso   1.00
H391   H     0.44719   0.51540   0.11299   0.00000  Uiso   1.00
H392   H     0.54651   0.56565   0.16102   0.00000  Uiso   1.00
H393   H     0.55413   0.48309   0.38854   0.00000  Uiso   1.00
H394   H     0.63976   0.48009   0.10510   0.00000  Uiso   1.00
H395   H     0.35982   0.52697   0.39264   0.00000  Uiso   1.00
H396   H     0.66356   0.53982   0.47322   0.00000  Uiso   1.00
H397   H     0.33498   0.47453   0.02336   0.00000  Uiso   1.00
H398   H     0.51608   0.53206   0.08024   0.00000  Uiso   1.00
N399   N     0.45069   0.50001   0.24999   0.00000  Uiso   1.00
N400   N     0.54931   0.49999   0.25001   0.00000  Uiso   1.00
O401   O     0.37291   0.43989   0.25000   0.00000  Uiso   1.00
O402   O     0.41163   0.62626   0.26890   0.00000  Uiso   1.00
O403   O     0.62709   0.56011   0.25000   0.00000  Uiso   1.00
O404   O     0.62706   0.43988   0.25001   0.00000  Uiso   1.00
O405   O     0.37294   0.56012   0.25000   0.00000  Uiso   1.00
O406   O     0.35186   0.50001   0.31492   0.00000  Uiso   1.00
O407   O     0.64814   0.49999   0.18509   0.00000  Uiso   1.00
O408   O     0.60600   0.50000   0.31492   0.00000  Uiso   1.00
O409   O     0.39400   0.50000   0.18508   0.00000  Uiso   1.00
O410   O     0.58651   0.37302   0.23518   0.00000  Uiso   1.00
C411   C     0.99969   0.42074   0.25007   0.00000  Uiso   1.00
C412   C     0.70485   0.35513   0.25904   0.00000  Uiso   1.00
C413   C     0.66723   0.62374   0.25089   0.00000  Uiso   1.00
C414   C     0.99888   0.37601   0.25067   0.00000  Uiso   1.00
C415   C     0.84949   0.47980   0.28314   0.00000  Uiso   1.00
C416   C     0.81703   0.52085   0.21732   0.00000  Uiso   1.00
C417   C     0.80006   0.47950   0.28357   0.00000  Uiso   1.00
C418   C     0.86648   0.52106   0.21684   0.00000  Uiso   1.00
C419   C     0.97297   0.50056   0.33617   0.00000  Uiso   1.00
C420   C     0.69374   0.49989   0.16376   0.00000  Uiso   1.00
C421   C     0.95792   0.50466   0.38541   0.00000  Uiso   1.00
C422   C     0.66687   0.57918   0.25026   0.00000  Uiso   1.00
C423   C     0.70887   0.49885   0.11413   0.00000  Uiso   1.00
C424   C     0.97214   0.52780   0.45521   0.00000  Uiso   1.00
C425   C     0.69345   0.48406   0.04222   0.00000  Uiso   1.00
C426   C     0.98925   0.51998   0.40941   0.00000  Uiso   1.00
C427   C     0.67697   0.48753   0.08884   0.00000  Uiso   1.00
C428   C     0.90962   0.49689   0.40773   0.00000  Uiso   1.00
C429   C     0.75723   0.50716   0.09220   0.00000  Uiso   1.00
C430   C     0.89077   0.50677   0.45323   0.00000  Uiso   1.00
C431   C     0.77504   0.50349   0.04520   0.00000  Uiso   1.00
C432   C     0.92331   0.52141   0.47723   0.00000  Uiso   1.00
C433   C     0.85867   0.52421   0.04519   0.00000  Uiso   1.00
C434   C     0.74209   0.49156   0.02033   0.00000  Uiso   1.00
C435   C     0.84075   0.50261   0.47539   0.00000  Uiso   1.00
C436   C     0.82465   0.51014   0.02251   0.00000  Uiso   1.00
C437   C     0.88065   0.36861   0.27391   0.00000  Uiso   1.00
C438   C     0.83407   0.37418   0.26008   0.00000  Uiso   1.00
C439   C     0.73837   0.62239   0.31611   0.00000  Uiso   1.00
C440   C     0.77905   0.59713   0.32582   0.00000  Uiso   1.00
C441   C     0.76654   0.45735   0.32304   0.00000  Uiso   1.00
C442   C     0.89982   0.54394   0.17782   0.00000  Uiso   1.00
C443   C     0.80617   0.49213   0.45178   0.00000  Uiso   1.00
C444   C     0.90681   0.52996   0.02281   0.00000  Uiso   1.00
C445   C     0.75795   0.48675   0.47391   0.00000  Uiso   1.00
C446   C     0.95935   0.35370   0.24370   0.00000  Uiso   1.00
C447   C     0.70551   0.64586   0.26052   0.00000  Uiso   1.00
C448   C     0.96148   0.64454   0.24221   0.00000  Uiso   1.00
Cu449  Cu    0.71355   0.50001   0.25000   0.00000  Uiso   1.00
Cu450  Cu    0.95311   0.49999   0.25000   0.00000  Uiso   1.00
H451   H     0.93141   0.54116   0.04147   0.00000  Uiso   1.00
H452   H     0.81484   0.48854   0.41576   0.00000  Uiso   1.00
H453   H     0.93190   0.62797   0.23452   0.00000  Uiso   1.00
H454   H     0.73498   0.37184   0.26507   0.00000  Uiso   1.00
H455   H     0.86138   0.46394   0.30967   0.00000  Uiso   1.00
H456   H     0.80496   0.53735   0.19126   0.00000  Uiso   1.00
H457   H     0.88341   0.39238   0.29854   0.00000  Uiso   1.00
H458   H     0.87851   0.33788   0.29128   0.00000  Uiso   1.00
H459   H     0.82903   0.34874   0.23820   0.00000  Uiso   1.00
H460   H     0.80367   0.37378   0.29086   0.00000  Uiso   1.00
H461   H     0.83467   0.40379   0.24125   0.00000  Uiso   1.00
H462   H     0.73290   0.47832   0.45448   0.00000  Uiso   1.00
H463   H     0.70372   0.60633   0.33267   0.00000  Uiso   1.00
H464   H     0.73901   0.65313   0.33109   0.00000  Uiso   1.00
H465   H     0.77480   0.59455   0.36286   0.00000  Uiso   1.00
H466   H     0.77829   0.56583   0.31249   0.00000  Uiso   1.00
H467   H     0.81430   0.61205   0.30957   0.00000  Uiso   1.00
H468   H     0.74883   0.47984   0.34827   0.00000  Uiso   1.00
H469   H     0.73999   0.43805   0.31253   0.00000  Uiso   1.00
H470   H     0.78639   0.43627   0.34066   0.00000  Uiso   1.00
H471   H     0.92662   0.56275   0.18846   0.00000  Uiso   1.00
H472   H     0.91734   0.52195   0.15196   0.00000  Uiso   1.00
H473   H     0.78052   0.51540   0.11299   0.00000  Uiso   1.00
H474   H     0.87984   0.56565   0.16102   0.00000  Uiso   1.00
H475   H     0.88746   0.48309   0.38854   0.00000  Uiso   1.00
H476   H     0.97309   0.48009   0.10510   0.00000  Uiso   1.00
H477   H     0.69316   0.52697   0.39264   0.00000  Uiso   1.00
H478   H     0.99690   0.53982   0.47322   0.00000  Uiso   1.00
H479   H     0.66832   0.47453   0.02336   0.00000  Uiso   1.00
H480   H     0.84941   0.53206   0.08024   0.00000  Uiso   1.00
N481   N     0.78403   0.50001   0.24999   0.00000  Uiso   1.00
N482   N     0.88264   0.49999   0.25001   0.00000  Uiso   1.00
O483   O     0.70625   0.43989   0.25000   0.00000  Uiso   1.00
O484   O     0.74497   0.62626   0.26890   0.00000  Uiso   1.00
O485   O     0.96042   0.56011   0.25000   0.00000  Uiso   1.00
O486   O     0.96039   0.43988   0.25001   0.00000  Uiso   1.00
O487   O     0.70628   0.56012   0.25000   0.00000  Uiso   1.00
O488   O     0.68519   0.50001   0.31492   0.00000  Uiso   1.00
O489   O     0.98148   0.49999   0.18509   0.00000  Uiso   1.00
O490   O     0.93933   0.50000   0.31492   0.00000  Uiso   1.00
O491   O     0.72733   0.50000   0.18508   0.00000  Uiso   1.00
O492   O     0.91984   0.37302   0.23518   0.00000  Uiso   1.00
C493   C     0.33302   0.75407   0.25007   0.00000  Uiso   1.00
C494   C     0.03818   0.68846   0.25904   0.00000  Uiso   1.00
C495   C     0.00056   0.95707   0.25089   0.00000  Uiso   1.00
C496   C     0.33222   0.70934   0.25067   0.00000  Uiso   1.00
C497   C     0.18282   0.81313   0.28314   0.00000  Uiso   1.00
C498   C     0.15037   0.85419   0.21732   0.00000  Uiso   1.00
C499   C     0.13340   0.81283   0.28357   0.00000  Uiso   1.00
C500   C     0.19981   0.85440   0.21684   0.00000  Uiso   1.00
C501   C     0.30630   0.83390   0.33617   0.00000  Uiso   1.00
C502   C     0.02707   0.83323   0.16376   0.00000  Uiso   1.00
C503   C     0.29126   0.83799   0.38541   0.00000  Uiso   1.00
C504   C     0.00020   0.91251   0.25026   0.00000  Uiso   1.00
C505   C     0.04220   0.83218   0.11413   0.00000  Uiso   1.00
C506   C     0.30547   0.86114   0.45521   0.00000  Uiso   1.00
C507   C     0.02678   0.81739   0.04222   0.00000  Uiso   1.00
C508   C     0.32259   0.85331   0.40941   0.00000  Uiso   1.00
C509   C     0.01030   0.82087   0.08884   0.00000  Uiso   1.00
C510   C     0.24296   0.83022   0.40773   0.00000  Uiso   1.00
C511   C     0.09056   0.84050   0.09220   0.00000  Uiso   1.00
C512   C     0.22411   0.84010   0.45323   0.00000  Uiso   1.00
C513   C     0.10837   0.83683   0.04520   0.00000  Uiso   1.00
C514   C     0.25664   0.85474   0.47723   0.00000  Uiso   1.00
C515   C     0.19200   0.85754   0.04519   0.00000  Uiso   1.00
C516   C     0.07542   0.82489   0.02033   0.00000  Uiso   1.00
C517   C     0.17409   0.83594   0.47539   0.00000  Uiso   1.00
C518   C     0.15798   0.84348   0.02251   0.00000  Uiso   1.00
C519   C     0.21398   0.70194   0.27391   0.00000  Uiso   1.00
C520   C     0.16740   0.70751   0.26008   0.00000  Uiso   1.00
C521   C     0.07171   0.95573   0.31611   0.00000  Uiso   1.00
C522   C     0.11239   0.93047   0.32582   0.00000  Uiso   1.00
C523   C     0.09988   0.79068   0.32304   0.00000  Uiso   1.00
C524   C     0.23316   0.87727   0.17782   0.00000  Uiso   1.00
C525   C     0.13951   0.82546   0.45178   0.00000  Uiso   1.00
C526   C     0.24015   0.86329   0.02281   0.00000  Uiso   1.00
C527   C     0.09128   0.82009   0.47391   0.00000  Uiso   1.00
C528   C     0.29268   0.68703   0.24370   0.00000  Uiso   1.00
C529   C     0.03885   0.97919   0.26052   0.00000  Uiso   1.00
C530   C     0.29481   0.97787   0.24221   0.00000  Uiso   1.00
Cu531  Cu    0.04689   0.83334   0.25000   0.00000  Uiso   1.00
Cu532  Cu    0.28645   0.83333   0.25000   0.00000  Uiso   1.00
H533   H     0.26474   0.87450   0.04147   0.00000  Uiso   1.00
H534   H     0.14817   0.82187   0.41576   0.00000  Uiso   1.00
H535   H     0.26523   0.96131   0.23452   0.00000  Uiso   1.00
H536   H     0.06832   0.70517   0.26507   0.00000  Uiso   1.00
H537   H     0.19471   0.79727   0.30967   0.00000  Uiso   1.00
H538   H     0.13830   0.87069   0.19126   0.00000  Uiso   1.00
H539   H     0.21675   0.72571   0.29854   0.00000  Uiso   1.00
H540   H     0.21184   0.67121   0.29128   0.00000  Uiso   1.00
H541   H     0.16236   0.68207   0.23820   0.00000  Uiso   1.00
H542   H     0.13700   0.70712   0.29086   0.00000  Uiso   1.00
H543   H     0.16801   0.73713   0.24125   0.00000  Uiso   1.00
H544   H     0.06623   0.81165   0.45448   0.00000  Uiso   1.00
H545   H     0.03705   0.93967   0.33267   0.00000  Uiso   1.00
H546   H     0.07235   0.98646   0.33109   0.00000  Uiso   1.00
H547   H     0.10813   0.92788   0.36286   0.00000  Uiso   1.00
H548   H     0.11163   0.89916   0.31249   0.00000  Uiso   1.00
H549   H     0.14763   0.94539   0.30957   0.00000  Uiso   1.00
H550   H     0.08216   0.81318   0.34827   0.00000  Uiso   1.00
H551   H     0.07333   0.77138   0.31253   0.00000  Uiso   1.00
H552   H     0.11972   0.76960   0.34066   0.00000  Uiso   1.00
H553   H     0.25996   0.89609   0.18846   0.00000  Uiso   1.00
H554   H     0.25067   0.85529   0.15196   0.00000  Uiso   1.00
H555   H     0.11385   0.84873   0.11299   0.00000  Uiso   1.00
H556   H     0.21318   0.89898   0.16102   0.00000  Uiso   1.00
H557   H     0.22080   0.81643   0.38854   0.00000  Uiso   1.00
H558   H     0.30642   0.81342   0.10510   0.00000  Uiso   1.00
H559   H     0.02649   0.86031   0.39264   0.00000  Uiso   1.00
H560   H     0.33023   0.87315   0.47322   0.00000  Uiso   1.00
H561   H     0.00165   0.80786   0.02336   0.00000  Uiso   1.00
H562   H     0.18274   0.86539   0.08024   0.00000  Uiso   1.00
N563   N     0.11736   0.83334   0.24999   0.00000  Uiso   1.00
N564   N     0.21597   0.83332   0.25001   0.00000  Uiso   1.00
O565   O     0.03958   0.77322   0.25000   0.00000  Uiso   1.00
O566   O     0.07830   0.95959   0.26890   0.00000  Uiso   1.00
O567   O     0.29375   0.89345   0.25000   0.00000  Uiso   1.00
O568   O     0.29372   0.77321   0.25001   0.00000  Uiso   1.00
O569   O     0.03961   0.89346   0.25000   0.00000  Uiso   1.00
O570   O     0.01852   0.83334   0.31492   0.00000  Uiso   1.00
O571   O     0.31481   0.83332   0.18509   0.00000  Uiso   1.00
O572   O     0.27267   0.83333   0.31492   0.00000  Uiso   1.00
O573   O     0.06067   0.83333   0.18508   0.00000  Uiso   1.00
O574   O     0.25317   0.70635   0.23518   0.00000  Uiso   1.00
C575   C     0.66636   0.75407   0.25007   0.00000  Uiso   1.00
C576   C     0.37151   0.68846   0.25904   0.00000  Uiso   1.00
C577   C     0.33389   0.95707   0.25089   0.00000  Uiso   1.00
C578   C     0.66555   0.70934   0.25067   0.00000  Uiso   1.00
C579   C     0.51615   0.81313   0.28314   0.00000  Uiso   1.00
C580   C     0.48370   0.85419   0.21732   0.00000  Uiso   1.00
C581   C     0.46673   0.81283   0.28357   0.00000  Uiso   1.00
C582   C     0.53315   0.85440   0.21684   0.00000  Uiso   1.00
C583   C     0.63964   0.83390   0.33617   0.00000  Uiso   1.00
C584   C     0.36041   0.83323   0.16376   0.00000  Uiso   1.00
C585   C     0.62459   0.83799   0.38541   0.00000  Uiso   1.00
C586   C     0.33354   0.91251   0.25026   0.00000  Uiso   1.00
C587   C     0.37554   0.83218   0.11413   0.00000  Uiso   1.00
C588   C     0.63881   0.86114   0.45521   0.00000  Uiso   1.00
C589   C     0.36012   0.81739   0.04222   0.00000  Uiso   1.00
C590   C     0.65592   0.85331   0.40941   0.00000  Uiso   1.00
C591   C     0.34364   0.82087   0.08884   0.00000  Uiso   1.00
C592   C     0.57629   0.83022   0.40773   0.00000  Uiso   1.00
C593   C     0.42389   0.84050   0.09220   0.00000  Uiso   1.00
C594   C     0.55744   0.84010   0.45323   0.00000  Uiso   1.00
C595   C     0.44170   0.83683   0.04520   0.00000  Uiso   1.00
C596   C     0.58997   0.85474   0.47723   0.00000  Uiso   1.00
C597   C     0.52533   0.85754   0.04519   0.00000  Uiso   1.00
C598   C     0.40876   0.82489   0.02033   0.00000  Uiso   1.00
C599   C     0.50742   0.83594   0.47539   0.00000  Uiso   1.00
C600   C     0.49131   0.84348   0.02251   0.00000  Uiso   1.00
C601   C     0.54731   0.70194   0.27391   0.00000  Uiso   1.00
C602   C     0.50074   0.70751   0.26008   0.00000  Uiso   1.00
C603   C     0.40504   0.95573   0.31611   0.00000  Uiso   1.00
C604   C     0.44572   0.93047   0.32582   0.00000  Uiso   1.00
C605   C     0.43321   0.79068   0.32304   0.00000  Uiso   1.00
C606   C     0.56649   0.87727   0.17782   0.00000  Uiso   1.00
C607   C     0.47284   0.82546   0.45178   0.00000  Uiso   1.00
C608   C     0.57348   0.86329   0.02281   0.00000  Uiso   1.00
C609   C     0.42461   0.82009   0.47391   0.00000  Uiso   1.00
C610   C     0.62602   0.68703   0.24370   0.00000  Uiso   1.00
C611   C     0.37218   0.97919   0.26052   0.00000  Uiso   1.00
C612   C     0.62814   0.97787   0.24221   0.00000  Uiso   1.00
Cu613  Cu    0.38022   0.83334   0.25000   0.00000  Uiso   1.00
Cu614  Cu    0.61978   0.83333   0.25000   0.00000  Uiso   1.00
H615   H     0.59808   0.87450   0.04147   0.00000  Uiso   1.00
H616   H     0.48150   0.82187   0.41576   0.00000  Uiso   1.00
H617   H     0.59856   0.96131   0.23452   0.00000  Uiso   1.00
H618   H     0.40165   0.70517   0.26507   0.00000  Uiso   1.00
H619   H     0.52805   0.79727   0.30967   0.00000  Uiso   1.00
H620   H     0.47163   0.87069   0.19126   0.00000  Uiso   1.00
H621   H     0.55008   0.72571   0.29854   0.00000  Uiso   1.00
H622   H     0.54517   0.67121   0.29128   0.00000  Uiso   1.00
H623   H     0.49570   0.68207   0.23820   0.00000  Uiso   1.00
H624   H     0.47034   0.70712   0.29086   0.00000  Uiso   1.00
H625   H     0.50134   0.73713   0.24125   0.00000  Uiso   1.00
H626   H     0.39956   0.81165   0.45448   0.00000  Uiso   1.00
H627   H     0.37039   0.93967   0.33267   0.00000  Uiso   1.00
H628   H     0.40568   0.98646   0.33109   0.00000  Uiso   1.00
H629   H     0.44146   0.92788   0.36286   0.00000  Uiso   1.00
H630   H     0.44496   0.89916   0.31249   0.00000  Uiso   1.00
H631   H     0.48096   0.94539   0.30957   0.00000  Uiso   1.00
H632   H     0.41549   0.81318   0.34827   0.00000  Uiso   1.00
H633   H     0.40666   0.77138   0.31253   0.00000  Uiso   1.00
H634   H     0.45306   0.76960   0.34066   0.00000  Uiso   1.00
H635   H     0.59329   0.89609   0.18846   0.00000  Uiso   1.00
H636   H     0.58401   0.85529   0.15196   0.00000  Uiso   1.00
H637   H     0.44719   0.84873   0.11299   0.00000  Uiso   1.00
H638   H     0.54651   0.89898   0.16102   0.00000  Uiso   1.00
H639   H     0.55413   0.81643   0.38854   0.00000  Uiso   1.00
H640   H     0.63976   0.81342   0.10510   0.00000  Uiso   1.00
H641   H     0.35982   0.86031   0.39264   0.00000  Uiso   1.00
H642   H     0.66356   0.87315   0.47322   0.00000  Uiso   1.00
H643   H     0.33498   0.80786   0.02336   0.00000  Uiso   1.00
H644   H     0.51608   0.86539   0.08024   0.00000  Uiso   1.00
N645   N     0.45069   0.83334   0.24999   0.00000  Uiso   1.00
N646   N     0.54931   0.83332   0.25001   0.00000  Uiso   1.00
O647   O     0.37291   0.77322   0.25000   0.00000  Uiso   1.00
O648   O     0.41163   0.95959   0.26890   0.00000  Uiso   1.00
O649   O     0.62709   0.89345   0.25000   0.00000  Uiso   1.00
O650   O     0.62706   0.77321   0.25001   0.00000  Uiso   1.00
O651   O     0.37294   0.89346   0.25000   0.00000  Uiso   1.00
O652   O     0.35186   0.83334   0.31492   0.00000  Uiso   1.00
O653   O     0.64814   0.83332   0.18509   0.00000  Uiso   1.00
O654   O     0.60600   0.83333   0.31492   0.00000  Uiso   1.00
O655   O     0.39400   0.83333   0.18508   0.00000  Uiso   1.00
O656   O     0.58651   0.70635   0.23518   0.00000  Uiso   1.00
C657   C     0.99969   0.75407   0.25007   0.00000  Uiso   1.00
C658   C     0.70485   0.68846   0.25904   0.00000  Uiso   1.00
C659   C     0.66723   0.95707   0.25089   0.00000  Uiso   1.00
C660   C     0.99888   0.70934   0.25067   0.00000  Uiso   1.00
C661   C     0.84949   0.81313   0.28314   0.00000  Uiso   1.00
C662   C     0.81703   0.85419   0.21732   0.00000  Uiso   1.00
C663   C     0.80006   0.81283   0.28357   0.00000  Uiso   1.00
C664   C     0.86648   0.85440   0.21684   0.00000  Uiso   1.00
C665   C     0.97297   0.83390   0.33617   0.00000  Uiso   1.00
C666   C     0.69374   0.83323   0.16376   0.00000  Uiso   1.00
C667   C     0.95792   0.83799   0.38541   0.00000  Uiso   1.00
C668   C     0.66687   0.91251   0.25026   0.00000  Uiso   1.00
C669   C     0.70887   0.83218   0.11413   0.00000  Uiso   1.00
C670   C     0.97214   0.86114   0.45521   0.00000  Uiso   1.00
C671   C     0.69345   0.81739   0.04222   0.00000  Uiso   1.00
C672   C     0.98925   0.85331   0.40941   0.00000  Uiso   1.00
C673   C     0.67697   0.82087   0.08884   0.00000  Uiso   1.00
C674   C     0.90962   0.83022   0.40773   0.00000  Uiso   1.00
C675   C     0.75723   0.84050   0.09220   0.00000  Uiso   1.00
C676   C     0.89077   0.84010   0.45323   0.00000  Uiso   1.00
C677   C     0.77504   0.83683   0.04520   0.00000  Uiso   1.00
C678   C     0.92331   0.85474   0.47723   0.00000  Uiso   1.00
C679   C     0.85867   0.85754   0.04519   0.00000  Uiso   1.00
C680   C     0.74209   0.82489   0.02033   0.00000  Uiso   1.00
C681   C     0.84075   0.83594   0.47539   0.00000  Uiso   1.00
C682   C     0.82465   0.84348   0.02251   0.00000  Uiso   1.00
C683   C     0.88065   0.70194   0.27391   0.00000  Uiso   1.00
C684   C     0.83407   0.70751   0.26008   0.00000  Uiso   1.00
C685   C     0.73837   0.95573   0.31611   0.00000  Uiso   1.00
C686   C     0.77905   0.93047   0.32582   0.00000  Uiso   1.00
C687   C     0.76654   0.79068   0.32304   0.00000  Uiso   1.00
C688   C     0.89982   0.87727   0.17782   0.00000  Uiso   1.00
C689   C     0.80617   0.82546   0.45178   0.00000  Uiso   1.00
C690   C     0.90681   0.86329   0.02281   0.00000  Uiso   1.00
C691   C     0.75795   0.82009   0.47391   0.00000  Uiso   1.00
C692   C     0.95935   0.68703   0.24370   0.00000  Uiso   1.00
C693   C     0.70551   0.97919   0.26052   0.00000  Uiso   1.00
C694   C     0.96148   0.97787   0.24221   0.00000  Uiso   1.00
Cu695  Cu    0.71355   0.83334   0.25000   0.00000  Uiso   1.00
Cu696  Cu    0.95311   0.83333   0.25000   0.00000  Uiso   1.00
H697   H     0.93141   0.87450   0.04147   0.00000  Uiso   1.00
H698   H     0.81484   0.82187   0.41576   0.00000  Uiso   1.00
H699   H     0.93190   0.96131   0.23452   0.00000  Uiso   1.00
H700   H     0.73498   0.70517   0.26507   0.00000  Uiso   1.00
H701   H     0.86138   0.79727   0.30967   0.00000  Uiso   1.00
H702   H     0.80496   0.87069   0.19126   0.00000  Uiso   1.00
H703   H     0.88341   0.72571   0.29854   0.00000  Uiso   1.00
H704   H     0.87851   0.67121   0.29128   0.00000  Uiso   1.00
H705   H     0.82903   0.68207   0.23820   0.00000  Uiso   1.00
H706   H     0.80367   0.70712   0.29086   0.00000  Uiso   1.00
H707   H     0.83467   0.73713   0.24125   0.00000  Uiso   1.00
H708   H     0.73290   0.81165   0.45448   0.00000  Uiso   1.00
H709   H     0.70372   0.93967   0.33267   0.00000  Uiso   1.00
H710   H     0.73901   0.98646   0.33109   0.00000  Uiso   1.00
H711   H     0.77480   0.92788   0.36286   0.00000  Uiso   1.00
H712   H     0.77829   0.89916   0.31249   0.00000  Uiso   1.00
H713   H     0.81430   0.94539   0.30957   0.00000  Uiso   1.00
H714   H     0.74883   0.81318   0.34827   0.00000  Uiso   1.00
H715   H     0.73999   0.77138   0.31253   0.00000  Uiso   1.00
H716   H     0.78639   0.76960   0.34066   0.00000  Uiso   1.00
H717   H     0.92662   0.89609   0.18846   0.00000  Uiso   1.00
H718   H     0.91734   0.85529   0.15196   0.00000  Uiso   1.00
H719   H     0.78052   0.84873   0.11299   0.00000  Uiso   1.00
H720   H     0.87984   0.89898   0.16102   0.00000  Uiso   1.00
H721   H     0.88746   0.81643   0.38854   0.00000  Uiso   1.00
H722   H     0.97309   0.81342   0.10510   0.00000  Uiso   1.00
H723   H     0.69316   0.86031   0.39264   0.00000  Uiso   1.00
H724   H     0.99690   0.87315   0.47322   0.00000  Uiso   1.00
H725   H     0.66832   0.80786   0.02336   0.00000  Uiso   1.00
H726   H     0.84941   0.86539   0.08024   0.00000  Uiso   1.00
N727   N     0.78403   0.83334   0.24999   0.00000  Uiso   1.00
N728   N     0.88264   0.83332   0.25001   0.00000  Uiso   1.00
O729   O     0.70625   0.77322   0.25000   0.00000  Uiso   1.00
O730   O     0.74497   0.95959   0.26890   0.00000  Uiso   1.00
O731   O     0.96042   0.89345   0.25000   0.00000  Uiso   1.00
O732   O     0.96039   0.77321   0.25001   0.00000  Uiso   1.00
O733   O     0.70628   0.89346   0.25000   0.00000  Uiso   1.00
O734   O     0.68519   0.83334   0.31492   0.00000  Uiso   1.00
O735   O     0.98148   0.83332   0.18509   0.00000  Uiso   1.00
O736   O     0.93933   0.83333   0.31492   0.00000  Uiso   1.00
O737   O     0.72733   0.83333   0.18508   0.00000  Uiso   1.00
O738   O     0.91984   0.70635   0.23518   0.00000  Uiso   1.00
C739   C     0.33302   0.08740   0.75007   0.00000  Uiso   1.00
C740   C     0.03818   0.02180   0.75904   0.00000  Uiso   1.00
C741   C     0.00056   0.29041   0.75089   0.00000  Uiso   1.00
C742   C     0.33222   0.04267   0.75067   0.00000  Uiso   1.00
C743   C     0.18282   0.14646   0.78314   0.00000  Uiso   1.00
C744   C     0.15037   0.18752   0.71732   0.00000  Uiso   1.00
C745   C     0.13340   0.14617   0.78357   0.00000  Uiso   1.00
C746   C     0.19981   0.18773   0.71684   0.00000  Uiso   1.00
C747   C     0.30630   0.16723   0.83617   0.00000  Uiso   1.00
C748   C     0.02707   0.16656   0.66376   0.00000  Uiso   1.00
C749   C     0.29126   0.17133   0.88541   0.00000  Uiso   1.00
C750   C     0.00020   0.24584   0.75026   0.00000  Uiso   1.00
C751   C     0.04220   0.16552   0.61413   0.00000  Uiso   1.00
C752   C     0.30547   0.19447   0.95521   0.00000  Uiso   1.00
C753   C     0.02678   0.15072   0.54222   0.00000  Uiso   1.00
C754   C     0.32259   0.18665   0.90941   0.00000  Uiso   1.00
C755   C     0.01030   0.15420   0.58884   0.00000  Uiso   1.00
C756   C     0.24296   0.16356   0.90773   0.00000  Uiso   1.00
C757   C     0.09056   0.17383   0.59220   0.00000  Uiso   1.00
C758   C     0.22411   0.17344   0.95323   0.00000  Uiso   1.00
C759   C     0.10837   0.17016   0.54520   0.00000  Uiso   1.00
C760   C     0.25664   0.18807   0.97723   0.00000  Uiso   1.00
C761   C     0.19200   0.19087   0.54519   0.00000  Uiso   1.00
C762   C     0.07542   0.15822   0.52033   0.00000  Uiso   1.00
C763   C     0.17409   0.16927   0.97539   0.00000  Uiso   1.00
C764   C     0.15798   0.17681   0.52251   0.00000  Uiso   1.00
C765   C     0.21398   0.03527   0.77391   0.00000  Uiso   1.00
C766   C     0.16740   0.04085   0.76008   0.00000  Uiso   1.00
C767   C     0.07171   0.28906   0.81611   0.00000  Uiso   1.00
C768   C     0.11239   0.26380   0.82582   0.00000  Uiso   1.00
C769   C     0.09988   0.12402   0.82304   0.00000  Uiso   1.00
C770   C     0.23316   0.21060   0.67782   0.00000  Uiso   1.00
C771   C     0.13951   0.15880   0.95178   0.00000  Uiso   1.00
C772   C     0.24015   0.19662   0.52281   0.00000  Uiso   1.00
C773   C     0.09128   0.15342   0.97391   0.00000  Uiso   1.00
C774   C     0.29268   0.02037   0.74370   0.00000  Uiso   1.00
C775   C     0.03885   0.31253   0.76052   0.00000  Uiso   1.00
C776   C     0.29481   0.31121   0.74221   0.00000  Uiso   1.00
Cu777  Cu    0.04689   0.16667   0.75000   0.00000  Uiso   1.00
Cu778  Cu    0.28645   0.16666   0.75000   0.00000  Uiso   1.00
H779   H     0.26474   0.20783   0.54147   0.00000  Uiso   1.00
H780   H     0.14817   0.15520   0.91576   0.00000  Uiso   1.00
H781   H     0.26523   0.29464   0.73452   0.00000  Uiso   1.00
H782   H     0.06832   0.03851   0.76507   0.00000  Uiso   1.00
H783   H     0.19471   0.13060   0.80967   0.00000  Uiso   1.00
H784   H     0.13830   0.20402   0.69126   0.00000  Uiso   1.00
H785   H     0.21675   0.05904   0.79854   0.00000  Uiso   1.00
H786   H     0.21184   0.00455   0.79128   0.00000  Uiso   1.00
H787   H     0.16236   0.01541   0.73820   0.00000  Uiso   1.00
H788   H     0.13700   0.04045   0.79086   0.00000  Uiso   1.00
H789   H     0.16801   0.07046   0.74125   0.00000  Uiso   1.00
H790   H     0.06623   0.14498   0.95448   0.00000  Uiso   1.00
H791   H     0.03705   0.27300   0.83267   0.00000  Uiso   1.00
H792   H     0.07235   0.31980   0.83109   0.00000  Uiso   1.00
H793   H     0.10813   0.26122   0.86286   0.00000  Uiso   1.00
H794   H     0.11163   0.23249   0.81249   0.00000  Uiso   1.00
H795   H     0.14763   0.27872   0.80957   0.00000  Uiso   1.00
H796   H     0.08216   0.14651   0.84827   0.00000  Uiso   1.00
H797   H     0.07333   0.10471   0.81253   0.00000  Uiso   1.00
H798   H     0.11972   0.10293   0.84066   0.00000  Uiso   1.00
H799   H     0.25996   0.22942   0.68846   0.00000  Uiso   1.00
H800   H     0.25067   0.18862   0.65196   0.00000  Uiso   1.00
H801   H     0.11385   0.18207   0.61299   0.00000  Uiso   1.00
H802   H     0.21318   0.23232   0.66102   0.00000  Uiso   1.00
H803   H     0.22080   0.14976   0.88854   0.00000  Uiso   1.00
H804   H     0.30642   0.14675   0.60510   0.00000  Uiso   1.00
H805   H     0.02649   0.19364   0.89264   0.00000  Uiso   1.00
H806   H     0.33023   0.20648   0.97322   0.00000  Uiso   1.00
H807   H     0.00165   0.14120   0.52336   0.00000  Uiso   1.00
H808   H     0.18274   0.19873   0.58024   0.00000  Uiso   1.00
N809   N     0.11736   0.16668   0.74999   0.00000  Uiso   1.00
N810   N     0.21597   0.16666   0.75001   0.00000  Uiso   1.00
O811   O     0.03958   0.10655   0.75000   0.00000  Uiso   1.00
O812   O     0.07830   0.29293   0.76890   0.00000  Uiso   1.00
O813   O     0.29375   0.22678   0.75000   0.00000  Uiso   1.00
O814   O     0.29372   0.10654   0.75001   0.00000  Uiso   1.00
O815   O     0.03961   0.22679   0.75000   0.00000  Uiso   1.00
O816   O     0.01852   0.16668   0.81492   0.00000  Uiso   1.00
O817   O     0.31481   0.16666   0.68509   0.00000  Uiso   1.00
O818   O     0.27267   0.16667   0.81492   0.00000  Uiso   1.00
O819   O     0.06067   0.16667   0.68508   0.00000  Uiso   1.00
O820   O     0.25317   0.03969   0.73518   0.00000  Uiso   1.00
C821   C     0.66636   0.08740   0.75007   0.00000  Uiso   1.00
C822   C     0.37151   0.02180   0.75904   0.00000  Uiso   1.00
C823   C     0.33389   0.29041   0.75089   0.00000  Uiso   1.00
C824   C     0.66555   0.04267   0.75067   0.00000  Uiso   1.00
C825   C     0.51615   0.14646   0.78314   0.00000  Uiso   1.00
C826   C     0.48370   0.18752   0.71732   0.00000  Uiso   1.00
C827   C     0.46673   0.14617   0.78357   0.00000  Uiso   1.00
C828   C     0.53315   0.18773   0.71684   0.00000  Uiso   1.00
C829   C     0.63964   0.16723   0.83617   0.00000  Uiso   1.00
C830   C     0.36041   0.16656   0.66376   0.00000  Uiso   1.00
C831   C     0.62459   0.17133   0.88541   0.00000  Uiso   1.00
C832   C     0.33354   0.24584   0.75026   0.00000  Uiso   1.00
C833   C     0.37554   0.16552   0.61413   0.00000  Uiso   1.00
C834   C     0.63881   0.19447   0.95521   0.00000  Uiso   1.00
C835   C     0.36012   0.15072   0.54222   0.00000  Uiso   1.00
C836   C     0.65592   0.18665   0.90941   0.00000  Uiso   1.00
C837   C     0.34364   0.15420   0.58884   0.00000  Uiso   1.00
C838   C     0.57629   0.16356   0.90773   0.00000  Uiso   1.00
C839   C     0.42389   0.17383   0.59220   0.00000  Uiso   1.00
C840   C     0.55744   0.17344   0.95323   0.00000  Uiso   1.00
C841   C     0.44170   0.17016   0.54520   0.00000  Uiso   1.00
C842   C     0.58997   0.18807   0.97723   0.00000  Uiso   1.00
C843   C     0.52533   0.19087   0.54519   0.00000  Uiso   1.00
C844   C     0.40876   0.15822   0.52033   0.00000  Uiso   1.00
C845   C     0.50742   0.16927   0.97539   0.00000  Uiso   1.00
C846   C     0.49131   0.17681   0.52251   0.00000  Uiso   1.00
C847   C     0.54731   0.03527   0.77391   0.00000  Uiso   1.00
C848   C     0.50074   0.04085   0.76008   0.00000  Uiso   1.00
C849   C     0.40504   0.28906   0.81611   0.00000  Uiso   1.00
C850   C     0.44572   0.26380   0.82582   0.00000  Uiso   1.00
C851   C     0.43321   0.12402   0.82304   0.00000  Uiso   1.00
C852   C     0.56649   0.21060   0.67782   0.00000  Uiso   1.00
C853   C     0.47284   0.15880   0.95178   0.00000  Uiso   1.00
C854   C     0.57348   0.19662   0.52281   0.00000  Uiso   1.00
C855   C     0.42461   0.15342   0.97391   0.00000  Uiso   1.00
C856   C     0.62602   0.02037   0.74370   0.00000  Uiso   1.00
C857   C     0.37218   0.31253   0.76052   0.00000  Uiso   1.00
C858   C     0.62814   0.31121   0.74221   0.00000  Uiso   1.00
Cu859  Cu    0.38022   0.16667   0.75000   0.00000  Uiso   1.00
Cu860  Cu    0.61978   0.16666   0.75000   0.00000  Uiso   1.00
H861   H     0.59808   0.20783   0.54147   0.00000  Uiso   1.00
H862   H     0.48150   0.15520   0.91576   0.00000  Uiso   1.00
H863   H     0.59856   0.29464   0.73452   0.00000  Uiso   1.00
H864   H     0.40165   0.03851   0.76507   0.00000  Uiso   1.00
H865   H     0.52805   0.13060   0.80967   0.00000  Uiso   1.00
H866   H     0.47163   0.20402   0.69126   0.00000  Uiso   1.00
H867   H     0.55008   0.05904   0.79854   0.00000  Uiso   1.00
H868   H     0.54517   0.00455   0.79128   0.00000  Uiso   1.00
H869   H     0.49570   0.01541   0.73820   0.00000  Uiso   1.00
H870   H     0.47034   0.04045   0.79086   0.00000  Uiso   1.00
H871   H     0.50134   0.07046   0.74125   0.00000  Uiso   1.00
H872   H     0.39956   0.14498   0.95448   0.00000  Uiso   1.00
H873   H     0.37039   0.27300   0.83267   0.00000  Uiso   1.00
H874   H     0.40568   0.31980   0.83109   0.00000  Uiso   1.00
H875   H     0.44146   0.26122   0.86286   0.00000  Uiso   1.00
H876   H     0.44496   0.23249   0.81249   0.00000  Uiso   1.00
H877   H     0.48096   0.27872   0.80957   0.00000  Uiso   1.00
H878   H     0.41549   0.14651   0.84827   0.00000  Uiso   1.00
H879   H     0.40666   0.10471   0.81253   0.00000  Uiso   1.00
H880   H     0.45306   0.10293   0.84066   0.00000  Uiso   1.00
H881   H     0.59329   0.22942   0.68846   0.00000  Uiso   1.00
H882   H     0.58401   0.18862   0.65196   0.00000  Uiso   1.00
H883   H     0.44719   0.18207   0.61299   0.00000  Uiso   1.00
H884   H     0.54651   0.23232   0.66102   0.00000  Uiso   1.00
H885   H     0.55413   0.14976   0.88854   0.00000  Uiso   1.00
H886   H     0.63976   0.14675   0.60510   0.00000  Uiso   1.00
H887   H     0.35982   0.19364   0.89264   0.00000  Uiso   1.00
H888   H     0.66356   0.20648   0.97322   0.00000  Uiso   1.00
H889   H     0.33498   0.14120   0.52336   0.00000  Uiso   1.00
H890   H     0.51608   0.19873   0.58024   0.00000  Uiso   1.00
N891   N     0.45069   0.16668   0.74999   0.00000  Uiso   1.00
N892   N     0.54931   0.16666   0.75001   0.00000  Uiso   1.00
O893   O     0.37291   0.10655   0.75000   0.00000  Uiso   1.00
O894   O     0.41163   0.29293   0.76890   0.00000  Uiso   1.00
O895   O     0.62709   0.22678   0.75000   0.00000  Uiso   1.00
O896   O     0.62706   0.10654   0.75001   0.00000  Uiso   1.00
O897   O     0.37294   0.22679   0.75000   0.00000  Uiso   1.00
O898   O     0.35186   0.16668   0.81492   0.00000  Uiso   1.00
O899   O     0.64814   0.16666   0.68509   0.00000  Uiso   1.00
O900   O     0.60600   0.16667   0.81492   0.00000  Uiso   1.00
O901   O     0.39400   0.16667   0.68508   0.00000  Uiso   1.00
O902   O     0.58651   0.03969   0.73518   0.00000  Uiso   1.00
C903   C     0.99969   0.08740   0.75007   0.00000  Uiso   1.00
C904   C     0.70485   0.02180   0.75904   0.00000  Uiso   1.00
C905   C     0.66723   0.29041   0.75089   0.00000  Uiso   1.00
C906   C     0.99888   0.04267   0.75067   0.00000  Uiso   1.00
C907   C     0.84949   0.14646   0.78314   0.00000  Uiso   1.00
C908   C     0.81703   0.18752   0.71732   0.00000  Uiso   1.00
C909   C     0.80006   0.14617   0.78357   0.00000  Uiso   1.00
C910   C     0.86648   0.18773   0.71684   0.00000  Uiso   1.00
C911   C     0.97297   0.16723   0.83617   0.00000  Uiso   1.00
C912   C     0.69374   0.16656   0.66376   0.00000  Uiso   1.00
C913   C     0.95792   0.17133   0.88541   0.00000  Uiso   1.00
C914   C     0.66687   0.24584   0.75026   0.00000  Uiso   1.00
C915   C     0.70887   0.16552   0.61413   0.00000  Uiso   1.00
C916   C     0.97214   0.19447   0.95521   0.00000  Uiso   1.00
C917   C     0.69345   0.15072   0.54222   0.00000  Uiso   1.00
C918   C     0.98925   0.18665   0.90941   0.00000  Uiso   1.00
C919   C     0.67697   0.15420   0.58884   0.00000  Uiso   1.00
C920   C     0.90962   0.16356   0.90773   0.00000  Uiso   1.00
C921   C     0.75723   0.17383   0.59220   0.00000  Uiso   1.00
C922   C     0.89077   0.17344   0.95323   0.00000  Uiso   1.00
C923   C     0.77504   0.17016   0.54520   0.00000  Uiso   1.00
C924   C     0.92331   0.18807   0.97723   0.00000  Uiso   1.00
C925   C     0.85867   0.19087   0.54519   0.00000  Uiso   1.00
C926   C     0.74209   0.15822   0.52033   0.00000  Uiso   1.00
C927   C     0.84075   0.16927   0.97539   0.00000  Uiso   1.00
C928   C     0.82465   0.17681   0.52251   0.00000  Uiso   1.00
C929   C     0.88065   0.03527   0.77391   0.00000  Uiso   1.00
C930   C     0.83407   0.04085   0.76008   0.00000  Uiso   1.00
C931   C     0.73837   0.28906   0.81611   0.00000  Uiso   1.00
C932   C     0.77905   0.26380   0.82582   0.00000  Uiso   1.00
C933   C     0.76654   0.12402   0.82304   0.00000  Uiso   1.00
C934   C     0.89982   0.21060   0.67782   0.00000  Uiso   1.00
C935   C     0.80617   0.15880   0.95178   0.00000  Uiso   1.00
C936   C     0.90681   0.19662   0.52281   0.00000  Uiso   1.00
C937   C     0.75795   0.15342   0.97391   0.00000  Uiso   1.00
C938   C     0.95935   0.02037   0.74370   0.00000  Uiso   1.00
C939   C     0.70551   0.31253   0.76052   0.00000  Uiso   1.00
C940   C     0.96148   0.31121   0.74221   0.00000  Uiso   1.00
Cu941  Cu    0.71355   0.16667   0.75000   0.00000  Uiso   1.00
Cu942  Cu    0.95311   0.16666   0.75000   0.00000  Uiso   1.00
H943   H     0.93141   0.20783   0.54147   0.00000  Uiso   1.00
H944   H     0.81484   0.15520   0.91576   0.00000  Uiso   1.00
H945   H     0.93190   0.29464   0.73452   0.00000  Uiso   1.00
H946   H     0.73498   0.03851   0.76507   0.00000  Uiso   1.00
H947   H     0.86138   0.13060   0.80967   0.00000  Uiso   1.00
H948   H     0.80496   0.20402   0.69126   0.00000  Uiso   1.00
H949   H     0.88341   0.05904   0.79854   0.00000  Uiso   1.00
H950   H     0.87851   0.00455   0.79128   0.00000  Uiso   1.00
H951   H     0.82903   0.01541   0.73820   0.00000  Uiso   1.00
H952   H     0.80367   0.04045   0.79086   0.00000  Uiso   1.00
H953   H     0.83467   0.07046   0.74125   0.00000  Uiso   1.00
H954   H     0.73290   0.14498   0.95448   0.00000  Uiso   1.00
H955   H     0.70372   0.27300   0.83267   0.00000  Uiso   1.00
H956   H     0.73901   0.31980   0.83109   0.00000  Uiso   1.00
H957   H     0.77480   0.26122   0.86286   0.00000  Uiso   1.00
H958   H     0.77829   0.23249   0.81249   0.00000  Uiso   1.00
H959   H     0.81430   0.27872   0.80957   0.00000  Uiso   1.00
H960   H     0.74883   0.14651   0.84827   0.00000  Uiso   1.00
H961   H     0.73999   0.10471   0.81253   0.00000  Uiso   1.00
H962   H     0.78639   0.10293   0.84066   0.00000  Uiso   1.00
H963   H     0.92662   0.22942   0.68846   0.00000  Uiso   1.00
H964   H     0.91734   0.18862   0.65196   0.00000  Uiso   1.00
H965   H     0.78052   0.18207   0.61299   0.00000  Uiso   1.00
H966   H     0.87984   0.23232   0.66102   0.00000  Uiso   1.00
H967   H     0.88746   0.14976   0.88854   0.00000  Uiso   1.00
H968   H     0.97309   0.14675   0.60510   0.00000  Uiso   1.00
H969   H     0.69316   0.19364   0.89264   0.00000  Uiso   1.00
H970   H     0.99690   0.20648   0.97322   0.00000  Uiso   1.00
H971   H     0.66832   0.14120   0.52336   0.00000  Uiso   1.00
H972   H     0.84941   0.19873   0.58024   0.00000  Uiso   1.00
N973   N     0.78403   0.16668   0.74999   0.00000  Uiso   1.00
N974   N     0.88264   0.16666   0.75001   0.00000  Uiso   1.00
O975   O     0.70625   0.10655   0.75000   0.00000  Uiso   1.00
O976   O     0.74497   0.29293   0.76890   0.00000  Uiso   1.00
O977   O     0.96042   0.22678   0.75000   0.00000  Uiso   1.00
O978   O     0.96039   0.10654   0.75001   0.00000  Uiso   1.00
O979   O     0.70628   0.22679   0.75000   0.00000  Uiso   1.00
O980   O     0.68519   0.16668   0.81492   0.00000  Uiso   1.00
O981   O     0.98148   0.16666   0.68509   0.00000  Uiso   1.00
O982   O     0.93933   0.16667   0.81492   0.00000  Uiso   1.00
O983   O     0.72733   0.16667   0.68508   0.00000  Uiso   1.00
O984   O     0.91984   0.03969   0.73518   0.00000  Uiso   1.00
C985   C     0.33302   0.42074   0.75007   0.00000  Uiso   1.00
C986   C     0.03818   0.35513   0.75904   0.00000  Uiso   1.00
C987   C     0.00056   0.62374   0.75089   0.00000  Uiso   1.00
C988   C     0.33222   0.37601   0.75067   0.00000  Uiso   1.00
C989   C     0.18282   0.47980   0.78314   0.00000  Uiso   1.00
C990   C     0.15037   0.52085   0.71732   0.00000  Uiso   1.00
C991   C     0.13340   0.47950   0.78357   0.00000  Uiso   1.00
C992   C     0.19981   0.52106   0.71684   0.00000  Uiso   1.00
C993   C     0.30630   0.50056   0.83617   0.00000  Uiso   1.00
C994   C     0.02707   0.49989   0.66376   0.00000  Uiso   1.00
C995   C     0.29126   0.50466   0.88541   0.00000  Uiso   1.00
C996   C     0.00020   0.57918   0.75026   0.00000  Uiso   1.00
C997   C     0.04220   0.49885   0.61413   0.00000  Uiso   1.00
C998   C     0.30547   0.52780   0.95521   0.00000  Uiso   1.00
C999   C     0.02678   0.48406   0.54222   0.00000  Uiso   1.00
C1000  C     0.32259   0.51998   0.90941   0.00000  Uiso   1.00
C1001  C     0.01030   0.48753   0.58884   0.00000  Uiso   1.00
C1002  C     0.24296   0.49689   0.90773   0.00000  Uiso   1.00
C1003  C     0.09056   0.50716   0.59220   0.00000  Uiso   1.00
C1004  C     0.22411   0.50677   0.95323   0.00000  Uiso   1.00
C1005  C     0.10837   0.50349   0.54520   0.00000  Uiso   1.00
C1006  C     0.25664   0.52141   0.97723   0.00000  Uiso   1.00
C1007  C     0.19200   0.52421   0.54519   0.00000  Uiso   1.00
C1008  C     0.07542   0.49156   0.52033   0.00000  Uiso   1.00
C1009  C     0.17409   0.50261   0.97539   0.00000  Uiso   1.00
C1010  C     0.15798   0.51014   0.52251   0.00000  Uiso   1.00
C1011  C     0.21398   0.36861   0.77391   0.00000  Uiso   1.00
C1012  C     0.16740   0.37418   0.76008   0.00000  Uiso   1.00
C1013  C     0.07171   0.62239   0.81611   0.00000  Uiso   1.00
C1014  C     0.11239   0.59713   0.82582   0.00000  Uiso   1.00
C1015  C     0.09988   0.45735   0.82304   0.00000  Uiso   1.00
C1016  C     0.23316   0.54394   0.67782   0.00000  Uiso   1.00
C1017  C     0.13951   0.49213   0.95178   0.00000  Uiso   1.00
C1018  C     0.24015   0.52996   0.52281   0.00000  Uiso   1.00
C1019  C     0.09128   0.48675   0.97391   0.00000  Uiso   1.00
C1020  C     0.29268   0.35370   0.74370   0.00000  Uiso   1.00
C1021  C     0.03885   0.64586   0.76052   0.00000  Uiso   1.00
C1022  C     0.29481   0.64454   0.74221   0.00000  Uiso   1.00
Cu1023 Cu    0.04689   0.50001   0.75000   0.00000  Uiso   1.00
Cu1024 Cu    0.28645   0.49999   0.75000   0.00000  Uiso   1.00
H1025  H     0.26474   0.54116   0.54147   0.00000  Uiso   1.00
H1026  H     0.14817   0.48854   0.91576   0.00000  Uiso   1.00
H1027  H     0.26523   0.62797   0.73452   0.00000  Uiso   1.00
H1028  H     0.06832   0.37184   0.76507   0.00000  Uiso   1.00
H1029  H     0.19471   0.46394   0.80967   0.00000  Uiso   1.00
H1030  H     0.13830   0.53735   0.69126   0.00000  Uiso   1.00
H1031  H     0.21675   0.39238   0.79854   0.00000  Uiso   1.00
H1032  H     0.21184   0.33788   0.79128   0.00000  Uiso   1.00
H1033  H     0.16236   0.34874   0.73820   0.00000  Uiso   1.00
H1034  H     0.13700   0.37378   0.79086   0.00000  Uiso   1.00
H1035  H     0.16801   0.40379   0.74125   0.00000  Uiso   1.00
H1036  H     0.06623   0.47832   0.95448   0.00000  Uiso   1.00
H1037  H     0.03705   0.60633   0.83267   0.00000  Uiso   1.00
H1038  H     0.07235   0.65313   0.83109   0.00000  Uiso   1.00
H1039  H     0.10813   0.59455   0.86286   0.00000  Uiso   1.00
H1040  H     0.11163   0.56583   0.81249   0.00000  Uiso   1.00
H1041  H     0.14763   0.61205   0.80957   0.00000  Uiso   1.00
H1042  H     0.08216   0.47984   0.84827   0.00000  Uiso   1.00
H1043  H     0.07333   0.43805   0.81253   0.00000  Uiso   1.00
H1044  H     0.11972   0.43627   0.84066   0.00000  Uiso   1.00
H1045  H     0.25996   0.56275   0.68846   0.00000  Uiso   1.00
H1046  H     0.25067   0.52195   0.65196   0.00000  Uiso   1.00
H1047  H     0.11385   0.51540   0.61299   0.00000  Uiso   1.00
H1048  H     0.21318   0.56565   0.66102   0.00000  Uiso   1.00
H1049  H     0.22080   0.48309   0.88854   0.00000  Uiso   1.00
H1050  H     0.30642   0.48009   0.60510   0.00000  Uiso   1.00
H1051  H     0.02649   0.52697   0.89264   0.00000  Uiso   1.00
H1052  H     0.33023   0.53982   0.97322   0.00000  Uiso   1.00
H1053  H     0.00165   0.47453   0.52336   0.00000  Uiso   1.00
H1054  H     0.18274   0.53206   0.58024   0.00000  Uiso   1.00
N1055  N     0.11736   0.50001   0.74999   0.00000  Uiso   1.00
N1056  N     0.21597   0.49999   0.75001   0.00000  Uiso   1.00
O1057  O     0.03958   0.43989   0.75000   0.00000  Uiso   1.00
O1058  O     0.07830   0.62626   0.76890   0.00000  Uiso   1.00
O1059  O     0.29375   0.56011   0.75000   0.00000  Uiso   1.00
O1060  O     0.29372   0.43988   0.75001   0.00000  Uiso   1.00
O1061  O     0.03961   0.56012   0.75000   0.00000  Uiso   1.00
O1062  O     0.01852   0.50001   0.81492   0.00000  Uiso   1.00
O1063  O     0.31481   0.49999   0.68509   0.00000  Uiso   1.00
O1064  O     0.27267   0.50000   0.81492   0.00000  Uiso   1.00
O1065  O     0.06067   0.50000   0.68508   0.00000  Uiso   1.00
O1066  O     0.25317   0.37302   0.73518   0.00000  Uiso   1.00
C1067  C     0.66636   0.42074   0.75007   0.00000  Uiso   1.00
C1068  C     0.37151   0.35513   0.75904   0.00000  Uiso   1.00
C1069  C     0.33389   0.62374   0.75089   0.00000  Uiso   1.00
C1070  C     0.66555   0.37601   0.75067   0.00000  Uiso   1.00
C1071  C     0.51615   0.47980   0.78314   0.00000  Uiso   1.00
C1072  C     0.48370   0.52085   0.71732   0.00000  Uiso   1.00
C1073  C     0.46673   0.47950   0.78357   0.00000  Uiso   1.00
C1074  C     0.53315   0.52106   0.71684   0.00000  Uiso   1.00
C1075  C     0.63964   0.50056   0.83617   0.00000  Uiso   1.00
C1076  C     0.36041   0.49989   0.66376   0.00000  Uiso   1.00
C1077  C     0.62459   0.50466   0.88541   0.00000  Uiso   1.00
C1078  C     0.33354   0.57918   0.75026   0.00000  Uiso   1.00
C1079  C     0.37554   0.49885   0.61413   0.00000  Uiso   1.00
C1080  C     0.63881   0.52780   0.95521   0.00000  Uiso   1.00
C1081  C     0.36012   0.48406   0.54222   0.00000  Uiso   1.00
C1082  C     0.65592   0.51998   0.90941   0.00000  Uiso   1.00
C1083  C     0.34364   0.48753   0.58884   0.00000  Uiso   1.00
C1084  C     0.57629   0.49689   0.90773   0.00000  Uiso   1.00
C1085  C     0.42389   0.50716   0.59220   0.00000  Uiso   1.00
C1086  C     0.55744   0.50677   0.95323   0.00000  Uiso   1.00
C1087  C     0.44170   0.50349   0.54520   0.00000  Uiso   1.00
C1088  C     0.58997   0.52141   0.97723   0.00000  Uiso   1.00
C1089  C     0.52533   0.52421   0.54519   0.00000  Uiso   1.00
C1090  C     0.40876   0.49156   0.52033   0.00000  Uiso   1.00
C1091  C     0.50742   0.50261   0.97539   0.00000  Uiso   1.00
C1092  C     0.49131   0.51014   0.52251   0.00000  Uiso   1.00
C1093  C     0.54731   0.36861   0.77391   0.00000  Uiso   1.00
C1094  C     0.50074   0.37418   0.76008   0.00000  Uiso   1.00
C1095  C     0.40504   0.62239   0.81611   0.00000  Uiso   1.00
C1096  C     0.44572   0.59713   0.82582   0.00000  Uiso   1.00
C1097  C     0.43321   0.45735   0.82304   0.00000  Uiso   1.00
C1098  C     0.56649   0.54394   0.67782   0.00000  Uiso   1.00
C1099  C     0.47284   0.49213   0.95178   0.00000  Uiso   1.00
C1100  C     0.57348   0.52996   0.52281   0.00000  Uiso   1.00
C1101  C     0.42461   0.48675   0.97391   0.00000  Uiso   1.00
C1102  C     0.62602   0.35370   0.74370   0.00000  Uiso   1.00
C1103  C     0.37218   0.64586   0.76052   0.00000  Uiso   1.00
C1104  C     0.62814   0.64454   0.74221   0.00000  Uiso   1.00
Cu1105 Cu    0.38022   0.50001   0.75000   0.00000  Uiso   1.00
Cu1106 Cu    0.61978   0.49999   0.75000   0.00000  Uiso   1.00
H1107  H     0.59808   0.54116   0.54147   0.00000  Uiso   1.00
H1108  H     0.48150   0.48854   0.91576   0.00000  Uiso   1.00
H1109  H     0.59856   0.62797   0.73452   0.00000  Uiso   1.00
H1110  H     0.40165   0.37184   0.76507   0.00000  Uiso   1.00
H1111  H     0.52805   0.46394   0.80967   0.00000  Uiso   1.00
H1112  H     0.47163   0.53735   0.69126   0.00000  Uiso   1.00
H1113  H     0.55008   0.39238   0.79854   0.00000  Uiso   1.00
H1114  H     0.54517   0.33788   0.79128   0.00000  Uiso   1.00
H1115  H     0.49570   0.34874   0.73820   0.00000  Uiso   1.00
H1116  H     0.47034   0.37378   0.79086   0.00000  Uiso   1.00
H1117  H     0.50134   0.40379   0.74125   0.00000  Uiso   1.00
H1118  H     0.39956   0.47832   0.95448   0.00000  Uiso   1.00
H1119  H     0.37039   0.60633   0.83267   0.00000  Uiso   1.00
H1120  H     0.40568   0.65313   0.83109   0.00000  Uiso   1.00
H1121  H     0.44146   0.59455   0.86286   0.00000  Uiso   1.00
H1122  H     0.44496   0.56583   0.81249   0.00000  Uiso   1.00
H1123  H     0.48096   0.61205   0.80957   0.00000  Uiso   1.00
H1124  H     0.41549   0.47984   0.84827   0.00000  Uiso   1.00
H1125  H     0.40666   0.43805   0.81253   0.00000  Uiso   1.00
H1126  H     0.45306   0.43627   0.84066   0.00000  Uiso   1.00
H1127  H     0.59329   0.56275   0.68846   0.00000  Uiso   1.00
H1128  H     0.58401   0.52195   0.65196   0.00000  Uiso   1.00
H1129  H     0.44719   0.51540   0.61299   0.00000  Uiso   1.00
H1130  H     0.54651   0.56565   0.66102   0.00000  Uiso   1.00
H1131  H     0.55413   0.48309   0.88854   0.00000  Uiso   1.00
H1132  H     0.63976   0.48009   0.60510   0.00000  Uiso   1.00
H1133  H     0.35982   0.52697   0.89264   0.00000  Uiso   1.00
H1134  H     0.66356   0.53982   0.97322   0.00000  Uiso   1.00
H1135  H     0.33498   0.47453   0.52336   0.00000  Uiso   1.00
H1136  H     0.51608   0.53206   0.58024   0.00000  Uiso   1.00
N1137  N     0.45069   0.50001   0.74999   0.00000  Uiso   1.00
N1138  N     0.54931   0.49999   0.75001   0.00000  Uiso   1.00
O1139  O     0.37291   0.43989   0.75000   0.00000  Uiso   1.00
O1140  O     0.41163   0.62626   0.76890   0.00000  Uiso   1.00
O1141  O     0.62709   0.56011   0.75000   0.00000  Uiso   1.00
O1142  O     0.62706   0.43988   0.75001   0.00000  Uiso   1.00
O1143  O     0.37294   0.56012   0.75000   0.00000  Uiso   1.00
O1144  O     0.35186   0.50001   0.81492   0.00000  Uiso   1.00
O1145  O     0.64814   0.49999   0.68509   0.00000  Uiso   1.00
O1146  O     0.60600   0.50000   0.81492   0.00000  Uiso   1.00
O1147  O     0.39400   0.50000   0.68508   0.00000  Uiso   1.00
O1148  O     0.58651   0.37302   0.73518   0.00000  Uiso   1.00
C1149  C     0.99969   0.42074   0.75007   0.00000  Uiso   1.00
C1150  C     0.70485   0.35513   0.75904   0.00000  Uiso   1.00
C1151  C     0.66723   0.62374   0.75089   0.00000  Uiso   1.00
C1152  C     0.99888   0.37601   0.75067   0.00000  Uiso   1.00
C1153  C     0.84949   0.47980   0.78314   0.00000  Uiso   1.00
C1154  C     0.81703   0.52085   0.71732   0.00000  Uiso   1.00
C1155  C     0.80006   0.47950   0.78357   0.00000  Uiso   1.00
C1156  C     0.86648   0.52106   0.71684   0.00000  Uiso   1.00
C1157  C     0.97297   0.50056   0.83617   0.00000  Uiso   1.00
C1158  C     0.69374   0.49989   0.66376   0.00000  Uiso   1.00
C1159  C     0.95792   0.50466   0.88541   0.00000  Uiso   1.00
C1160  C     0.66687   0.57918   0.75026   0.00000  Uiso   1.00
C1161  C     0.70887   0.49885   0.61413   0.00000  Uiso   1.00
C1162  C     0.97214   0.52780   0.95521   0.00000  Uiso   1.00
C1163  C     0.69345   0.48406   0.54222   0.00000  Uiso   1.00
C1164  C     0.98925   0.51998   0.90941   0.00000  Uiso   1.00
C1165  C     0.67697   0.48753   0.58884   0.00000  Uiso   1.00
C1166  C     0.90962   0.49689   0.90773   0.00000  Uiso   1.00
C1167  C     0.75723   0.50716   0.59220   0.00000  Uiso   1.00
C1168  C     0.89077   0.50677   0.95323   0.00000  Uiso   1.00
C1169  C     0.77504   0.50349   0.54520   0.00000  Uiso   1.00
C1170  C     0.92331   0.52141   0.97723   0.00000  Uiso   1.00
C1171  C     0.85867   0.52421   0.54519   0.00000  Uiso   1.00
C1172  C     0.74209   0.49156   0.52033   0.00000  Uiso   1.00
C1173  C     0.84075   0.50261   0.97539   0.00000  Uiso   1.00
C1174  C     0.82465   0.51014   0.52251   0.00000  Uiso   1.00
C1175  C     0.88065   0.36861   0.77391   0.00000  Uiso   1.00
C1176  C     0.83407   0.37418   0.76008   0.00000  Uiso   1.00
C1177  C     0.73837   0.62239   0.81611   0.00000  Uiso   1.00
C1178  C     0.77905   0.59713   0.82582   0.00000  Uiso   1.00
C1179  C     0.76654   0.45735   0.82304   0.00000  Uiso   1.00
C1180  C     0.89982   0.54394   0.67782   0.00000  Uiso   1.00
C1181  C     0.80617   0.49213   0.95178   0.00000  Uiso   1.00
C1182  C     0.90681   0.52996   0.52281   0.00000  Uiso   1.00
C1183  C     0.75795   0.48675   0.97391   0.00000  Uiso   1.00
C1184  C     0.95935   0.35370   0.74370   0.00000  Uiso   1.00
C1185  C     0.70551   0.64586   0.76052   0.00000  Uiso   1.00
C1186  C     0.96148   0.64454   0.74221   0.00000  Uiso   1.00
Cu1187 Cu    0.71355   0.50001   0.75000   0.00000  Uiso   1.00
Cu1188 Cu    0.95311   0.49999   0.75000   0.00000  Uiso   1.00
H1189  H     0.93141   0.54116   0.54147   0.00000  Uiso   1.00
H1190  H     0.81484   0.48854   0.91576   0.00000  Uiso   1.00
H1191  H     0.93190   0.62797   0.73452   0.00000  Uiso   1.00
H1192  H     0.73498   0.37184   0.76507   0.00000  Uiso   1.00
H1193  H     0.86138   0.46394   0.80967   0.00000  Uiso   1.00
H1194  H     0.80496   0.53735   0.69126   0.00000  Uiso   1.00
H1195  H     0.88341   0.39238   0.79854   0.00000  Uiso   1.00
H1196  H     0.87851   0.33788   0.79128   0.00000  Uiso   1.00
H1197  H     0.82903   0.34874   0.73820   0.00000  Uiso   1.00
H1198  H     0.80367   0.37378   0.79086   0.00000  Uiso   1.00
H1199  H     0.83467   0.40379   0.74125   0.00000  Uiso   1.00
H1200  H     0.73290   0.47832   0.95448   0.00000  Uiso   1.00
H1201  H     0.70372   0.60633   0.83267   0.00000  Uiso   1.00
H1202  H     0.73901   0.65313   0.83109   0.00000  Uiso   1.00
H1203  H     0.77480   0.59455   0.86286   0.00000  Uiso   1.00
H1204  H     0.77829   0.56583   0.81249   0.00000  Uiso   1.00
H1205  H     0.81430   0.61205   0.80957   0.00000  Uiso   1.00
H1206  H     0.74883   0.47984   0.84827   0.00000  Uiso   1.00
H1207  H     0.73999   0.43805   0.81253   0.00000  Uiso   1.00
H1208  H     0.78639   0.43627   0.84066   0.00000  Uiso   1.00
H1209  H     0.92662   0.56275   0.68846   0.00000  Uiso   1.00
H1210  H     0.91734   0.52195   0.65196   0.00000  Uiso   1.00
H1211  H     0.78052   0.51540   0.61299   0.00000  Uiso   1.00
H1212  H     0.87984   0.56565   0.66102   0.00000  Uiso   1.00
H1213  H     0.88746   0.48309   0.88854   0.00000  Uiso   1.00
H1214  H     0.97309   0.48009   0.60510   0.00000  Uiso   1.00
H1215  H     0.69316   0.52697   0.89264   0.00000  Uiso   1.00
H1216  H     0.99690   0.53982   0.97322   0.00000  Uiso   1.00
H1217  H     0.66832   0.47453   0.52336   0.00000  Uiso   1.00
H1218  H     0.84941   0.53206   0.58024   0.00000  Uiso   1.00
N1219  N     0.78403   0.50001   0.74999   0.00000  Uiso   1.00
N1220  N     0.88264   0.49999   0.75001   0.00000  Uiso   1.00
O1221  O     0.70625   0.43989   0.75000   0.00000  Uiso   1.00
O1222  O     0.74497   0.62626   0.76890   0.00000  Uiso   1.00
O1223  O     0.96042   0.56011   0.75000   0.00000  Uiso   1.00
O1224  O     0.96039   0.43988   0.75001   0.00000  Uiso   1.00
O1225  O     0.70628   0.56012   0.75000   0.00000  Uiso   1.00
O1226  O     0.68519   0.50001   0.81492   0.00000  Uiso   1.00
O1227  O     0.98148   0.49999   0.68509   0.00000  Uiso   1.00
O1228  O     0.93933   0.50000   0.81492   0.00000  Uiso   1.00
O1229  O     0.72733   0.50000   0.68508   0.00000  Uiso   1.00
O1230  O     0.91984   0.37302   0.73518   0.00000  Uiso   1.00
C1231  C     0.33302   0.75407   0.75007   0.00000  Uiso   1.00
C1232  C     0.03818   0.68846   0.75904   0.00000  Uiso   1.00
C1233  C     0.00056   0.95707   0.75089   0.00000  Uiso   1.00
C1234  C     0.33222   0.70934   0.75067   0.00000  Uiso   1.00
C1235  C     0.18282   0.81313   0.78314   0.00000  Uiso   1.00
C1236  C     0.15037   0.85419   0.71732   0.00000  Uiso   1.00
C1237  C     0.13340   0.81283   0.78357   0.00000  Uiso   1.00
C1238  C     0.19981   0.85440   0.71684   0.00000  Uiso   1.00
C1239  C     0.30630   0.83390   0.83617   0.00000  Uiso   1.00
C1240  C     0.02707   0.83323   0.66376   0.00000  Uiso   1.00
C1241  C     0.29126   0.83799   0.88541   0.00000  Uiso   1.00
C1242  C     0.00020   0.91251   0.75026   0.00000  Uiso   1.00
C1243  C     0.04220   0.83218   0.61413   0.00000  Uiso   1.00
C1244  C     0.30547   0.86114   0.95521   0.00000  Uiso   1.00
C1245  C     0.02678   0.81739   0.54222   0.00000  Uiso   1.00
C1246  C     0.32259   0.85331   0.90941   0.00000  Uiso   1.00
C1247  C     0.01030   0.82087   0.58884   0.00000  Uiso   1.00
C1248  C     0.24296   0.83022   0.90773   0.00000  Uiso   1.00
C1249  C     0.09056   0.84050   0.59220   0.00000  Uiso   1.00
C1250  C     0.22411   0.84010   0.95323   0.00000  Uiso   1.00
C1251  C     0.10837   0.83683   0.54520   0.00000  Uiso   1.00
C1252  C     0.25664   0.85474   0.97723   0.00000  Uiso   1.00
C1253  C     0.19200   0.85754   0.54519   0.00000  Uiso   1.00
C1254  C     0.07542   0.82489   0.52033   0.00000  Uiso   1.00
C1255  C     0.17409   0.83594   0.97539   0.00000  Uiso   1.00
C1256  C     0.15798   0.84348   0.52251   0.00000  Uiso   1.00
C1257  C     0.21398   0.70194   0.77391   0.00000  Uiso   1.00
C1258  C     0.16740   0.70751   0.76008   0.00000  Uiso   1.00
C1259  C     0.07171   0.95573   0.81611   0.00000  Uiso   1.00
C1260  C     0.11239   0.93047   0.82582   0.00000  Uiso   1.00
C1261  C     0.09988   0.79068   0.82304   0.00000  Uiso   1.00
C1262  C     0.23316   0.87727   0.67782   0.00000  Uiso   1.00
C1263  C     0.13951   0.82546   0.95178   0.00000  Uiso   1.00
C1264  C     0.24015   0.86329   0.52281   0.00000  Uiso   1.00
C1265  C     0.09128   0.82009   0.97391   0.00000  Uiso   1.00
C1266  C     0.29268   0.68703   0.74370   0.00000  Uiso   1.00
C1267  C     0.03885   0.97919   0.76052   0.00000  Uiso   1.00
C1268  C     0.29481   0.97787   0.74221   0.00000  Uiso   1.00
Cu1269 Cu    0.04689   0.83334   0.75000   0.00000  Uiso   1.00
Cu1270 Cu    0.28645   0.83333   0.75000   0.00000  Uiso   1.00
H1271  H     0.26474   0.87450   0.54147   0.00000  Uiso   1.00
H1272  H     0.14817   0.82187   0.91576   0.00000  Uiso   1.00
H1273  H     0.26523   0.96131   0.73452   0.00000  Uiso   1.00
H1274  H     0.06832   0.70517   0.76507   0.00000  Uiso   1.00
H1275  H     0.19471   0.79727   0.80967   0.00000  Uiso   1.00
H1276  H     0.13830   0.87069   0.69126   0.00000  Uiso   1.00
H1277  H     0.21675   0.72571   0.79854   0.00000  Uiso   1.00
H1278  H     0.21184   0.67121   0.79128   0.00000  Uiso   1.00
H1279  H     0.16236   0.68207   0.73820   0.00000  Uiso   1.00
H1280  H     0.13700   0.70712   0.79086   0.00000  Uiso   1.00
H1281  H     0.16801   0.73713   0.74125   0.00000  Uiso   1.00
H1282  H     0.06623   0.81165   0.95448   0.00000  Uiso   1.00
H1283  H     0.03705   0.93967   0.83267   0.00000  Uiso   1.00
H1284  H     0.07235   0.98646   0.83109   0.00000  Uiso   1.00
H1285  H     0.10813   0.92788   0.86286   0.00000  Uiso   1.00
H1286  H     0.11163   0.89916   0.81249   0.00000  Uiso   1.00
H1287  H     0.14763   0.94539   0.80957   0.00000  Uiso   1.00
H1288  H     0.08216   0.81318   0.84827   0.00000  Uiso   1.00
H1289  H     0.07333   0.77138   0.81253   0.00000  Uiso   1.00
H1290  H     0.11972   0.76960   0.84066   0.00000  Uiso   1.00
H1291  H     0.25996   0.89609   0.68846   0.00000  Uiso   1.00
H1292  H     0.25067   0.85529   0.65196   0.00000  Uiso   1.00
H1293  H     0.11385   0.84873   0.61299   0.00000  Uiso   1.00
H1294  H     0.21318   0.89898   0.66102   0.00000  Uiso   1.00
H1295  H     0.22080   0.81643   0.88854   0.00000  Uiso   1.00
H1296  H     0.30642   0.81342   0.60510   0.00000  Uiso   1.00
H1297  H     0.02649   0.86031   0.89264   0.00000  Uiso   1.00
H1298  H     0.33023   0.87315   0.97322   0.00000  Uiso   1.00
H1299  H     0.00165   0.80786   0.52336   0.00000  Uiso   1.00
H1300  H     0.18274   0.86539   0.58024   0.00000  Uiso   1.00
N1301  N     0.11736   0.83334   0.74999   0.00000  Uiso   1.00
N1302  N     0.21597   0.83332   0.75001   0.00000  Uiso   1.00
O1303  O     0.03958   0.77322   0.75000   0.00000  Uiso   1.00
O1304  O     0.07830   0.95959   0.76890   0.00000  Uiso   1.00
O1305  O     0.29375   0.89345   0.75000   0.00000  Uiso   1.00
O1306  O     0.29372   0.77321   0.75001   0.00000  Uiso   1.00
O1307  O     0.03961   0.89346   0.75000   0.00000  Uiso   1.00
O1308  O     0.01852   0.83334   0.81492   0.00000  Uiso   1.00
O1309  O     0.31481   0.83332   0.68509   0.00000  Uiso   1.00
O1310  O     0.27267   0.83333   0.81492   0.00000  Uiso   1.00
O1311  O     0.06067   0.83333   0.68508   0.00000  Uiso   1.00
O1312  O     0.25317   0.70635   0.73518   0.00000  Uiso   1.00
C1313  C     0.66636   0.75407   0.75007   0.00000  Uiso   1.00
C1314  C     0.37151   0.68846   0.75904   0.00000  Uiso   1.00
C1315  C     0.33389   0.95707   0.75089   0.00000  Uiso   1.00
C1316  C     0.66555   0.70934   0.75067   0.00000  Uiso   1.00
C1317  C     0.51615   0.81313   0.78314   0.00000  Uiso   1.00
C1318  C     0.48370   0.85419   0.71732   0.00000  Uiso   1.00
C1319  C     0.46673   0.81283   0.78357   0.00000  Uiso   1.00
C1320  C     0.53315   0.85440   0.71684   0.00000  Uiso   1.00
C1321  C     0.63964   0.83390   0.83617   0.00000  Uiso   1.00
C1322  C     0.36041   0.83323   0.66376   0.00000  Uiso   1.00
C1323  C     0.62459   0.83799   0.88541   0.00000  Uiso   1.00
C1324  C     0.33354   0.91251   0.75026   0.00000  Uiso   1.00
C1325  C     0.37554   0.83218   0.61413   0.00000  Uiso   1.00
C1326  C     0.63881   0.86114   0.95521   0.00000  Uiso   1.00
C1327  C     0.36012   0.81739   0.54222   0.00000  Uiso   1.00
C1328  C     0.65592   0.85331   0.90941   0.00000  Uiso   1.00
C1329  C     0.34364   0.82087   0.58884   0.00000  Uiso   1.00
C1330  C     0.57629   0.83022   0.90773   0.00000  Uiso   1.00
C1331  C     0.42389   0.84050   0.59220   0.00000  Uiso   1.00
C1332  C     0.55744   0.84010   0.95323   0.00000  Uiso   1.00
C1333  C     0.44170   0.83683   0.54520   0.00000  Uiso   1.00
C1334  C     0.58997   0.85474   0.97723   0.00000  Uiso   1.00
C1335  C     0.52533   0.85754   0.54519   0.00000  Uiso   1.00
C1336  C     0.40876   0.82489   0.52033   0.00000  Uiso   1.00
C1337  C     0.50742   0.83594   0.97539   0.00000  Uiso   1.00
C1338  C     0.49131   0.84348   0.52251   0.00000  Uiso   1.00
C1339  C     0.54731   0.70194   0.77391   0.00000  Uiso   1.00
C1340  C     0.50074   0.70751   0.76008   0.00000  Uiso   1.00
C1341  C     0.40504   0.95573   0.81611   0.00000  Uiso   1.00
C1342  C     0.44572   0.93047   0.82582   0.00000  Uiso   1.00
C1343  C     0.43321   0.79068   0.82304   0.00000  Uiso   1.00
C1344  C     0.56649   0.87727   0.67782   0.00000  Uiso   1.00
C1345  C     0.47284   0.82546   0.95178   0.00000  Uiso   1.00
C1346  C     0.57348   0.86329   0.52281   0.00000  Uiso   1.00
C1347  C     0.42461   0.82009   0.97391   0.00000  Uiso   1.00
C1348  C     0.62602   0.68703   0.74370   0.00000  Uiso   1.00
C1349  C     0.37218   0.97919   0.76052   0.00000  Uiso   1.00
C1350  C     0.62814   0.97787   0.74221   0.00000  Uiso   1.00
Cu1351 Cu    0.38022   0.83334   0.75000   0.00000  Uiso   1.00
Cu1352 Cu    0.61978   0.83333   0.75000   0.00000  Uiso   1.00
H1353  H     0.59808   0.87450   0.54147   0.00000  Uiso   1.00
H1354  H     0.48150   0.82187   0.91576   0.00000  Uiso   1.00
H1355  H     0.59856   0.96131   0.73452   0.00000  Uiso   1.00
H1356  H     0.40165   0.70517   0.76507   0.00000  Uiso   1.00
H1357  H     0.52805   0.79727   0.80967   0.00000  Uiso   1.00
H1358  H     0.47163   0.87069   0.69126   0.00000  Uiso   1.00
H1359  H     0.55008   0.72571   0.79854   0.00000  Uiso   1.00
H1360  H     0.54517   0.67121   0.79128   0.00000  Uiso   1.00
H1361  H     0.49570   0.68207   0.73820   0.00000  Uiso   1.00
H1362  H     0.47034   0.70712   0.79086   0.00000  Uiso   1.00
H1363  H     0.50134   0.73713   0.74125   0.00000  Uiso   1.00
H1364  H     0.39956   0.81165   0.95448   0.00000  Uiso   1.00
H1365  H     0.37039   0.93967   0.83267   0.00000  Uiso   1.00
H1366  H     0.40568   0.98646   0.83109   0.00000  Uiso   1.00
H1367  H     0.44146   0.92788   0.86286   0.00000  Uiso   1.00
H1368  H     0.44496   0.89916   0.81249   0.00000  Uiso   1.00
H1369  H     0.48096   0.94539   0.80957   0.00000  Uiso   1.00
H1370  H     0.41549   0.81318   0.84827   0.00000  Uiso   1.00
H1371  H     0.40666   0.77138   0.81253   0.00000  Uiso   1.00
H1372  H     0.45306   0.76960   0.84066   0.00000  Uiso   1.00
H1373  H     0.59329   0.89609   0.68846   0.00000  Uiso   1.00
H1374  H     0.58401   0.85529   0.65196   0.00000  Uiso   1.00
H1375  H     0.44719   0.84873   0.61299   0.00000  Uiso   1.00
H1376  H     0.54651   0.89898   0.66102   0.00000  Uiso   1.00
H1377  H     0.55413   0.81643   0.88854   0.00000  Uiso   1.00
H1378  H     0.63976   0.81342   0.60510   0.00000  Uiso   1.00
H1379  H     0.35982   0.86031   0.89264   0.00000  Uiso   1.00
H1380  H     0.66356   0.87315   0.97322   0.00000  Uiso   1.00
H1381  H     0.33498   0.80786   0.52336   0.00000  Uiso   1.00
H1382  H     0.51608   0.86539   0.58024   0.00000  Uiso   1.00
N1383  N     0.45069   0.83334   0.74999   0.00000  Uiso   1.00
N1384  N     0.54931   0.83332   0.75001   0.00000  Uiso   1.00
O1385  O     0.37291   0.77322   0.75000   0.00000  Uiso   1.00
O1386  O     0.41163   0.95959   0.76890   0.00000  Uiso   1.00
O1387  O     0.62709   0.89345   0.75000   0.00000  Uiso   1.00
O1388  O     0.62706   0.77321   0.75001   0.00000  Uiso   1.00
O1389  O     0.37294   0.89346   0.75000   0.00000  Uiso   1.00
O1390  O     0.35186   0.83334   0.81492   0.00000  Uiso   1.00
O1391  O     0.64814   0.83332   0.68509   0.00000  Uiso   1.00
O1392  O     0.60600   0.83333   0.81492   0.00000  Uiso   1.00
O1393  O     0.39400   0.83333   0.68508   0.00000  Uiso   1.00
O1394  O     0.58651   0.70635   0.73518   0.00000  Uiso   1.00
C1395  C     0.99969   0.75407   0.75007   0.00000  Uiso   1.00
C1396  C     0.70485   0.68846   0.75904   0.00000  Uiso   1.00
C1397  C     0.66723   0.95707   0.75089   0.00000  Uiso   1.00
C1398  C     0.99888   0.70934   0.75067   0.00000  Uiso   1.00
C1399  C     0.84949   0.81313   0.78314   0.00000  Uiso   1.00
C1400  C     0.81703   0.85419   0.71732   0.00000  Uiso   1.00
C1401  C     0.80006   0.81283   0.78357   0.00000  Uiso   1.00
C1402  C     0.86648   0.85440   0.71684   0.00000  Uiso   1.00
C1403  C     0.97297   0.83390   0.83617   0.00000  Uiso   1.00
C1404  C     0.69374   0.83323   0.66376   0.00000  Uiso   1.00
C1405  C     0.95792   0.83799   0.88541   0.00000  Uiso   1.00
C1406  C     0.66687   0.91251   0.75026   0.00000  Uiso   1.00
C1407  C     0.70887   0.83218   0.61413   0.00000  Uiso   1.00
C1408  C     0.97214   0.86114   0.95521   0.00000  Uiso   1.00
C1409  C     0.69345   0.81739   0.54222   0.00000  Uiso   1.00
C1410  C     0.98925   0.85331   0.90941   0.00000  Uiso   1.00
C1411  C     0.67697   0.82087   0.58884   0.00000  Uiso   1.00
C1412  C     0.90962   0.83022   0.90773   0.00000  Uiso   1.00
C1413  C     0.75723   0.84050   0.59220   0.00000  Uiso   1.00
C1414  C     0.89077   0.84010   0.95323   0.00000  Uiso   1.00
C1415  C     0.77504   0.83683   0.54520   0.00000  Uiso   1.00
C1416  C     0.92331   0.85474   0.97723   0.00000  Uiso   1.00
C1417  C     0.85867   0.85754   0.54519   0.00000  Uiso   1.00
C1418  C     0.74209   0.82489   0.52033   0.00000  Uiso   1.00
C1419  C     0.84075   0.83594   0.97539   0.00000  Uiso   1.00
C1420  C     0.82465   0.84348   0.52251   0.00000  Uiso   1.00
C1421  C     0.88065   0.70194   0.77391   0.00000  Uiso   1.00
C1422  C     0.83407   0.70751   0.76008   0.00000  Uiso   1.00
C1423  C     0.73837   0.95573   0.81611   0.00000  Uiso   1.00
C1424  C     0.77905   0.93047   0.82582   0.00000  Uiso   1.00
C1425  C     0.76654   0.79068   0.82304   0.00000  Uiso   1.00
C1426  C     0.89982   0.87727   0.67782   0.00000  Uiso   1.00
C1427  C     0.80617   0.82546   0.95178   0.00000  Uiso   1.00
C1428  C     0.90681   0.86329   0.52281   0.00000  Uiso   1.00
C1429  C     0.75795   0.82009   0.97391   0.00000  Uiso   1.00
C1430  C     0.95935   0.68703   0.74370   0.00000  Uiso   1.00
C1431  C     0.70551   0.97919   0.76052   0.00000  Uiso   1.00
C1432  C     0.96148   0.97787   0.74221   0.00000  Uiso   1.00
Cu1433 Cu    0.71355   0.83334   0.75000   0.00000  Uiso   1.00
Cu1434 Cu    0.95311   0.83333   0.75000   0.00000  Uiso   1.00
H1435  H     0.93141   0.87450   0.54147   0.00000  Uiso   1.00
H1436  H     0.81484   0.82187   0.91576   0.00000  Uiso   1.00
H1437  H     0.93190   0.96131   0.73452   0.00000  Uiso   1.00
H1438  H     0.73498   0.70517   0.76507   0.00000  Uiso   1.00
H1439  H     0.86138   0.79727   0.80967   0.00000  Uiso   1.00
H1440  H     0.80496   0.87069   0.69126   0.00000  Uiso   1.00
H1441  H     0.88341   0.72571   0.79854   0.00000  Uiso   1.00
H1442  H     0.87851   0.67121   0.79128   0.00000  Uiso   1.00
H1443  H     0.82903   0.68207   0.73820   0.00000  Uiso   1.00
H1444  H     0.80367   0.70712   0.79086   0.00000  Uiso   1.00
H1445  H     0.83467   0.73713   0.74125   0.00000  Uiso   1.00
H1446  H     0.73290   0.81165   0.95448   0.00000  Uiso   1.00
H1447  H     0.70372   0.93967   0.83267   0.00000  Uiso   1.00
H1448  H     0.73901   0.98646   0.83109   0.00000  Uiso   1.00
H1449  H     0.77480   0.92788   0.86286   0.00000  Uiso   1.00
H1450  H     0.77829   0.89916   0.81249   0.00000  Uiso   1.00
H1451  H     0.81430   0.94539   0.80957   0.00000  Uiso   1.00
H1452  H     0.74883   0.81318   0.84827   0.00000  Uiso   1.00
H1453  H     0.73999   0.77138   0.81253   0.00000  Uiso   1.00
H1454  H     0.78639   0.76960   0.84066   0.00000  Uiso   1.00
H1455  H     0.92662   0.89609   0.68846   0.00000  Uiso   1.00
H1456  H     0.91734   0.85529   0.65196   0.00000  Uiso   1.00
H1457  H     0.78052   0.84873   0.61299   0.00000  Uiso   1.00
H1458  H     0.87984   0.89898   0.66102   0.00000  Uiso   1.00
H1459  H     0.88746   0.81643   0.88854   0.00000  Uiso   1.00
H1460  H     0.97309   0.81342   0.60510   0.00000  Uiso   1.00
H1461  H     0.69316   0.86031   0.89264   0.00000  Uiso   1.00
H1462  H     0.99690   0.87315   0.97322   0.00000  Uiso   1.00
H1463  H     0.66832   0.80786   0.52336   0.00000  Uiso   1.00
H1464  H     0.84941   0.86539   0.58024   0.00000  Uiso   1.00
N1465  N     0.78403   0.83334   0.74999   0.00000  Uiso   1.00
N1466  N     0.88264   0.83332   0.75001   0.00000  Uiso   1.00
O1467  O     0.70625   0.77322   0.75000   0.00000  Uiso   1.00
O1468  O     0.74497   0.95959   0.76890   0.00000  Uiso   1.00
O1469  O     0.96042   0.89345   0.75000   0.00000  Uiso   1.00
O1470  O     0.96039   0.77321   0.75001   0.00000  Uiso   1.00
O1471  O     0.70628   0.89346   0.75000   0.00000  Uiso   1.00
O1472  O     0.68519   0.83334   0.81492   0.00000  Uiso   1.00
O1473  O     0.98148   0.83332   0.68509   0.00000  Uiso   1.00
O1474  O     0.93933   0.83333   0.81492   0.00000  Uiso   1.00
O1475  O     0.72733   0.83333   0.68508   0.00000  Uiso   1.00
O1476  O     0.91984   0.70635   0.73518   0.00000  Uiso   1.00
loop_
_geom_bond_atom_site_label_1
_geom_bond_atom_site_label_2
_geom_bond_distance
_geom_bond_site_symmetry_2
_ccdc_geom_bond_type
C1     O76     1.295   .     A
C1     C4      1.457   .     S
C1     O155    1.302   .     S
C2     H44     1.079   .     S
C2     C168    1.399   1_455 S
C2     C529    1.388   1_545 S
C3     C12     1.452   .     S
C3     C37     1.410   .     A
C3     C202    1.396   1_455 S
C4     C36     1.410   .     A
C4     C84     1.399   .     S
C5     N72     1.354   .     A
C5     C7      1.418   .     A
C5     H45     1.081   .     S
C6     N71     1.354   .     A
C6     C8      1.419   .     A
C6     H46     1.082   .     S
C7     N71     1.390   .     A
C7     C31     1.504   .     S
C8     N72     1.390   .     A
C8     C32     1.504   .     S
C9     O80     1.298   .     A
C9     C11     1.469   .     S
C9     O160    1.305   .     S
C10    C13     1.472   .     S
C10    O81     1.298   .     A
C10    O243    1.306   1_455 S
C11    C18     1.400   .     A
C11    C16     1.398   .     A
C12    O77     1.294   .     A
C12    O239    1.301   1_455 S
C13    C19     1.402   .     A
C13    C17     1.398   .     A
C14    C16     1.393   .     A
C14    C22     1.405   .     A
C14    H68     1.084   .     S
C15    H69     1.084   .     S
C15    C24     1.404   .     A
C15    C17     1.392   .     A
C16    H149    1.082   .     S
C17    H230    1.081   1_455 S
C18    H65     1.076   .     S
C18    C20     1.406   .     A
C19    C21     1.407   .     A
C19    H63     1.074   .     S
C20    C25     1.428   .     A
C20    C22     1.418   .     A
C21    C26     1.430   .     A
C21    C24     1.419   .     A
C22    C772    1.390   .     S
C23    C26     1.418   .     A
C23    H70     1.076   .     S
C23    C34     1.388   .     A
C24    C773    1.390   1_554 S
C25    C33     1.417   .     A
C25    C764    1.426   .     S
C26    C763    1.426   1_554 S
C27    H48     1.116   .     S
C27    H47     1.111   .     S
C27    O82     1.415   .     S
C27    C28     1.516   .     S
C28    H51     1.110   .     S
C28    H49     1.111   .     S
C28    H50     1.109   .     S
C29    H53     1.116   .     S
C29    O74     1.412   .     S
C29    C30     1.521   .     S
C29    H54     1.114   .     S
C30    H57     1.111   .     S
C30    H56     1.110   .     S
C30    H55     1.111   .     S
C31    H58     1.107   .     S
C31    H59     1.102   .     S
C31    H60     1.111   .     S
C32    H61     1.100   .     S
C32    H64     1.111   .     S
C32    H62     1.105   .     S
C33    H42     1.077   .     S
C33    C35     1.386   .     A
C34    H41     1.085   .     S
C34    C760    1.390   1_554 S
C35    H52     1.084   .     S
C35    C762    1.390   .     S
C36    O82     1.382   .     S
C36    C530    1.387   1_545 S
C37    O74     1.383   .     S
C37    C248    1.388   .     S
C38    H43     1.084   .     S
C38    C85     1.396   .     S
C38    C282    1.387   .     S
Cu39   O77     1.971   .     S
Cu39   O78     1.946   .     S
Cu39   O81     1.926   .     S
Cu39   N71     2.027   .     S
Cu39   O73     1.969   .     S
Cu39   Cu204   2.697   1_455 S
Cu40   O80     1.926   .     S
Cu40   N72     2.027   .     S
Cu40   O76     1.971   .     S
Cu40   O79     1.946   .     S
Cu40   O75     1.969   .     S
Cu40   Cu121   2.697   .     S
H66    C99     1.081   .     S
H67    C180    1.082   1_455 S
O73    C165    1.302   1_455 S
O75    C94     1.301   .     S
O78    C173    1.305   1_455 S
O79    C92     1.306   .     S
C83    O158    1.295   .     A
C83    C86     1.457   .     S
C83    O237    1.302   .     S
C84    H126    1.079   .     S
C84    C611    1.388   1_545 S
C85    C94     1.452   .     S
C85    C119    1.410   .     A
C86    C118    1.410   .     A
C86    C166    1.399   .     S
C87    N154    1.354   .     A
C87    C89     1.418   .     A
C87    H127    1.081   .     S
C88    N153    1.354   .     A
C88    C90     1.419   .     A
C88    H128    1.082   .     S
C89    N153    1.390   .     A
C89    C113    1.504   .     S
C90    N154    1.390   .     A
C90    C114    1.504   .     S
C91    O162    1.298   .     A
C91    C93     1.469   .     S
C91    O242    1.305   .     S
C92    C95     1.472   .     S
C92    O163    1.298   .     A
C93    C100    1.400   .     A
C93    C98     1.398   .     A
C94    O159    1.294   .     A
C95    C101    1.402   .     A
C95    C99     1.398   .     A
C96    C98     1.393   .     A
C96    C104    1.405   .     A
C96    H150    1.084   .     S
C97    H151    1.084   .     S
C97    C106    1.404   .     A
C97    C99     1.392   .     A
C98    H231    1.082   .     S
C100   H147    1.076   .     S
C100   C102    1.406   .     A
C101   C103    1.407   .     A
C101   H145    1.074   .     S
C102   C107    1.428   .     A
C102   C104    1.418   .     A
C103   C108    1.430   .     A
C103   C106    1.419   .     A
C104   C854    1.390   .     S
C105   C108    1.418   .     A
C105   H152    1.076   .     S
C105   C116    1.388   .     A
C106   C855    1.390   1_554 S
C107   C115    1.417   .     A
C107   C846    1.426   .     S
C108   C845    1.426   1_554 S
C109   H130    1.116   .     S
C109   H129    1.111   .     S
C109   O164    1.415   .     S
C109   C110    1.516   .     S
C110   H133    1.110   .     S
C110   H131    1.111   .     S
C110   H132    1.109   .     S
C111   H135    1.116   .     S
C111   O156    1.412   .     S
C111   C112    1.521   .     S
C111   H136    1.114   .     S
C112   H139    1.111   .     S
C112   H138    1.110   .     S
C112   H137    1.111   .     S
C113   H140    1.107   .     S
C113   H141    1.102   .     S
C113   H142    1.111   .     S
C114   H143    1.100   .     S
C114   H146    1.111   .     S
C114   H144    1.105   .     S
C115   H124    1.077   .     S
C115   C117    1.386   .     A
C116   H123    1.085   .     S
C116   C842    1.390   1_554 S
C117   H134    1.084   .     S
C117   C844    1.390   .     S
C118   O164    1.382   .     S
C118   C612    1.387   1_545 S
C119   O156    1.383   .     S
C119   C330    1.388   .     S
C120   H125    1.084   .     S
C120   C167    1.396   .     S
C120   C364    1.387   .     S
Cu121  O159    1.971   .     S
Cu121  O160    1.946   .     S
Cu121  O163    1.926   .     S
Cu121  N153    2.027   .     S
Cu121  O155    1.969   .     S
Cu122  O162    1.926   .     S
Cu122  N154    2.027   .     S
Cu122  O158    1.971   .     S
Cu122  O161    1.946   .     S
Cu122  O157    1.969   .     S
Cu122  Cu203   2.697   .     S
H148   C181    1.081   .     S
O157   C176    1.301   .     S
O161   C174    1.306   .     S
C165   O240    1.295   .     A
C165   C168    1.457   .     S
C165   O73     1.302   1_655 S
C166   H208    1.079   .     S
C166   C693    1.388   1_545 S
C167   C176    1.452   .     S
C167   C201    1.410   .     A
C168   C200    1.410   .     A
C168   C2      1.399   1_655 S
C169   N236    1.354   .     A
C169   C171    1.418   .     A
C169   H209    1.081   .     S
C170   N235    1.354   .     A
C170   C172    1.419   .     A
C170   H210    1.082   .     S
C171   N235    1.390   .     A
C171   C195    1.504   .     S
C172   N236    1.390   .     A
C172   C196    1.504   .     S
C173   O244    1.298   .     A
C173   C175    1.469   .     S
C173   O78     1.305   1_655 S
C174   C177    1.472   .     S
C174   O245    1.298   .     A
C175   C182    1.400   .     A
C175   C180    1.398   .     A
C176   O241    1.294   .     A
C177   C183    1.402   .     A
C177   C181    1.398   .     A
C178   C180    1.393   .     A
C178   C186    1.405   .     A
C178   H232    1.084   .     S
C179   H233    1.084   .     S
C179   C188    1.404   .     A
C179   C181    1.392   .     A
C180   H67     1.082   1_655 S
C182   H229    1.076   .     S
C182   C184    1.406   .     A
C183   C185    1.407   .     A
C183   H227    1.074   .     S
C184   C189    1.428   .     A
C184   C186    1.418   .     A
C185   C190    1.430   .     A
C185   C188    1.419   .     A
C186   C936    1.390   .     S
C187   C190    1.418   .     A
C187   H234    1.076   .     S
C187   C198    1.388   .     A
C188   C937    1.390   1_554 S
C189   C197    1.417   .     A
C189   C928    1.426   .     S
C190   C927    1.426   1_554 S
C191   H212    1.116   .     S
C191   H211    1.111   .     S
C191   O246    1.415   .     S
C191   C192    1.516   .     S
C192   H215    1.110   .     S
C192   H213    1.111   .     S
C192   H214    1.109   .     S
C193   H217    1.116   .     S
C193   O238    1.412   .     S
C193   C194    1.521   .     S
C193   H218    1.114   .     S
C194   H221    1.111   .     S
C194   H220    1.110   .     S
C194   H219    1.111   .     S
C195   H222    1.107   .     S
C195   H223    1.102   .     S
C195   H224    1.111   .     S
C196   H225    1.100   .     S
C196   H228    1.111   .     S
C196   H226    1.105   .     S
C197   H206    1.077   .     S
C197   C199    1.386   .     A
C198   H205    1.085   .     S
C198   C924    1.390   1_554 S
C199   H216    1.084   .     S
C199   C926    1.390   .     S
C200   O246    1.382   .     S
C200   C694    1.387   1_545 S
C201   O238    1.383   .     S
C201   C412    1.388   .     S
C202   H207    1.084   .     S
C202   C3      1.396   1_655 S
C202   C446    1.387   .     S
Cu203  O241    1.971   .     S
Cu203  O242    1.946   .     S
Cu203  O245    1.926   .     S
Cu203  N235    2.027   .     S
Cu203  O237    1.969   .     S
Cu204  O244    1.926   .     S
Cu204  N236    2.027   .     S
Cu204  O240    1.971   .     S
Cu204  O243    1.946   .     S
Cu204  O239    1.969   .     S
Cu204  Cu39    2.697   1_655 S
H230   C17     1.081   1_655 S
O239   C12     1.301   1_655 S
O243   C10     1.306   1_655 S
C247   O322    1.295   .     A
C247   C250    1.457   .     S
C247   O401    1.302   .     S
C248   H290    1.079   .     S
C248   C414    1.399   1_455 S
C249   C258    1.452   .     S
C249   C283    1.410   .     A
C249   C448    1.396   1_455 S
C250   C282    1.410   .     A
C250   C330    1.399   .     S
C251   N318    1.354   .     A
C251   C253    1.418   .     A
C251   H291    1.081   .     S
C252   N317    1.354   .     A
C252   C254    1.419   .     A
C252   H292    1.082   .     S
C253   N317    1.390   .     A
C253   C277    1.504   .     S
C254   N318    1.390   .     A
C254   C278    1.504   .     S
C255   O326    1.298   .     A
C255   C257    1.469   .     S
C255   O406    1.305   .     S
C256   C259    1.472   .     S
C256   O327    1.298   .     A
C256   O489    1.306   1_455 S
C257   C264    1.400   .     A
C257   C262    1.398   .     A
C258   O323    1.294   .     A
C258   O485    1.301   1_455 S
C259   C265    1.402   .     A
C259   C263    1.398   .     A
C260   C262    1.393   .     A
C260   C268    1.405   .     A
C260   H314    1.084   .     S
C261   H315    1.084   .     S
C261   C270    1.404   .     A
C261   C263    1.392   .     A
C262   H395    1.082   .     S
C263   H476    1.081   1_455 S
C264   H311    1.076   .     S
C264   C266    1.406   .     A
C265   C267    1.407   .     A
C265   H309    1.074   .     S
C266   C271    1.428   .     A
C266   C268    1.418   .     A
C267   C272    1.430   .     A
C267   C270    1.419   .     A
C268   C1018   1.390   .     S
C269   C272    1.418   .     A
C269   H316    1.076   .     S
C269   C280    1.388   .     A
C270   C1019   1.390   1_554 S
C271   C279    1.417   .     A
C271   C1010   1.426   .     S
C272   C1009   1.426   1_554 S
C273   H294    1.116   .     S
C273   H293    1.111   .     S
C273   O328    1.415   .     S
C273   C274    1.516   .     S
C274   H297    1.110   .     S
C274   H295    1.111   .     S
C274   H296    1.109   .     S
C275   H299    1.116   .     S
C275   O320    1.412   .     S
C275   C276    1.521   .     S
C275   H300    1.114   .     S
C276   H303    1.111   .     S
C276   H302    1.110   .     S
C276   H301    1.111   .     S
C277   H304    1.107   .     S
C277   H305    1.102   .     S
C277   H306    1.111   .     S
C278   H307    1.100   .     S
C278   H310    1.111   .     S
C278   H308    1.105   .     S
C279   H288    1.077   .     S
C279   C281    1.386   .     A
C280   H287    1.085   .     S
C280   C1006   1.390   1_554 S
C281   H298    1.084   .     S
C281   C1008   1.390   .     S
C282   O328    1.382   .     S
C283   O320    1.383   .     S
C283   C494    1.388   .     S
C284   H289    1.084   .     S
C284   C331    1.396   .     S
C284   C528    1.387   .     S
Cu285  O323    1.971   .     S
Cu285  O324    1.946   .     S
Cu285  O327    1.926   .     S
Cu285  N317    2.027   .     S
Cu285  O319    1.969   .     S
Cu285  Cu450   2.697   1_455 S
Cu286  O326    1.926   .     S
Cu286  N318    2.027   .     S
Cu286  O322    1.971   .     S
Cu286  O325    1.946   .     S
Cu286  O321    1.969   .     S
Cu286  Cu367   2.697   .     S
H312   C345    1.081   .     S
H313   C426    1.082   1_455 S
O319   C411    1.302   1_455 S
O321   C340    1.301   .     S
O324   C419    1.305   1_455 S
O325   C338    1.306   .     S
C329   O404    1.295   .     A
C329   C332    1.457   .     S
C329   O483    1.302   .     S
C330   H372    1.079   .     S
C331   C340    1.452   .     S
C331   C365    1.410   .     A
C332   C364    1.410   .     A
C332   C412    1.399   .     S
C333   N400    1.354   .     A
C333   C335    1.418   .     A
C333   H373    1.081   .     S
C334   N399    1.354   .     A
C334   C336    1.419   .     A
C334   H374    1.082   .     S
C335   N399    1.390   .     A
C335   C359    1.504   .     S
C336   N400    1.390   .     A
C336   C360    1.504   .     S
C337   O408    1.298   .     A
C337   C339    1.469   .     S
C337   O488    1.305   .     S
C338   C341    1.472   .     S
C338   O409    1.298   .     A
C339   C346    1.400   .     A
C339   C344    1.398   .     A
C340   O405    1.294   .     A
C341   C347    1.402   .     A
C341   C345    1.398   .     A
C342   C344    1.393   .     A
C342   C350    1.405   .     A
C342   H396    1.084   .     S
C343   H397    1.084   .     S
C343   C352    1.404   .     A
C343   C345    1.392   .     A
C344   H477    1.082   .     S
C346   H393    1.076   .     S
C346   C348    1.406   .     A
C347   C349    1.407   .     A
C347   H391    1.074   .     S
C348   C353    1.428   .     A
C348   C350    1.418   .     A
C349   C354    1.430   .     A
C349   C352    1.419   .     A
C350   C1100   1.390   .     S
C351   C354    1.418   .     A
C351   H398    1.076   .     S
C351   C362    1.388   .     A
C352   C1101   1.390   1_554 S
C353   C361    1.417   .     A
C353   C1092   1.426   .     S
C354   C1091   1.426   1_554 S
C355   H376    1.116   .     S
C355   H375    1.111   .     S
C355   O410    1.415   .     S
C355   C356    1.516   .     S
C356   H379    1.110   .     S
C356   H377    1.111   .     S
C356   H378    1.109   .     S
C357   H381    1.116   .     S
C357   O402    1.412   .     S
C357   C358    1.521   .     S
C357   H382    1.114   .     S
C358   H385    1.111   .     S
C358   H384    1.110   .     S
C358   H383    1.111   .     S
C359   H386    1.107   .     S
C359   H387    1.102   .     S
C359   H388    1.111   .     S
C360   H389    1.100   .     S
C360   H392    1.111   .     S
C360   H390    1.105   .     S
C361   H370    1.077   .     S
C361   C363    1.386   .     A
C362   H369    1.085   .     S
C362   C1088   1.390   1_554 S
C363   H380    1.084   .     S
C363   C1090   1.390   .     S
C364   O410    1.382   .     S
C365   O402    1.383   .     S
C365   C576    1.388   .     S
C366   H371    1.084   .     S
C366   C413    1.396   .     S
C366   C610    1.387   .     S
Cu367  O405    1.971   .     S
Cu367  O406    1.946   .     S
Cu367  O409    1.926   .     S
Cu367  N399    2.027   .     S
Cu367  O401    1.969   .     S
Cu368  O408    1.926   .     S
Cu368  N400    2.027   .     S
Cu368  O404    1.971   .     S
Cu368  O407    1.946   .     S
Cu368  O403    1.969   .     S
Cu368  Cu449   2.697   .     S
H394   C427    1.081   .     S
O403   C422    1.301   .     S
O407   C420    1.306   .     S
C411   O486    1.295   .     A
C411   C414    1.457   .     S
C411   O319    1.302   1_655 S
C412   H454    1.079   .     S
C413   C422    1.452   .     S
C413   C447    1.410   .     A
C414   C446    1.410   .     A
C414   C248    1.399   1_655 S
C415   N482    1.354   .     A
C415   C417    1.418   .     A
C415   H455    1.081   .     S
C416   N481    1.354   .     A
C416   C418    1.419   .     A
C416   H456    1.082   .     S
C417   N481    1.390   .     A
C417   C441    1.504   .     S
C418   N482    1.390   .     A
C418   C442    1.504   .     S
C419   O490    1.298   .     A
C419   C421    1.469   .     S
C419   O324    1.305   1_655 S
C420   C423    1.472   .     S
C420   O491    1.298   .     A
C421   C428    1.400   .     A
C421   C426    1.398   .     A
C422   O487    1.294   .     A
C423   C429    1.402   .     A
C423   C427    1.398   .     A
C424   C426    1.393   .     A
C424   C432    1.405   .     A
C424   H478    1.084   .     S
C425   H479    1.084   .     S
C425   C434    1.404   .     A
C425   C427    1.392   .     A
C426   H313    1.082   1_655 S
C428   H475    1.076   .     S
C428   C430    1.406   .     A
C429   C431    1.407   .     A
C429   H473    1.074   .     S
C430   C435    1.428   .     A
C430   C432    1.418   .     A
C431   C436    1.430   .     A
C431   C434    1.419   .     A
C432   C1182   1.390   .     S
C433   C436    1.418   .     A
C433   H480    1.076   .     S
C433   C444    1.388   .     A
C434   C1183   1.390   1_554 S
C435   C443    1.417   .     A
C435   C1174   1.426   .     S
C436   C1173   1.426   1_554 S
C437   H458    1.116   .     S
C437   H457    1.111   .     S
C437   O492    1.415   .     S
C437   C438    1.516   .     S
C438   H461    1.110   .     S
C438   H459    1.111   .     S
C438   H460    1.109   .     S
C439   H463    1.116   .     S
C439   O484    1.412   .     S
C439   C440    1.521   .     S
C439   H464    1.114   .     S
C440   H467    1.111   .     S
C440   H466    1.110   .     S
C440   H465    1.111   .     S
C441   H468    1.107   .     S
C441   H469    1.102   .     S
C441   H470    1.111   .     S
C442   H471    1.100   .     S
C442   H474    1.111   .     S
C442   H472    1.105   .     S
C443   H452    1.077   .     S
C443   C445    1.386   .     A
C444   H451    1.085   .     S
C444   C1170   1.390   1_554 S
C445   H462    1.084   .     S
C445   C1172   1.390   .     S
C446   O492    1.382   .     S
C447   O484    1.383   .     S
C447   C658    1.388   .     S
C448   H453    1.084   .     S
C448   C249    1.396   1_655 S
C448   C692    1.387   .     S
Cu449  O487    1.971   .     S
Cu449  O488    1.946   .     S
Cu449  O491    1.926   .     S
Cu449  N481    2.027   .     S
Cu449  O483    1.969   .     S
Cu450  O490    1.926   .     S
Cu450  N482    2.027   .     S
Cu450  O486    1.971   .     S
Cu450  O489    1.946   .     S
Cu450  O485    1.969   .     S
Cu450  Cu285   2.697   1_655 S
H476   C263    1.081   1_655 S
O485   C258    1.301   1_655 S
O489   C256    1.306   1_655 S
C493   O568    1.295   .     A
C493   C496    1.457   .     S
C493   O647    1.302   .     S
C494   H536    1.079   .     S
C494   C660    1.399   1_455 S
C495   C504    1.452   .     S
C495   C529    1.410   .     A
C495   C694    1.396   1_455 S
C496   C528    1.410   .     A
C496   C576    1.399   .     S
C497   N564    1.354   .     A
C497   C499    1.418   .     A
C497   H537    1.081   .     S
C498   N563    1.354   .     A
C498   C500    1.419   .     A
C498   H538    1.082   .     S
C499   N563    1.390   .     A
C499   C523    1.504   .     S
C500   N564    1.390   .     A
C500   C524    1.504   .     S
C501   O572    1.298   .     A
C501   C503    1.469   .     S
C501   O652    1.305   .     S
C502   C505    1.472   .     S
C502   O573    1.298   .     A
C502   O735    1.306   1_455 S
C503   C510    1.400   .     A
C503   C508    1.398   .     A
C504   O569    1.294   .     A
C504   O731    1.301   1_455 S
C505   C511    1.402   .     A
C505   C509    1.398   .     A
C506   C508    1.393   .     A
C506   C514    1.405   .     A
C506   H560    1.084   .     S
C507   H561    1.084   .     S
C507   C516    1.404   .     A
C507   C509    1.392   .     A
C508   H641    1.082   .     S
C509   H722    1.081   1_455 S
C510   H557    1.076   .     S
C510   C512    1.406   .     A
C511   C513    1.407   .     A
C511   H555    1.074   .     S
C512   C517    1.428   .     A
C512   C514    1.418   .     A
C513   C518    1.430   .     A
C513   C516    1.419   .     A
C514   C1264   1.390   .     S
C515   C518    1.418   .     A
C515   H562    1.076   .     S
C515   C526    1.388   .     A
C516   C1265   1.390   1_554 S
C517   C525    1.417   .     A
C517   C1256   1.426   .     S
C518   C1255   1.426   1_554 S
C519   H540    1.116   .     S
C519   H539    1.111   .     S
C519   O574    1.415   .     S
C519   C520    1.516   .     S
C520   H543    1.110   .     S
C520   H541    1.111   .     S
C520   H542    1.109   .     S
C521   H545    1.116   .     S
C521   O566    1.412   .     S
C521   C522    1.521   .     S
C521   H546    1.114   .     S
C522   H549    1.111   .     S
C522   H548    1.110   .     S
C522   H547    1.111   .     S
C523   H550    1.107   .     S
C523   H551    1.102   .     S
C523   H552    1.111   .     S
C524   H553    1.100   .     S
C524   H556    1.111   .     S
C524   H554    1.105   .     S
C525   H534    1.077   .     S
C525   C527    1.386   .     A
C526   H533    1.085   .     S
C526   C1252   1.390   1_554 S
C527   H544    1.084   .     S
C527   C1254   1.390   .     S
C528   O574    1.382   .     S
C529   O566    1.383   .     S
C529   C2      1.388   1_565 S
C530   H535    1.084   .     S
C530   C577    1.396   .     S
C530   C36     1.387   1_565 S
Cu531  O569    1.971   .     S
Cu531  O570    1.946   .     S
Cu531  O573    1.926   .     S
Cu531  N563    2.027   .     S
Cu531  O565    1.969   .     S
Cu531  Cu696   2.697   1_455 S
Cu532  O572    1.926   .     S
Cu532  N564    2.027   .     S
Cu532  O568    1.971   .     S
Cu532  O571    1.946   .     S
Cu532  O567    1.969   .     S
Cu532  Cu613   2.697   .     S
H558   C591    1.081   .     S
H559   C672    1.082   1_455 S
O565   C657    1.302   1_455 S
O567   C586    1.301   .     S
O570   C665    1.305   1_455 S
O571   C584    1.306   .     S
C575   O650    1.295   .     A
C575   C578    1.457   .     S
C575   O729    1.302   .     S
C576   H618    1.079   .     S
C577   C586    1.452   .     S
C577   C611    1.410   .     A
C578   C610    1.410   .     A
C578   C658    1.399   .     S
C579   N646    1.354   .     A
C579   C581    1.418   .     A
C579   H619    1.081   .     S
C580   N645    1.354   .     A
C580   C582    1.419   .     A
C580   H620    1.082   .     S
C581   N645    1.390   .     A
C581   C605    1.504   .     S
C582   N646    1.390   .     A
C582   C606    1.504   .     S
C583   O654    1.298   .     A
C583   C585    1.469   .     S
C583   O734    1.305   .     S
C584   C587    1.472   .     S
C584   O655    1.298   .     A
C585   C592    1.400   .     A
C585   C590    1.398   .     A
C586   O651    1.294   .     A
C587   C593    1.402   .     A
C587   C591    1.398   .     A
C588   C590    1.393   .     A
C588   C596    1.405   .     A
C588   H642    1.084   .     S
C589   H643    1.084   .     S
C589   C598    1.404   .     A
C589   C591    1.392   .     A
C590   H723    1.082   .     S
C592   H639    1.076   .     S
C592   C594    1.406   .     A
C593   C595    1.407   .     A
C593   H637    1.074   .     S
C594   C599    1.428   .     A
C594   C596    1.418   .     A
C595   C600    1.430   .     A
C595   C598    1.419   .     A
C596   C1346   1.390   .     S
C597   C600    1.418   .     A
C597   H644    1.076   .     S
C597   C608    1.388   .     A
C598   C1347   1.390   1_554 S
C599   C607    1.417   .     A
C599   C1338   1.426   .     S
C600   C1337   1.426   1_554 S
C601   H622    1.116   .     S
C601   H621    1.111   .     S
C601   O656    1.415   .     S
C601   C602    1.516   .     S
C602   H625    1.110   .     S
C602   H623    1.111   .     S
C602   H624    1.109   .     S
C603   H627    1.116   .     S
C603   O648    1.412   .     S
C603   C604    1.521   .     S
C603   H628    1.114   .     S
C604   H631    1.111   .     S
C604   H630    1.110   .     S
C604   H629    1.111   .     S
C605   H632    1.107   .     S
C605   H633    1.102   .     S
C605   H634    1.111   .     S
C606   H635    1.100   .     S
C606   H638    1.111   .     S
C606   H636    1.105   .     S
C607   H616    1.077   .     S
C607   C609    1.386   .     A
C608   H615    1.085   .     S
C608   C1334   1.390   1_554 S
C609   H626    1.084   .     S
C609   C1336   1.390   .     S
C610   O656    1.382   .     S
C611   O648    1.383   .     S
C611   C84     1.388   1_565 S
C612   H617    1.084   .     S
C612   C659    1.396   .     S
C612   C118    1.387   1_565 S
Cu613  O651    1.971   .     S
Cu613  O652    1.946   .     S
Cu613  O655    1.926   .     S
Cu613  N645    2.027   .     S
Cu613  O647    1.969   .     S
Cu614  O654    1.926   .     S
Cu614  N646    2.027   .     S
Cu614  O650    1.971   .     S
Cu614  O653    1.946   .     S
Cu614  O649    1.969   .     S
Cu614  Cu695   2.697   .     S
H640   C673    1.081   .     S
O649   C668    1.301   .     S
O653   C666    1.306   .     S
C657   O732    1.295   .     A
C657   C660    1.457   .     S
C657   O565    1.302   1_655 S
C658   H700    1.079   .     S
C659   C668    1.452   .     S
C659   C693    1.410   .     A
C660   C692    1.410   .     A
C660   C494    1.399   1_655 S
C661   N728    1.354   .     A
C661   C663    1.418   .     A
C661   H701    1.081   .     S
C662   N727    1.354   .     A
C662   C664    1.419   .     A
C662   H702    1.082   .     S
C663   N727    1.390   .     A
C663   C687    1.504   .     S
C664   N728    1.390   .     A
C664   C688    1.504   .     S
C665   O736    1.298   .     A
C665   C667    1.469   .     S
C665   O570    1.305   1_655 S
C666   C669    1.472   .     S
C666   O737    1.298   .     A
C667   C674    1.400   .     A
C667   C672    1.398   .     A
C668   O733    1.294   .     A
C669   C675    1.402   .     A
C669   C673    1.398   .     A
C670   C672    1.393   .     A
C670   C678    1.405   .     A
C670   H724    1.084   .     S
C671   H725    1.084   .     S
C671   C680    1.404   .     A
C671   C673    1.392   .     A
C672   H559    1.082   1_655 S
C674   H721    1.076   .     S
C674   C676    1.406   .     A
C675   C677    1.407   .     A
C675   H719    1.074   .     S
C676   C681    1.428   .     A
C676   C678    1.418   .     A
C677   C682    1.430   .     A
C677   C680    1.419   .     A
C678   C1428   1.390   .     S
C679   C682    1.418   .     A
C679   H726    1.076   .     S
C679   C690    1.388   .     A
C680   C1429   1.390   1_554 S
C681   C689    1.417   .     A
C681   C1420   1.426   .     S
C682   C1419   1.426   1_554 S
C683   H704    1.116   .     S
C683   H703    1.111   .     S
C683   O738    1.415   .     S
C683   C684    1.516   .     S
C684   H707    1.110   .     S
C684   H705    1.111   .     S
C684   H706    1.109   .     S
C685   H709    1.116   .     S
C685   O730    1.412   .     S
C685   C686    1.521   .     S
C685   H710    1.114   .     S
C686   H713    1.111   .     S
C686   H712    1.110   .     S
C686   H711    1.111   .     S
C687   H714    1.107   .     S
C687   H715    1.102   .     S
C687   H716    1.111   .     S
C688   H717    1.100   .     S
C688   H720    1.111   .     S
C688   H718    1.105   .     S
C689   H698    1.077   .     S
C689   C691    1.386   .     A
C690   H697    1.085   .     S
C690   C1416   1.390   1_554 S
C691   H708    1.084   .     S
C691   C1418   1.390   .     S
C692   O738    1.382   .     S
C693   O730    1.383   .     S
C693   C166    1.388   1_565 S
C694   H699    1.084   .     S
C694   C495    1.396   1_655 S
C694   C200    1.387   1_565 S
Cu695  O733    1.971   .     S
Cu695  O734    1.946   .     S
Cu695  O737    1.926   .     S
Cu695  N727    2.027   .     S
Cu695  O729    1.969   .     S
Cu696  O736    1.926   .     S
Cu696  N728    2.027   .     S
Cu696  O732    1.971   .     S
Cu696  O735    1.946   .     S
Cu696  O731    1.969   .     S
Cu696  Cu531   2.697   1_655 S
H722   C509    1.081   1_655 S
O731   C504    1.301   1_655 S
O735   C502    1.306   1_655 S
C739   O814    1.295   .     A
C739   C742    1.457   .     S
C739   O893    1.302   .     S
C740   H782    1.079   .     S
C740   C906    1.399   1_455 S
C740   C1267   1.388   1_545 S
C741   C750    1.452   .     S
C741   C775    1.410   .     A
C741   C940    1.396   1_455 S
C742   C774    1.410   .     A
C742   C822    1.399   .     S
C743   N810    1.354   .     A
C743   C745    1.418   .     A
C743   H783    1.081   .     S
C744   N809    1.354   .     A
C744   C746    1.419   .     A
C744   H784    1.082   .     S
C745   N809    1.390   .     A
C745   C769    1.504   .     S
C746   N810    1.390   .     A
C746   C770    1.504   .     S
C747   O818    1.298   .     A
C747   C749    1.469   .     S
C747   O898    1.305   .     S
C748   C751    1.472   .     S
C748   O819    1.298   .     A
C748   O981    1.306   1_455 S
C749   C756    1.400   .     A
C749   C754    1.398   .     A
C750   O815    1.294   .     A
C750   O977    1.301   1_455 S
C751   C757    1.402   .     A
C751   C755    1.398   .     A
C752   C754    1.393   .     A
C752   C760    1.405   .     A
C752   H806    1.084   .     S
C753   H807    1.084   .     S
C753   C762    1.404   .     A
C753   C755    1.392   .     A
C754   H887    1.082   .     S
C755   H968    1.081   1_455 S
C756   H803    1.076   .     S
C756   C758    1.406   .     A
C757   C759    1.407   .     A
C757   H801    1.074   .     S
C758   C763    1.428   .     A
C758   C760    1.418   .     A
C759   C764    1.430   .     A
C759   C762    1.419   .     A
C760   C34     1.390   1_556 S
C761   C764    1.418   .     A
C761   H808    1.076   .     S
C761   C772    1.388   .     A
C763   C771    1.417   .     A
C763   C26     1.426   1_556 S
C765   H786    1.116   .     S
C765   H785    1.111   .     S
C765   O820    1.415   .     S
C765   C766    1.516   .     S
C766   H789    1.110   .     S
C766   H787    1.111   .     S
C766   H788    1.109   .     S
C767   H791    1.116   .     S
C767   O812    1.412   .     S
C767   C768    1.521   .     S
C767   H792    1.114   .     S
C768   H795    1.111   .     S
C768   H794    1.110   .     S
C768   H793    1.111   .     S
C769   H796    1.107   .     S
C769   H797    1.102   .     S
C769   H798    1.111   .     S
C770   H799    1.100   .     S
C770   H802    1.111   .     S
C770   H800    1.105   .     S
C771   H780    1.077   .     S
C771   C773    1.386   .     A
C772   H779    1.085   .     S
C773   H790    1.084   .     S
C773   C24     1.390   1_556 S
C774   O820    1.382   .     S
C774   C1268   1.387   1_545 S
C775   O812    1.383   .     S
C775   C986    1.388   .     S
C776   H781    1.084   .     S
C776   C823    1.396   .     S
C776   C1020   1.387   .     S
Cu777  O815    1.971   .     S
Cu777  O816    1.946   .     S
Cu777  O819    1.926   .     S
Cu777  N809    2.027   .     S
Cu777  O811    1.969   .     S
Cu777  Cu942   2.697   1_455 S
Cu778  O818    1.926   .     S
Cu778  N810    2.027   .     S
Cu778  O814    1.971   .     S
Cu778  O817    1.946   .     S
Cu778  O813    1.969   .     S
Cu778  Cu859   2.697   .     S
H804   C837    1.081   .     S
H805   C918    1.082   1_455 S
O811   C903    1.302   1_455 S
O813   C832    1.301   .     S
O816   C911    1.305   1_455 S
O817   C830    1.306   .     S
C821   O896    1.295   .     A
C821   C824    1.457   .     S
C821   O975    1.302   .     S
C822   H864    1.079   .     S
C822   C1349   1.388   1_545 S
C823   C832    1.452   .     S
C823   C857    1.410   .     A
C824   C856    1.410   .     A
C824   C904    1.399   .     S
C825   N892    1.354   .     A
C825   C827    1.418   .     A
C825   H865    1.081   .     S
C826   N891    1.354   .     A
C826   C828    1.419   .     A
C826   H866    1.082   .     S
C827   N891    1.390   .     A
C827   C851    1.504   .     S
C828   N892    1.390   .     A
C828   C852    1.504   .     S
C829   O900    1.298   .     A
C829   C831    1.469   .     S
C829   O980    1.305   .     S
C830   C833    1.472   .     S
C830   O901    1.298   .     A
C831   C838    1.400   .     A
C831   C836    1.398   .     A
C832   O897    1.294   .     A
C833   C839    1.402   .     A
C833   C837    1.398   .     A
C834   C836    1.393   .     A
C834   C842    1.405   .     A
C834   H888    1.084   .     S
C835   H889    1.084   .     S
C835   C844    1.404   .     A
C835   C837    1.392   .     A
C836   H969    1.082   .     S
C838   H885    1.076   .     S
C838   C840    1.406   .     A
C839   C841    1.407   .     A
C839   H883    1.074   .     S
C840   C845    1.428   .     A
C840   C842    1.418   .     A
C841   C846    1.430   .     A
C841   C844    1.419   .     A
C842   C116    1.390   1_556 S
C843   C846    1.418   .     A
C843   H890    1.076   .     S
C843   C854    1.388   .     A
C845   C853    1.417   .     A
C845   C108    1.426   1_556 S
C847   H868    1.116   .     S
C847   H867    1.111   .     S
C847   O902    1.415   .     S
C847   C848    1.516   .     S
C848   H871    1.110   .     S
C848   H869    1.111   .     S
C848   H870    1.109   .     S
C849   H873    1.116   .     S
C849   O894    1.412   .     S
C849   C850    1.521   .     S
C849   H874    1.114   .     S
C850   H877    1.111   .     S
C850   H876    1.110   .     S
C850   H875    1.111   .     S
C851   H878    1.107   .     S
C851   H879    1.102   .     S
C851   H880    1.111   .     S
C852   H881    1.100   .     S
C852   H884    1.111   .     S
C852   H882    1.105   .     S
C853   H862    1.077   .     S
C853   C855    1.386   .     A
C854   H861    1.085   .     S
C855   H872    1.084   .     S
C855   C106    1.390   1_556 S
C856   O902    1.382   .     S
C856   C1350   1.387   1_545 S
C857   O894    1.383   .     S
C857   C1068   1.388   .     S
C858   H863    1.084   .     S
C858   C905    1.396   .     S
C858   C1102   1.387   .     S
Cu859  O897    1.971   .     S
Cu859  O898    1.946   .     S
Cu859  O901    1.926   .     S
Cu859  N891    2.027   .     S
Cu859  O893    1.969   .     S
Cu860  O900    1.926   .     S
Cu860  N892    2.027   .     S
Cu860  O896    1.971   .     S
Cu860  O899    1.946   .     S
Cu860  O895    1.969   .     S
Cu860  Cu941   2.697   .     S
H886   C919    1.081   .     S
O895   C914    1.301   .     S
O899   C912    1.306   .     S
C903   O978    1.295   .     A
C903   C906    1.457   .     S
C903   O811    1.302   1_655 S
C904   H946    1.079   .     S
C904   C1431   1.388   1_545 S
C905   C914    1.452   .     S
C905   C939    1.410   .     A
C906   C938    1.410   .     A
C906   C740    1.399   1_655 S
C907   N974    1.354   .     A
C907   C909    1.418   .     A
C907   H947    1.081   .     S
C908   N973    1.354   .     A
C908   C910    1.419   .     A
C908   H948    1.082   .     S
C909   N973    1.390   .     A
C909   C933    1.504   .     S
C910   N974    1.390   .     A
C910   C934    1.504   .     S
C911   O982    1.298   .     A
C911   C913    1.469   .     S
C911   O816    1.305   1_655 S
C912   C915    1.472   .     S
C912   O983    1.298   .     A
C913   C920    1.400   .     A
C913   C918    1.398   .     A
C914   O979    1.294   .     A
C915   C921    1.402   .     A
C915   C919    1.398   .     A
C916   C918    1.393   .     A
C916   C924    1.405   .     A
C916   H970    1.084   .     S
C917   H971    1.084   .     S
C917   C926    1.404   .     A
C917   C919    1.392   .     A
C918   H805    1.082   1_655 S
C920   H967    1.076   .     S
C920   C922    1.406   .     A
C921   C923    1.407   .     A
C921   H965    1.074   .     S
C922   C927    1.428   .     A
C922   C924    1.418   .     A
C923   C928    1.430   .     A
C923   C926    1.419   .     A
C924   C198    1.390   1_556 S
C925   C928    1.418   .     A
C925   H972    1.076   .     S
C925   C936    1.388   .     A
C927   C935    1.417   .     A
C927   C190    1.426   1_556 S
C929   H950    1.116   .     S
C929   H949    1.111   .     S
C929   O984    1.415   .     S
C929   C930    1.516   .     S
C930   H953    1.110   .     S
C930   H951    1.111   .     S
C930   H952    1.109   .     S
C931   H955    1.116   .     S
C931   O976    1.412   .     S
C931   C932    1.521   .     S
C931   H956    1.114   .     S
C932   H959    1.111   .     S
C932   H958    1.110   .     S
C932   H957    1.111   .     S
C933   H960    1.107   .     S
C933   H961    1.102   .     S
C933   H962    1.111   .     S
C934   H963    1.100   .     S
C934   H966    1.111   .     S
C934   H964    1.105   .     S
C935   H944    1.077   .     S
C935   C937    1.386   .     A
C936   H943    1.085   .     S
C937   H954    1.084   .     S
C937   C188    1.390   1_556 S
C938   O984    1.382   .     S
C938   C1432   1.387   1_545 S
C939   O976    1.383   .     S
C939   C1150   1.388   .     S
C940   H945    1.084   .     S
C940   C741    1.396   1_655 S
C940   C1184   1.387   .     S
Cu941  O979    1.971   .     S
Cu941  O980    1.946   .     S
Cu941  O983    1.926   .     S
Cu941  N973    2.027   .     S
Cu941  O975    1.969   .     S
Cu942  O982    1.926   .     S
Cu942  N974    2.027   .     S
Cu942  O978    1.971   .     S
Cu942  O981    1.946   .     S
Cu942  O977    1.969   .     S
Cu942  Cu777   2.697   1_655 S
H968   C755    1.081   1_655 S
O977   C750    1.301   1_655 S
O981   C748    1.306   1_655 S
C985   O1060   1.295   .     A
C985   C988    1.457   .     S
C985   O1139   1.302   .     S
C986   H1028   1.079   .     S
C986   C1152   1.399   1_455 S
C987   C996    1.452   .     S
C987   C1021   1.410   .     A
C987   C1186   1.396   1_455 S
C988   C1020   1.410   .     A
C988   C1068   1.399   .     S
C989   N1056   1.354   .     A
C989   C991    1.418   .     A
C989   H1029   1.081   .     S
C990   N1055   1.354   .     A
C990   C992    1.419   .     A
C990   H1030   1.082   .     S
C991   N1055   1.390   .     A
C991   C1015   1.504   .     S
C992   N1056   1.390   .     A
C992   C1016   1.504   .     S
C993   O1064   1.298   .     A
C993   C995    1.469   .     S
C993   O1144   1.305   .     S
C994   C997    1.472   .     S
C994   O1065   1.298   .     A
C994   O1227   1.306   1_455 S
C995   C1002   1.400   .     A
C995   C1000   1.398   .     A
C996   O1061   1.294   .     A
C996   O1223   1.301   1_455 S
C997   C1003   1.402   .     A
C997   C1001   1.398   .     A
C998   C1000   1.393   .     A
C998   C1006   1.405   .     A
C998   H1052   1.084   .     S
C999   H1053   1.084   .     S
C999   C1008   1.404   .     A
C999   C1001   1.392   .     A
C1000  H1133   1.082   .     S
C1001  H1214   1.081   1_455 S
C1002  H1049   1.076   .     S
C1002  C1004   1.406   .     A
C1003  C1005   1.407   .     A
C1003  H1047   1.074   .     S
C1004  C1009   1.428   .     A
C1004  C1006   1.418   .     A
C1005  C1010   1.430   .     A
C1005  C1008   1.419   .     A
C1006  C280    1.390   1_556 S
C1007  C1010   1.418   .     A
C1007  H1054   1.076   .     S
C1007  C1018   1.388   .     A
C1009  C1017   1.417   .     A
C1009  C272    1.426   1_556 S
C1011  H1032   1.116   .     S
C1011  H1031   1.111   .     S
C1011  O1066   1.415   .     S
C1011  C1012   1.516   .     S
C1012  H1035   1.110   .     S
C1012  H1033   1.111   .     S
C1012  H1034   1.109   .     S
C1013  H1037   1.116   .     S
C1013  O1058   1.412   .     S
C1013  C1014   1.521   .     S
C1013  H1038   1.114   .     S
C1014  H1041   1.111   .     S
C1014  H1040   1.110   .     S
C1014  H1039   1.111   .     S
C1015  H1042   1.107   .     S
C1015  H1043   1.102   .     S
C1015  H1044   1.111   .     S
C1016  H1045   1.100   .     S
C1016  H1048   1.111   .     S
C1016  H1046   1.105   .     S
C1017  H1026   1.077   .     S
C1017  C1019   1.386   .     A
C1018  H1025   1.085   .     S
C1019  H1036   1.084   .     S
C1019  C270    1.390   1_556 S
C1020  O1066   1.382   .     S
C1021  O1058   1.383   .     S
C1021  C1232   1.388   .     S
C1022  H1027   1.084   .     S
C1022  C1069   1.396   .     S
C1022  C1266   1.387   .     S
Cu1023 O1061   1.971   .     S
Cu1023 O1062   1.946   .     S
Cu1023 O1065   1.926   .     S
Cu1023 N1055   2.027   .     S
Cu1023 O1057   1.969   .     S
Cu1023 Cu1188  2.697   1_455 S
Cu1024 O1064   1.926   .     S
Cu1024 N1056   2.027   .     S
Cu1024 O1060   1.971   .     S
Cu1024 O1063   1.946   .     S
Cu1024 O1059   1.969   .     S
Cu1024 Cu1105  2.697   .     S
H1050  C1083   1.081   .     S
H1051  C1164   1.082   1_455 S
O1057  C1149   1.302   1_455 S
O1059  C1078   1.301   .     S
O1062  C1157   1.305   1_455 S
O1063  C1076   1.306   .     S
C1067  O1142   1.295   .     A
C1067  C1070   1.457   .     S
C1067  O1221   1.302   .     S
C1068  H1110   1.079   .     S
C1069  C1078   1.452   .     S
C1069  C1103   1.410   .     A
C1070  C1102   1.410   .     A
C1070  C1150   1.399   .     S
C1071  N1138   1.354   .     A
C1071  C1073   1.418   .     A
C1071  H1111   1.081   .     S
C1072  N1137   1.354   .     A
C1072  C1074   1.419   .     A
C1072  H1112   1.082   .     S
C1073  N1137   1.390   .     A
C1073  C1097   1.504   .     S
C1074  N1138   1.390   .     A
C1074  C1098   1.504   .     S
C1075  O1146   1.298   .     A
C1075  C1077   1.469   .     S
C1075  O1226   1.305   .     S
C1076  C1079   1.472   .     S
C1076  O1147   1.298   .     A
C1077  C1084   1.400   .     A
C1077  C1082   1.398   .     A
C1078  O1143   1.294   .     A
C1079  C1085   1.402   .     A
C1079  C1083   1.398   .     A
C1080  C1082   1.393   .     A
C1080  C1088   1.405   .     A
C1080  H1134   1.084   .     S
C1081  H1135   1.084   .     S
C1081  C1090   1.404   .     A
C1081  C1083   1.392   .     A
C1082  H1215   1.082   .     S
C1084  H1131   1.076   .     S
C1084  C1086   1.406   .     A
C1085  C1087   1.407   .     A
C1085  H1129   1.074   .     S
C1086  C1091   1.428   .     A
C1086  C1088   1.418   .     A
C1087  C1092   1.430   .     A
C1087  C1090   1.419   .     A
C1088  C362    1.390   1_556 S
C1089  C1092   1.418   .     A
C1089  H1136   1.076   .     S
C1089  C1100   1.388   .     A
C1091  C1099   1.417   .     A
C1091  C354    1.426   1_556 S
C1093  H1114   1.116   .     S
C1093  H1113   1.111   .     S
C1093  O1148   1.415   .     S
C1093  C1094   1.516   .     S
C1094  H1117   1.110   .     S
C1094  H1115   1.111   .     S
C1094  H1116   1.109   .     S
C1095  H1119   1.116   .     S
C1095  O1140   1.412   .     S
C1095  C1096   1.521   .     S
C1095  H1120   1.114   .     S
C1096  H1123   1.111   .     S
C1096  H1122   1.110   .     S
C1096  H1121   1.111   .     S
C1097  H1124   1.107   .     S
C1097  H1125   1.102   .     S
C1097  H1126   1.111   .     S
C1098  H1127   1.100   .     S
C1098  H1130   1.111   .     S
C1098  H1128   1.105   .     S
C1099  H1108   1.077   .     S
C1099  C1101   1.386   .     A
C1100  H1107   1.085   .     S
C1101  H1118   1.084   .     S
C1101  C352    1.390   1_556 S
C1102  O1148   1.382   .     S
C1103  O1140   1.383   .     S
C1103  C1314   1.388   .     S
C1104  H1109   1.084   .     S
C1104  C1151   1.396   .     S
C1104  C1348   1.387   .     S
Cu1105 O1143   1.971   .     S
Cu1105 O1144   1.946   .     S
Cu1105 O1147   1.926   .     S
Cu1105 N1137   2.027   .     S
Cu1105 O1139   1.969   .     S
Cu1106 O1146   1.926   .     S
Cu1106 N1138   2.027   .     S
Cu1106 O1142   1.971   .     S
Cu1106 O1145   1.946   .     S
Cu1106 O1141   1.969   .     S
Cu1106 Cu1187  2.697   .     S
H1132  C1165   1.081   .     S
O1141  C1160   1.301   .     S
O1145  C1158   1.306   .     S
C1149  O1224   1.295   .     A
C1149  C1152   1.457   .     S
C1149  O1057   1.302   1_655 S
C1150  H1192   1.079   .     S
C1151  C1160   1.452   .     S
C1151  C1185   1.410   .     A
C1152  C1184   1.410   .     A
C1152  C986    1.399   1_655 S
C1153  N1220   1.354   .     A
C1153  C1155   1.418   .     A
C1153  H1193   1.081   .     S
C1154  N1219   1.354   .     A
C1154  C1156   1.419   .     A
C1154  H1194   1.082   .     S
C1155  N1219   1.390   .     A
C1155  C1179   1.504   .     S
C1156  N1220   1.390   .     A
C1156  C1180   1.504   .     S
C1157  O1228   1.298   .     A
C1157  C1159   1.469   .     S
C1157  O1062   1.305   1_655 S
C1158  C1161   1.472   .     S
C1158  O1229   1.298   .     A
C1159  C1166   1.400   .     A
C1159  C1164   1.398   .     A
C1160  O1225   1.294   .     A
C1161  C1167   1.402   .     A
C1161  C1165   1.398   .     A
C1162  C1164   1.393   .     A
C1162  C1170   1.405   .     A
C1162  H1216   1.084   .     S
C1163  H1217   1.084   .     S
C1163  C1172   1.404   .     A
C1163  C1165   1.392   .     A
C1164  H1051   1.082   1_655 S
C1166  H1213   1.076   .     S
C1166  C1168   1.406   .     A
C1167  C1169   1.407   .     A
C1167  H1211   1.074   .     S
C1168  C1173   1.428   .     A
C1168  C1170   1.418   .     A
C1169  C1174   1.430   .     A
C1169  C1172   1.419   .     A
C1170  C444    1.390   1_556 S
C1171  C1174   1.418   .     A
C1171  H1218   1.076   .     S
C1171  C1182   1.388   .     A
C1173  C1181   1.417   .     A
C1173  C436    1.426   1_556 S
C1175  H1196   1.116   .     S
C1175  H1195   1.111   .     S
C1175  O1230   1.415   .     S
C1175  C1176   1.516   .     S
C1176  H1199   1.110   .     S
C1176  H1197   1.111   .     S
C1176  H1198   1.109   .     S
C1177  H1201   1.116   .     S
C1177  O1222   1.412   .     S
C1177  C1178   1.521   .     S
C1177  H1202   1.114   .     S
C1178  H1205   1.111   .     S
C1178  H1204   1.110   .     S
C1178  H1203   1.111   .     S
C1179  H1206   1.107   .     S
C1179  H1207   1.102   .     S
C1179  H1208   1.111   .     S
C1180  H1209   1.100   .     S
C1180  H1212   1.111   .     S
C1180  H1210   1.105   .     S
C1181  H1190   1.077   .     S
C1181  C1183   1.386   .     A
C1182  H1189   1.085   .     S
C1183  H1200   1.084   .     S
C1183  C434    1.390   1_556 S
C1184  O1230   1.382   .     S
C1185  O1222   1.383   .     S
C1185  C1396   1.388   .     S
C1186  H1191   1.084   .     S
C1186  C987    1.396   1_655 S
C1186  C1430   1.387   .     S
Cu1187 O1225   1.971   .     S
Cu1187 O1226   1.946   .     S
Cu1187 O1229   1.926   .     S
Cu1187 N1219   2.027   .     S
Cu1187 O1221   1.969   .     S
Cu1188 O1228   1.926   .     S
Cu1188 N1220   2.027   .     S
Cu1188 O1224   1.971   .     S
Cu1188 O1227   1.946   .     S
Cu1188 O1223   1.969   .     S
Cu1188 Cu1023  2.697   1_655 S
H1214  C1001   1.081   1_655 S
O1223  C996    1.301   1_655 S
O1227  C994    1.306   1_655 S
C1231  O1306   1.295   .     A
C1231  C1234   1.457   .     S
C1231  O1385   1.302   .     S
C1232  H1274   1.079   .     S
C1232  C1398   1.399   1_455 S
C1233  C1242   1.452   .     S
C1233  C1267   1.410   .     A
C1233  C1432   1.396   1_455 S
C1234  C1266   1.410   .     A
C1234  C1314   1.399   .     S
C1235  N1302   1.354   .     A
C1235  C1237   1.418   .     A
C1235  H1275   1.081   .     S
C1236  N1301   1.354   .     A
C1236  C1238   1.419   .     A
C1236  H1276   1.082   .     S
C1237  N1301   1.390   .     A
C1237  C1261   1.504   .     S
C1238  N1302   1.390   .     A
C1238  C1262   1.504   .     S
C1239  O1310   1.298   .     A
C1239  C1241   1.469   .     S
C1239  O1390   1.305   .     S
C1240  C1243   1.472   .     S
C1240  O1311   1.298   .     A
C1240  O1473   1.306   1_455 S
C1241  C1248   1.400   .     A
C1241  C1246   1.398   .     A
C1242  O1307   1.294   .     A
C1242  O1469   1.301   1_455 S
C1243  C1249   1.402   .     A
C1243  C1247   1.398   .     A
C1244  C1246   1.393   .     A
C1244  C1252   1.405   .     A
C1244  H1298   1.084   .     S
C1245  H1299   1.084   .     S
C1245  C1254   1.404   .     A
C1245  C1247   1.392   .     A
C1246  H1379   1.082   .     S
C1247  H1460   1.081   1_455 S
C1248  H1295   1.076   .     S
C1248  C1250   1.406   .     A
C1249  C1251   1.407   .     A
C1249  H1293   1.074   .     S
C1250  C1255   1.428   .     A
C1250  C1252   1.418   .     A
C1251  C1256   1.430   .     A
C1251  C1254   1.419   .     A
C1252  C526    1.390   1_556 S
C1253  C1256   1.418   .     A
C1253  H1300   1.076   .     S
C1253  C1264   1.388   .     A
C1255  C1263   1.417   .     A
C1255  C518    1.426   1_556 S
C1257  H1278   1.116   .     S
C1257  H1277   1.111   .     S
C1257  O1312   1.415   .     S
C1257  C1258   1.516   .     S
C1258  H1281   1.110   .     S
C1258  H1279   1.111   .     S
C1258  H1280   1.109   .     S
C1259  H1283   1.116   .     S
C1259  O1304   1.412   .     S
C1259  C1260   1.521   .     S
C1259  H1284   1.114   .     S
C1260  H1287   1.111   .     S
C1260  H1286   1.110   .     S
C1260  H1285   1.111   .     S
C1261  H1288   1.107   .     S
C1261  H1289   1.102   .     S
C1261  H1290   1.111   .     S
C1262  H1291   1.100   .     S
C1262  H1294   1.111   .     S
C1262  H1292   1.105   .     S
C1263  H1272   1.077   .     S
C1263  C1265   1.386   .     A
C1264  H1271   1.085   .     S
C1265  H1282   1.084   .     S
C1265  C516    1.390   1_556 S
C1266  O1312   1.382   .     S
C1267  O1304   1.383   .     S
C1267  C740    1.388   1_565 S
C1268  H1273   1.084   .     S
C1268  C1315   1.396   .     S
C1268  C774    1.387   1_565 S
Cu1269 O1307   1.971   .     S
Cu1269 O1308   1.946   .     S
Cu1269 O1311   1.926   .     S
Cu1269 N1301   2.027   .     S
Cu1269 O1303   1.969   .     S
Cu1269 Cu1434  2.697   1_455 S
Cu1270 O1310   1.926   .     S
Cu1270 N1302   2.027   .     S
Cu1270 O1306   1.971   .     S
Cu1270 O1309   1.946   .     S
Cu1270 O1305   1.969   .     S
Cu1270 Cu1351  2.697   .     S
H1296  C1329   1.081   .     S
H1297  C1410   1.082   1_455 S
O1303  C1395   1.302   1_455 S
O1305  C1324   1.301   .     S
O1308  C1403   1.305   1_455 S
O1309  C1322   1.306   .     S
C1313  O1388   1.295   .     A
C1313  C1316   1.457   .     S
C1313  O1467   1.302   .     S
C1314  H1356   1.079   .     S
C1315  C1324   1.452   .     S
C1315  C1349   1.410   .     A
C1316  C1348   1.410   .     A
C1316  C1396   1.399   .     S
C1317  N1384   1.354   .     A
C1317  C1319   1.418   .     A
C1317  H1357   1.081   .     S
C1318  N1383   1.354   .     A
C1318  C1320   1.419   .     A
C1318  H1358   1.082   .     S
C1319  N1383   1.390   .     A
C1319  C1343   1.504   .     S
C1320  N1384   1.390   .     A
C1320  C1344   1.504   .     S
C1321  O1392   1.298   .     A
C1321  C1323   1.469   .     S
C1321  O1472   1.305   .     S
C1322  C1325   1.472   .     S
C1322  O1393   1.298   .     A
C1323  C1330   1.400   .     A
C1323  C1328   1.398   .     A
C1324  O1389   1.294   .     A
C1325  C1331   1.402   .     A
C1325  C1329   1.398   .     A
C1326  C1328   1.393   .     A
C1326  C1334   1.405   .     A
C1326  H1380   1.084   .     S
C1327  H1381   1.084   .     S
C1327  C1336   1.404   .     A
C1327  C1329   1.392   .     A
C1328  H1461   1.082   .     S
C1330  H1377   1.076   .     S
C1330  C1332   1.406   .     A
C1331  C1333   1.407   .     A
C1331  H1375   1.074   .     S
C1332  C1337   1.428   .     A
C1332  C1334   1.418   .     A
C1333  C1338   1.430   .     A
C1333  C1336   1.419   .     A
C1334  C608    1.390   1_556 S
C1335  C1338   1.418   .     A
C1335  H1382   1.076   .     S
C1335  C1346   1.388   .     A
C1337  C1345   1.417   .     A
C1337  C600    1.426   1_556 S
C1339  H1360   1.116   .     S
C1339  H1359   1.111   .     S
C1339  O1394   1.415   .     S
C1339  C1340   1.516   .     S
C1340  H1363   1.110   .     S
C1340  H1361   1.111   .     S
C1340  H1362   1.109   .     S
C1341  H1365   1.116   .     S
C1341  O1386   1.412   .     S
C1341  C1342   1.521   .     S
C1341  H1366   1.114   .     S
C1342  H1369   1.111   .     S
C1342  H1368   1.110   .     S
C1342  H1367   1.111   .     S
C1343  H1370   1.107   .     S
C1343  H1371   1.102   .     S
C1343  H1372   1.111   .     S
C1344  H1373   1.100   .     S
C1344  H1376   1.111   .     S
C1344  H1374   1.105   .     S
C1345  H1354   1.077   .     S
C1345  C1347   1.386   .     A
C1346  H1353   1.085   .     S
C1347  H1364   1.084   .     S
C1347  C598    1.390   1_556 S
C1348  O1394   1.382   .     S
C1349  O1386   1.383   .     S
C1349  C822    1.388   1_565 S
C1350  H1355   1.084   .     S
C1350  C1397   1.396   .     S
C1350  C856    1.387   1_565 S
Cu1351 O1389   1.971   .     S
Cu1351 O1390   1.946   .     S
Cu1351 O1393   1.926   .     S
Cu1351 N1383   2.027   .     S
Cu1351 O1385   1.969   .     S
Cu1352 O1392   1.926   .     S
Cu1352 N1384   2.027   .     S
Cu1352 O1388   1.971   .     S
Cu1352 O1391   1.946   .     S
Cu1352 O1387   1.969   .     S
Cu1352 Cu1433  2.697   .     S
H1378  C1411   1.081   .     S
O1387  C1406   1.301   .     S
O1391  C1404   1.306   .     S
C1395  O1470   1.295   .     A
C1395  C1398   1.457   .     S
C1395  O1303   1.302   1_655 S
C1396  H1438   1.079   .     S
C1397  C1406   1.452   .     S
C1397  C1431   1.410   .     A
C1398  C1430   1.410   .     A
C1398  C1232   1.399   1_655 S
C1399  N1466   1.354   .     A
C1399  C1401   1.418   .     A
C1399  H1439   1.081   .     S
C1400  N1465   1.354   .     A
C1400  C1402   1.419   .     A
C1400  H1440   1.082   .     S
C1401  N1465   1.390   .     A
C1401  C1425   1.504   .     S
C1402  N1466   1.390   .     A
C1402  C1426   1.504   .     S
C1403  O1474   1.298   .     A
C1403  C1405   1.469   .     S
C1403  O1308   1.305   1_655 S
C1404  C1407   1.472   .     S
C1404  O1475   1.298   .     A
C1405  C1412   1.400   .     A
C1405  C1410   1.398   .     A
C1406  O1471   1.294   .     A
C1407  C1413   1.402   .     A
C1407  C1411   1.398   .     A
C1408  C1410   1.393   .     A
C1408  C1416   1.405   .     A
C1408  H1462   1.084   .     S
C1409  H1463   1.084   .     S
C1409  C1418   1.404   .     A
C1409  C1411   1.392   .     A
C1410  H1297   1.082   1_655 S
C1412  H1459   1.076   .     S
C1412  C1414   1.406   .     A
C1413  C1415   1.407   .     A
C1413  H1457   1.074   .     S
C1414  C1419   1.428   .     A
C1414  C1416   1.418   .     A
C1415  C1420   1.430   .     A
C1415  C1418   1.419   .     A
C1416  C690    1.390   1_556 S
C1417  C1420   1.418   .     A
C1417  H1464   1.076   .     S
C1417  C1428   1.388   .     A
C1419  C1427   1.417   .     A
C1419  C682    1.426   1_556 S
C1421  H1442   1.116   .     S
C1421  H1441   1.111   .     S
C1421  O1476   1.415   .     S
C1421  C1422   1.516   .     S
C1422  H1445   1.110   .     S
C1422  H1443   1.111   .     S
C1422  H1444   1.109   .     S
C1423  H1447   1.116   .     S
C1423  O1468   1.412   .     S
C1423  C1424   1.521   .     S
C1423  H1448   1.114   .     S
C1424  H1451   1.111   .     S
C1424  H1450   1.110   .     S
C1424  H1449   1.111   .     S
C1425  H1452   1.107   .     S
C1425  H1453   1.102   .     S
C1425  H1454   1.111   .     S
C1426  H1455   1.100   .     S
C1426  H1458   1.111   .     S
C1426  H1456   1.105   .     S
C1427  H1436   1.077   .     S
C1427  C1429   1.386   .     A
C1428  H1435   1.085   .     S
C1429  H1446   1.084   .     S
C1429  C680    1.390   1_556 S
C1430  O1476   1.382   .     S
C1431  O1468   1.383   .     S
C1431  C904    1.388   1_565 S
C1432  H1437   1.084   .     S
C1432  C1233   1.396   1_655 S
C1432  C938    1.387   1_565 S
Cu1433 O1471   1.971   .     S
Cu1433 O1472   1.946   .     S
Cu1433 O1475   1.926   .     S
Cu1433 N1465   2.027   .     S
Cu1433 O1467   1.969   .     S
Cu1434 O1474   1.926   .     S
Cu1434 N1466   2.027   .     S
Cu1434 O1470   1.971   .     S
Cu1434 O1473   1.946   .     S
Cu1434 O1469   1.969   .     S
Cu1434 Cu1269  2.697   1_655 S
H1460  C1247   1.081   1_655 S
O1469  C1242   1.301   1_655 S
O1473  C1240   1.306   1_655 S
