data_str_m3_o1_o10_pcu_sym.173
_audit_creation_date              2020-01-03
_audit_creation_method            'Materials Studio'
_symmetry_space_group_name_H-M    'P1'
_symmetry_Int_Tables_number       1
_symmetry_cell_setting            triclinic
loop_
_symmetry_equiv_pos_as_xyz
  x,y,z
_cell_length_a                    25.7682
_cell_length_b                    32.0735
_cell_length_c                    29.5582
_cell_angle_alpha                 90.5940
_cell_angle_beta                  98.6190
_cell_angle_gamma                 90.1912
loop_
_atom_site_label
_atom_site_type_symbol
_atom_site_fract_x
_atom_site_fract_y
_atom_site_fract_z
_atom_site_U_iso_or_equiv
_atom_site_adp_type
_atom_site_occupancy
C1     C     0.16720   0.08671   0.16641   0.00000  Uiso   1.00
C2     C     0.16613   0.24663   0.16693   0.00000  Uiso   1.00
C3     C     0.06704   0.16665   0.15470   0.00000  Uiso   1.00
C4     C     0.26629   0.16668   0.17863   0.00000  Uiso   1.00
C5     C     0.01200   0.16666   0.14826   0.00000  Uiso   1.00
C6     C     0.32133   0.16667   0.18508   0.00000  Uiso   1.00
C7     C     0.19487   0.02044   0.13595   0.00000  Uiso   1.00
C8     C     0.13847   0.31290   0.19740   0.00000  Uiso   1.00
C9     C     0.19463   0.31091   0.13753   0.00000  Uiso   1.00
C10    C     0.13870   0.02243   0.19581   0.00000  Uiso   1.00
C11    C     0.16634   0.29076   0.16765   0.00000  Uiso   1.00
C12    C     0.16699   0.04257   0.16569   0.00000  Uiso   1.00
C13    C     0.19984   0.19253   0.02879   0.00000  Uiso   1.00
C14    C     0.13350   0.14081   0.30454   0.00000  Uiso   1.00
C15    C     0.19969   0.19229   0.31386   0.00000  Uiso   1.00
C16    C     0.13365   0.14103   0.01948   0.00000  Uiso   1.00
H17    H     0.32472   0.16667   0.11332   0.00000  Uiso   1.00
H18    H     0.00862   0.16666   0.22001   0.00000  Uiso   1.00
H19    H     0.21673   0.29336   0.11536   0.00000  Uiso   1.00
H20    H     0.11661   0.03998   0.21798   0.00000  Uiso   1.00
H21    H     0.22596   0.21259   0.29888   0.00000  Uiso   1.00
H22    H     0.10739   0.12073   0.03446   0.00000  Uiso   1.00
N23    N     0.16665   0.16666   0.28573   0.00000  Uiso   1.00
N24    N     0.16668   0.16668   0.04760   0.00000  Uiso   1.00
O25    O     0.16666   0.10558   0.20487   0.00000  Uiso   1.00
O26    O     0.16667   0.22775   0.12846   0.00000  Uiso   1.00
O27    O     0.16666   0.10559   0.12843   0.00000  Uiso   1.00
O28    O     0.16667   0.22774   0.20490   0.00000  Uiso   1.00
O29    O     0.09058   0.16666   0.19595   0.00000  Uiso   1.00
O30    O     0.24275   0.16667   0.13739   0.00000  Uiso   1.00
O31    O     0.09058   0.16667   0.11950   0.00000  Uiso   1.00
O32    O     0.24275   0.16666   0.21383   0.00000  Uiso   1.00
Zn33   Zn    0.16667   0.16666   0.21771   0.00000  Uiso   1.00
Zn34   Zn    0.16667   0.16667   0.11563   0.00000  Uiso   1.00
N35    N     0.22486   0.04108   0.10611   0.00000  Uiso   1.00
H36    H     0.26326   0.03107   0.10976   0.00000  Uiso   1.00
C37    C     0.20067   0.04082   0.05864   0.00000  Uiso   1.00
H38    H     0.19971   0.00864   0.04419   0.00000  Uiso   1.00
H39    H     0.22367   0.06106   0.03862   0.00000  Uiso   1.00
H40    H     0.15999   0.05303   0.05532   0.00000  Uiso   1.00
N41    N     0.10850   0.29227   0.22726   0.00000  Uiso   1.00
H42    H     0.07013   0.30234   0.22367   0.00000  Uiso   1.00
C43    C     0.13278   0.29249   0.27471   0.00000  Uiso   1.00
H44    H     0.13399   0.32468   0.28914   0.00000  Uiso   1.00
H45    H     0.17336   0.28010   0.27798   0.00000  Uiso   1.00
H46    H     0.10968   0.27238   0.29478   0.00000  Uiso   1.00
O47    O     0.23291   0.21849   0.05740   0.00000  Uiso   1.00
H48    H     0.25399   0.23524   0.03871   0.00000  Uiso   1.00
O49    O     0.10043   0.11484   0.27594   0.00000  Uiso   1.00
H50    H     0.07934   0.09809   0.29462   0.00000  Uiso   1.00
C51    C     0.50054   0.08671   0.16641   0.00000  Uiso   1.00
C52    C     0.49946   0.24663   0.16693   0.00000  Uiso   1.00
C53    C     0.40037   0.16665   0.15470   0.00000  Uiso   1.00
C54    C     0.59963   0.16668   0.17863   0.00000  Uiso   1.00
C55    C     0.34533   0.16666   0.14826   0.00000  Uiso   1.00
C56    C     0.65467   0.16667   0.18508   0.00000  Uiso   1.00
C57    C     0.52820   0.02044   0.13595   0.00000  Uiso   1.00
C58    C     0.47180   0.31290   0.19740   0.00000  Uiso   1.00
C59    C     0.52797   0.31091   0.13753   0.00000  Uiso   1.00
C60    C     0.47203   0.02243   0.19581   0.00000  Uiso   1.00
C61    C     0.49968   0.29076   0.16765   0.00000  Uiso   1.00
C62    C     0.50032   0.04257   0.16569   0.00000  Uiso   1.00
C63    C     0.53317   0.19253   0.02879   0.00000  Uiso   1.00
C64    C     0.46683   0.14081   0.30454   0.00000  Uiso   1.00
C65    C     0.53303   0.19229   0.31386   0.00000  Uiso   1.00
C66    C     0.46698   0.14103   0.01948   0.00000  Uiso   1.00
H67    H     0.65805   0.16667   0.11332   0.00000  Uiso   1.00
H68    H     0.34195   0.16666   0.22001   0.00000  Uiso   1.00
H69    H     0.55006   0.29336   0.11536   0.00000  Uiso   1.00
H70    H     0.44994   0.03998   0.21798   0.00000  Uiso   1.00
H71    H     0.55930   0.21259   0.29888   0.00000  Uiso   1.00
H72    H     0.44072   0.12073   0.03446   0.00000  Uiso   1.00
N73    N     0.49999   0.16666   0.28573   0.00000  Uiso   1.00
N74    N     0.50001   0.16668   0.04760   0.00000  Uiso   1.00
O75    O     0.50000   0.10558   0.20487   0.00000  Uiso   1.00
O76    O     0.50000   0.22775   0.12846   0.00000  Uiso   1.00
O77    O     0.50000   0.10559   0.12843   0.00000  Uiso   1.00
O78    O     0.50000   0.22774   0.20490   0.00000  Uiso   1.00
O79    O     0.42392   0.16666   0.19595   0.00000  Uiso   1.00
O80    O     0.57608   0.16667   0.13739   0.00000  Uiso   1.00
O81    O     0.42392   0.16667   0.11950   0.00000  Uiso   1.00
O82    O     0.57608   0.16666   0.21383   0.00000  Uiso   1.00
Zn83   Zn    0.50000   0.16666   0.21771   0.00000  Uiso   1.00
Zn84   Zn    0.50000   0.16667   0.11563   0.00000  Uiso   1.00
N85    N     0.55820   0.04108   0.10611   0.00000  Uiso   1.00
H86    H     0.59659   0.03107   0.10976   0.00000  Uiso   1.00
C87    C     0.53400   0.04082   0.05864   0.00000  Uiso   1.00
H88    H     0.53305   0.00864   0.04419   0.00000  Uiso   1.00
H89    H     0.55700   0.06106   0.03862   0.00000  Uiso   1.00
H90    H     0.49333   0.05303   0.05532   0.00000  Uiso   1.00
N91    N     0.44183   0.29227   0.22726   0.00000  Uiso   1.00
H92    H     0.40346   0.30234   0.22367   0.00000  Uiso   1.00
C93    C     0.46611   0.29249   0.27471   0.00000  Uiso   1.00
H94    H     0.46732   0.32468   0.28914   0.00000  Uiso   1.00
H95    H     0.50669   0.28010   0.27798   0.00000  Uiso   1.00
H96    H     0.44301   0.27238   0.29478   0.00000  Uiso   1.00
O97    O     0.56624   0.21849   0.05740   0.00000  Uiso   1.00
H98    H     0.58733   0.23524   0.03871   0.00000  Uiso   1.00
O99    O     0.43376   0.11484   0.27594   0.00000  Uiso   1.00
H100   H     0.41267   0.09809   0.29462   0.00000  Uiso   1.00
C101   C     0.83387   0.08671   0.16641   0.00000  Uiso   1.00
C102   C     0.83280   0.24663   0.16693   0.00000  Uiso   1.00
C103   C     0.73371   0.16665   0.15470   0.00000  Uiso   1.00
C104   C     0.93296   0.16668   0.17863   0.00000  Uiso   1.00
C105   C     0.67867   0.16666   0.14826   0.00000  Uiso   1.00
C106   C     0.98800   0.16667   0.18508   0.00000  Uiso   1.00
C107   C     0.86154   0.02044   0.13595   0.00000  Uiso   1.00
C108   C     0.80514   0.31290   0.19740   0.00000  Uiso   1.00
C109   C     0.86130   0.31091   0.13753   0.00000  Uiso   1.00
C110   C     0.80537   0.02243   0.19581   0.00000  Uiso   1.00
C111   C     0.83301   0.29076   0.16765   0.00000  Uiso   1.00
C112   C     0.83365   0.04257   0.16569   0.00000  Uiso   1.00
C113   C     0.86650   0.19253   0.02879   0.00000  Uiso   1.00
C114   C     0.80017   0.14081   0.30454   0.00000  Uiso   1.00
C115   C     0.86636   0.19229   0.31386   0.00000  Uiso   1.00
C116   C     0.80031   0.14103   0.01948   0.00000  Uiso   1.00
H117   H     0.99138   0.16667   0.11332   0.00000  Uiso   1.00
H118   H     0.67528   0.16666   0.22001   0.00000  Uiso   1.00
H119   H     0.88340   0.29336   0.11536   0.00000  Uiso   1.00
H120   H     0.78327   0.03998   0.21798   0.00000  Uiso   1.00
H121   H     0.89263   0.21259   0.29888   0.00000  Uiso   1.00
H122   H     0.77405   0.12073   0.03446   0.00000  Uiso   1.00
N123   N     0.83332   0.16666   0.28573   0.00000  Uiso   1.00
N124   N     0.83335   0.16668   0.04760   0.00000  Uiso   1.00
O125   O     0.83333   0.10558   0.20487   0.00000  Uiso   1.00
O126   O     0.83334   0.22775   0.12846   0.00000  Uiso   1.00
O127   O     0.83333   0.10559   0.12843   0.00000  Uiso   1.00
O128   O     0.83334   0.22774   0.20490   0.00000  Uiso   1.00
O129   O     0.75725   0.16666   0.19595   0.00000  Uiso   1.00
O130   O     0.90942   0.16667   0.13739   0.00000  Uiso   1.00
O131   O     0.75725   0.16667   0.11950   0.00000  Uiso   1.00
O132   O     0.90942   0.16666   0.21383   0.00000  Uiso   1.00
Zn133  Zn    0.83333   0.16666   0.21771   0.00000  Uiso   1.00
Zn134  Zn    0.83333   0.16667   0.11563   0.00000  Uiso   1.00
N135   N     0.89153   0.04108   0.10611   0.00000  Uiso   1.00
H136   H     0.92992   0.03107   0.10976   0.00000  Uiso   1.00
C137   C     0.86733   0.04082   0.05864   0.00000  Uiso   1.00
H138   H     0.86638   0.00864   0.04419   0.00000  Uiso   1.00
H139   H     0.89033   0.06106   0.03862   0.00000  Uiso   1.00
H140   H     0.82666   0.05303   0.05532   0.00000  Uiso   1.00
N141   N     0.77517   0.29227   0.22726   0.00000  Uiso   1.00
H142   H     0.73680   0.30234   0.22367   0.00000  Uiso   1.00
C143   C     0.79944   0.29249   0.27471   0.00000  Uiso   1.00
H144   H     0.80065   0.32468   0.28914   0.00000  Uiso   1.00
H145   H     0.84003   0.28010   0.27798   0.00000  Uiso   1.00
H146   H     0.77635   0.27238   0.29478   0.00000  Uiso   1.00
O147   O     0.89958   0.21849   0.05740   0.00000  Uiso   1.00
H148   H     0.92066   0.23524   0.03871   0.00000  Uiso   1.00
O149   O     0.76709   0.11484   0.27594   0.00000  Uiso   1.00
H150   H     0.74601   0.09809   0.29462   0.00000  Uiso   1.00
C151   C     0.16720   0.42004   0.16641   0.00000  Uiso   1.00
C152   C     0.16613   0.57996   0.16693   0.00000  Uiso   1.00
C153   C     0.06704   0.49998   0.15470   0.00000  Uiso   1.00
C154   C     0.26629   0.50002   0.17863   0.00000  Uiso   1.00
C155   C     0.01200   0.50000   0.14826   0.00000  Uiso   1.00
C156   C     0.32133   0.50000   0.18508   0.00000  Uiso   1.00
C157   C     0.19487   0.35377   0.13595   0.00000  Uiso   1.00
C158   C     0.13847   0.64623   0.19740   0.00000  Uiso   1.00
C159   C     0.19463   0.64424   0.13753   0.00000  Uiso   1.00
C160   C     0.13870   0.35576   0.19581   0.00000  Uiso   1.00
C161   C     0.16634   0.62409   0.16765   0.00000  Uiso   1.00
C162   C     0.16699   0.37591   0.16569   0.00000  Uiso   1.00
C163   C     0.19984   0.52586   0.02879   0.00000  Uiso   1.00
C164   C     0.13350   0.47414   0.30454   0.00000  Uiso   1.00
C165   C     0.19969   0.52563   0.31386   0.00000  Uiso   1.00
C166   C     0.13365   0.47437   0.01948   0.00000  Uiso   1.00
H167   H     0.32472   0.50001   0.11332   0.00000  Uiso   1.00
H168   H     0.00862   0.49999   0.22001   0.00000  Uiso   1.00
H169   H     0.21673   0.62669   0.11536   0.00000  Uiso   1.00
H170   H     0.11661   0.37332   0.21798   0.00000  Uiso   1.00
H171   H     0.22596   0.54592   0.29888   0.00000  Uiso   1.00
H172   H     0.10739   0.45407   0.03446   0.00000  Uiso   1.00
N173   N     0.16665   0.49999   0.28573   0.00000  Uiso   1.00
N174   N     0.16668   0.50001   0.04760   0.00000  Uiso   1.00
O175   O     0.16666   0.43892   0.20487   0.00000  Uiso   1.00
O176   O     0.16667   0.56108   0.12846   0.00000  Uiso   1.00
O177   O     0.16666   0.43893   0.12843   0.00000  Uiso   1.00
O178   O     0.16667   0.56107   0.20490   0.00000  Uiso   1.00
O179   O     0.09058   0.50000   0.19595   0.00000  Uiso   1.00
O180   O     0.24275   0.50000   0.13739   0.00000  Uiso   1.00
O181   O     0.09058   0.50000   0.11950   0.00000  Uiso   1.00
O182   O     0.24275   0.50000   0.21383   0.00000  Uiso   1.00
Zn183  Zn    0.16667   0.49999   0.21771   0.00000  Uiso   1.00
Zn184  Zn    0.16667   0.50001   0.11563   0.00000  Uiso   1.00
N185   N     0.22486   0.37441   0.10611   0.00000  Uiso   1.00
H186   H     0.26326   0.36440   0.10976   0.00000  Uiso   1.00
C187   C     0.20067   0.37416   0.05864   0.00000  Uiso   1.00
H188   H     0.19971   0.34198   0.04419   0.00000  Uiso   1.00
H189   H     0.22367   0.39439   0.03862   0.00000  Uiso   1.00
H190   H     0.15999   0.38636   0.05532   0.00000  Uiso   1.00
N191   N     0.10850   0.62561   0.22726   0.00000  Uiso   1.00
H192   H     0.07013   0.63567   0.22367   0.00000  Uiso   1.00
C193   C     0.13278   0.62582   0.27471   0.00000  Uiso   1.00
H194   H     0.13399   0.65802   0.28914   0.00000  Uiso   1.00
H195   H     0.17336   0.61344   0.27798   0.00000  Uiso   1.00
H196   H     0.10968   0.60572   0.29478   0.00000  Uiso   1.00
O197   O     0.23291   0.55182   0.05740   0.00000  Uiso   1.00
H198   H     0.25399   0.56858   0.03871   0.00000  Uiso   1.00
O199   O     0.10043   0.44818   0.27594   0.00000  Uiso   1.00
H200   H     0.07934   0.43142   0.29462   0.00000  Uiso   1.00
C201   C     0.50054   0.42004   0.16641   0.00000  Uiso   1.00
C202   C     0.49946   0.57996   0.16693   0.00000  Uiso   1.00
C203   C     0.40037   0.49998   0.15470   0.00000  Uiso   1.00
C204   C     0.59963   0.50002   0.17863   0.00000  Uiso   1.00
C205   C     0.34533   0.50000   0.14826   0.00000  Uiso   1.00
C206   C     0.65467   0.50000   0.18508   0.00000  Uiso   1.00
C207   C     0.52820   0.35377   0.13595   0.00000  Uiso   1.00
C208   C     0.47180   0.64623   0.19740   0.00000  Uiso   1.00
C209   C     0.52797   0.64424   0.13753   0.00000  Uiso   1.00
C210   C     0.47203   0.35576   0.19581   0.00000  Uiso   1.00
C211   C     0.49968   0.62409   0.16765   0.00000  Uiso   1.00
C212   C     0.50032   0.37591   0.16569   0.00000  Uiso   1.00
C213   C     0.53317   0.52586   0.02879   0.00000  Uiso   1.00
C214   C     0.46683   0.47414   0.30454   0.00000  Uiso   1.00
C215   C     0.53303   0.52563   0.31386   0.00000  Uiso   1.00
C216   C     0.46698   0.47437   0.01948   0.00000  Uiso   1.00
H217   H     0.65805   0.50001   0.11332   0.00000  Uiso   1.00
H218   H     0.34195   0.49999   0.22001   0.00000  Uiso   1.00
H219   H     0.55006   0.62669   0.11536   0.00000  Uiso   1.00
H220   H     0.44994   0.37332   0.21798   0.00000  Uiso   1.00
H221   H     0.55930   0.54592   0.29888   0.00000  Uiso   1.00
H222   H     0.44072   0.45407   0.03446   0.00000  Uiso   1.00
N223   N     0.49999   0.49999   0.28573   0.00000  Uiso   1.00
N224   N     0.50001   0.50001   0.04760   0.00000  Uiso   1.00
O225   O     0.50000   0.43892   0.20487   0.00000  Uiso   1.00
O226   O     0.50000   0.56108   0.12846   0.00000  Uiso   1.00
O227   O     0.50000   0.43893   0.12843   0.00000  Uiso   1.00
O228   O     0.50000   0.56107   0.20490   0.00000  Uiso   1.00
O229   O     0.42392   0.50000   0.19595   0.00000  Uiso   1.00
O230   O     0.57608   0.50000   0.13739   0.00000  Uiso   1.00
O231   O     0.42392   0.50000   0.11950   0.00000  Uiso   1.00
O232   O     0.57608   0.50000   0.21383   0.00000  Uiso   1.00
Zn233  Zn    0.50000   0.49999   0.21771   0.00000  Uiso   1.00
Zn234  Zn    0.50000   0.50001   0.11563   0.00000  Uiso   1.00
N235   N     0.55820   0.37441   0.10611   0.00000  Uiso   1.00
H236   H     0.59659   0.36440   0.10976   0.00000  Uiso   1.00
C237   C     0.53400   0.37416   0.05864   0.00000  Uiso   1.00
H238   H     0.53305   0.34198   0.04419   0.00000  Uiso   1.00
H239   H     0.55700   0.39439   0.03862   0.00000  Uiso   1.00
H240   H     0.49333   0.38636   0.05532   0.00000  Uiso   1.00
N241   N     0.44183   0.62561   0.22726   0.00000  Uiso   1.00
H242   H     0.40346   0.63567   0.22367   0.00000  Uiso   1.00
C243   C     0.46611   0.62582   0.27471   0.00000  Uiso   1.00
H244   H     0.46732   0.65802   0.28914   0.00000  Uiso   1.00
H245   H     0.50669   0.61344   0.27798   0.00000  Uiso   1.00
H246   H     0.44301   0.60572   0.29478   0.00000  Uiso   1.00
O247   O     0.56624   0.55182   0.05740   0.00000  Uiso   1.00
H248   H     0.58733   0.56858   0.03871   0.00000  Uiso   1.00
O249   O     0.43376   0.44818   0.27594   0.00000  Uiso   1.00
H250   H     0.41267   0.43142   0.29462   0.00000  Uiso   1.00
C251   C     0.83387   0.42004   0.16641   0.00000  Uiso   1.00
C252   C     0.83280   0.57996   0.16693   0.00000  Uiso   1.00
C253   C     0.73371   0.49998   0.15470   0.00000  Uiso   1.00
C254   C     0.93296   0.50002   0.17863   0.00000  Uiso   1.00
C255   C     0.67867   0.50000   0.14826   0.00000  Uiso   1.00
C256   C     0.98800   0.50000   0.18508   0.00000  Uiso   1.00
C257   C     0.86154   0.35377   0.13595   0.00000  Uiso   1.00
C258   C     0.80514   0.64623   0.19740   0.00000  Uiso   1.00
C259   C     0.86130   0.64424   0.13753   0.00000  Uiso   1.00
C260   C     0.80537   0.35576   0.19581   0.00000  Uiso   1.00
C261   C     0.83301   0.62409   0.16765   0.00000  Uiso   1.00
C262   C     0.83365   0.37591   0.16569   0.00000  Uiso   1.00
C263   C     0.86650   0.52586   0.02879   0.00000  Uiso   1.00
C264   C     0.80017   0.47414   0.30454   0.00000  Uiso   1.00
C265   C     0.86636   0.52563   0.31386   0.00000  Uiso   1.00
C266   C     0.80031   0.47437   0.01948   0.00000  Uiso   1.00
H267   H     0.99138   0.50001   0.11332   0.00000  Uiso   1.00
H268   H     0.67528   0.49999   0.22001   0.00000  Uiso   1.00
H269   H     0.88340   0.62669   0.11536   0.00000  Uiso   1.00
H270   H     0.78327   0.37332   0.21798   0.00000  Uiso   1.00
H271   H     0.89263   0.54592   0.29888   0.00000  Uiso   1.00
H272   H     0.77405   0.45407   0.03446   0.00000  Uiso   1.00
N273   N     0.83332   0.49999   0.28573   0.00000  Uiso   1.00
N274   N     0.83335   0.50001   0.04760   0.00000  Uiso   1.00
O275   O     0.83333   0.43892   0.20487   0.00000  Uiso   1.00
O276   O     0.83334   0.56108   0.12846   0.00000  Uiso   1.00
O277   O     0.83333   0.43893   0.12843   0.00000  Uiso   1.00
O278   O     0.83334   0.56107   0.20490   0.00000  Uiso   1.00
O279   O     0.75725   0.50000   0.19595   0.00000  Uiso   1.00
O280   O     0.90942   0.50000   0.13739   0.00000  Uiso   1.00
O281   O     0.75725   0.50000   0.11950   0.00000  Uiso   1.00
O282   O     0.90942   0.50000   0.21383   0.00000  Uiso   1.00
Zn283  Zn    0.83333   0.49999   0.21771   0.00000  Uiso   1.00
Zn284  Zn    0.83333   0.50001   0.11563   0.00000  Uiso   1.00
N285   N     0.89153   0.37441   0.10611   0.00000  Uiso   1.00
H286   H     0.92992   0.36440   0.10976   0.00000  Uiso   1.00
C287   C     0.86733   0.37416   0.05864   0.00000  Uiso   1.00
H288   H     0.86638   0.34198   0.04419   0.00000  Uiso   1.00
H289   H     0.89033   0.39439   0.03862   0.00000  Uiso   1.00
H290   H     0.82666   0.38636   0.05532   0.00000  Uiso   1.00
N291   N     0.77517   0.62561   0.22726   0.00000  Uiso   1.00
H292   H     0.73680   0.63567   0.22367   0.00000  Uiso   1.00
C293   C     0.79944   0.62582   0.27471   0.00000  Uiso   1.00
H294   H     0.80065   0.65802   0.28914   0.00000  Uiso   1.00
H295   H     0.84003   0.61344   0.27798   0.00000  Uiso   1.00
H296   H     0.77635   0.60572   0.29478   0.00000  Uiso   1.00
O297   O     0.89958   0.55182   0.05740   0.00000  Uiso   1.00
H298   H     0.92066   0.56858   0.03871   0.00000  Uiso   1.00
O299   O     0.76709   0.44818   0.27594   0.00000  Uiso   1.00
H300   H     0.74601   0.43142   0.29462   0.00000  Uiso   1.00
C301   C     0.16720   0.75337   0.16641   0.00000  Uiso   1.00
C302   C     0.16613   0.91329   0.16693   0.00000  Uiso   1.00
C303   C     0.06704   0.83332   0.15470   0.00000  Uiso   1.00
C304   C     0.26629   0.83335   0.17863   0.00000  Uiso   1.00
C305   C     0.01200   0.83333   0.14826   0.00000  Uiso   1.00
C306   C     0.32133   0.83334   0.18508   0.00000  Uiso   1.00
C307   C     0.19487   0.68710   0.13595   0.00000  Uiso   1.00
C308   C     0.13847   0.97957   0.19740   0.00000  Uiso   1.00
C309   C     0.19463   0.97757   0.13753   0.00000  Uiso   1.00
C310   C     0.13870   0.68910   0.19581   0.00000  Uiso   1.00
C311   C     0.16634   0.95743   0.16765   0.00000  Uiso   1.00
C312   C     0.16699   0.70924   0.16569   0.00000  Uiso   1.00
C313   C     0.19984   0.85919   0.02879   0.00000  Uiso   1.00
C314   C     0.13350   0.80747   0.30454   0.00000  Uiso   1.00
C315   C     0.19969   0.85896   0.31386   0.00000  Uiso   1.00
C316   C     0.13365   0.80770   0.01948   0.00000  Uiso   1.00
H317   H     0.32472   0.83334   0.11332   0.00000  Uiso   1.00
H318   H     0.00862   0.83333   0.22001   0.00000  Uiso   1.00
H319   H     0.21673   0.96002   0.11536   0.00000  Uiso   1.00
H320   H     0.11661   0.70665   0.21798   0.00000  Uiso   1.00
H321   H     0.22596   0.87925   0.29888   0.00000  Uiso   1.00
H322   H     0.10739   0.78740   0.03446   0.00000  Uiso   1.00
N323   N     0.16665   0.83332   0.28573   0.00000  Uiso   1.00
N324   N     0.16668   0.83334   0.04760   0.00000  Uiso   1.00
O325   O     0.16666   0.77225   0.20487   0.00000  Uiso   1.00
O326   O     0.16667   0.89442   0.12846   0.00000  Uiso   1.00
O327   O     0.16666   0.77226   0.12843   0.00000  Uiso   1.00
O328   O     0.16667   0.89441   0.20490   0.00000  Uiso   1.00
O329   O     0.09058   0.83333   0.19595   0.00000  Uiso   1.00
O330   O     0.24275   0.83334   0.13739   0.00000  Uiso   1.00
O331   O     0.09058   0.83334   0.11950   0.00000  Uiso   1.00
O332   O     0.24275   0.83333   0.21383   0.00000  Uiso   1.00
Zn333  Zn    0.16667   0.83333   0.21771   0.00000  Uiso   1.00
Zn334  Zn    0.16667   0.83334   0.11563   0.00000  Uiso   1.00
N335   N     0.22486   0.70774   0.10611   0.00000  Uiso   1.00
H336   H     0.26326   0.69773   0.10976   0.00000  Uiso   1.00
C337   C     0.20067   0.70749   0.05864   0.00000  Uiso   1.00
H338   H     0.19971   0.67531   0.04419   0.00000  Uiso   1.00
H339   H     0.22367   0.72772   0.03862   0.00000  Uiso   1.00
H340   H     0.15999   0.71970   0.05532   0.00000  Uiso   1.00
N341   N     0.10850   0.95894   0.22726   0.00000  Uiso   1.00
H342   H     0.07013   0.96900   0.22367   0.00000  Uiso   1.00
C343   C     0.13278   0.95915   0.27471   0.00000  Uiso   1.00
H344   H     0.13399   0.99135   0.28914   0.00000  Uiso   1.00
H345   H     0.17336   0.94677   0.27798   0.00000  Uiso   1.00
H346   H     0.10968   0.93905   0.29478   0.00000  Uiso   1.00
O347   O     0.23291   0.88515   0.05740   0.00000  Uiso   1.00
H348   H     0.25399   0.90191   0.03871   0.00000  Uiso   1.00
O349   O     0.10043   0.78151   0.27594   0.00000  Uiso   1.00
H350   H     0.07934   0.76476   0.29462   0.00000  Uiso   1.00
C351   C     0.50054   0.75337   0.16641   0.00000  Uiso   1.00
C352   C     0.49946   0.91329   0.16693   0.00000  Uiso   1.00
C353   C     0.40037   0.83332   0.15470   0.00000  Uiso   1.00
C354   C     0.59963   0.83335   0.17863   0.00000  Uiso   1.00
C355   C     0.34533   0.83333   0.14826   0.00000  Uiso   1.00
C356   C     0.65467   0.83334   0.18508   0.00000  Uiso   1.00
C357   C     0.52820   0.68710   0.13595   0.00000  Uiso   1.00
C358   C     0.47180   0.97957   0.19740   0.00000  Uiso   1.00
C359   C     0.52797   0.97757   0.13753   0.00000  Uiso   1.00
C360   C     0.47203   0.68910   0.19581   0.00000  Uiso   1.00
C361   C     0.49968   0.95743   0.16765   0.00000  Uiso   1.00
C362   C     0.50032   0.70924   0.16569   0.00000  Uiso   1.00
C363   C     0.53317   0.85919   0.02879   0.00000  Uiso   1.00
C364   C     0.46683   0.80747   0.30454   0.00000  Uiso   1.00
C365   C     0.53303   0.85896   0.31386   0.00000  Uiso   1.00
C366   C     0.46698   0.80770   0.01948   0.00000  Uiso   1.00
H367   H     0.65805   0.83334   0.11332   0.00000  Uiso   1.00
H368   H     0.34195   0.83333   0.22001   0.00000  Uiso   1.00
H369   H     0.55006   0.96002   0.11536   0.00000  Uiso   1.00
H370   H     0.44994   0.70665   0.21798   0.00000  Uiso   1.00
H371   H     0.55930   0.87925   0.29888   0.00000  Uiso   1.00
H372   H     0.44072   0.78740   0.03446   0.00000  Uiso   1.00
N373   N     0.49999   0.83332   0.28573   0.00000  Uiso   1.00
N374   N     0.50001   0.83334   0.04760   0.00000  Uiso   1.00
O375   O     0.50000   0.77225   0.20487   0.00000  Uiso   1.00
O376   O     0.50000   0.89442   0.12846   0.00000  Uiso   1.00
O377   O     0.50000   0.77226   0.12843   0.00000  Uiso   1.00
O378   O     0.50000   0.89441   0.20490   0.00000  Uiso   1.00
O379   O     0.42392   0.83333   0.19595   0.00000  Uiso   1.00
O380   O     0.57608   0.83334   0.13739   0.00000  Uiso   1.00
O381   O     0.42392   0.83334   0.11950   0.00000  Uiso   1.00
O382   O     0.57608   0.83333   0.21383   0.00000  Uiso   1.00
Zn383  Zn    0.50000   0.83333   0.21771   0.00000  Uiso   1.00
Zn384  Zn    0.50000   0.83334   0.11563   0.00000  Uiso   1.00
N385   N     0.55820   0.70774   0.10611   0.00000  Uiso   1.00
H386   H     0.59659   0.69773   0.10976   0.00000  Uiso   1.00
C387   C     0.53400   0.70749   0.05864   0.00000  Uiso   1.00
H388   H     0.53305   0.67531   0.04419   0.00000  Uiso   1.00
H389   H     0.55700   0.72772   0.03862   0.00000  Uiso   1.00
H390   H     0.49333   0.71970   0.05532   0.00000  Uiso   1.00
N391   N     0.44183   0.95894   0.22726   0.00000  Uiso   1.00
H392   H     0.40346   0.96900   0.22367   0.00000  Uiso   1.00
C393   C     0.46611   0.95915   0.27471   0.00000  Uiso   1.00
H394   H     0.46732   0.99135   0.28914   0.00000  Uiso   1.00
H395   H     0.50669   0.94677   0.27798   0.00000  Uiso   1.00
H396   H     0.44301   0.93905   0.29478   0.00000  Uiso   1.00
O397   O     0.56624   0.88515   0.05740   0.00000  Uiso   1.00
H398   H     0.58733   0.90191   0.03871   0.00000  Uiso   1.00
O399   O     0.43376   0.78151   0.27594   0.00000  Uiso   1.00
H400   H     0.41267   0.76476   0.29462   0.00000  Uiso   1.00
C401   C     0.83387   0.75337   0.16641   0.00000  Uiso   1.00
C402   C     0.83280   0.91329   0.16693   0.00000  Uiso   1.00
C403   C     0.73371   0.83332   0.15470   0.00000  Uiso   1.00
C404   C     0.93296   0.83335   0.17863   0.00000  Uiso   1.00
C405   C     0.67867   0.83333   0.14826   0.00000  Uiso   1.00
C406   C     0.98800   0.83334   0.18508   0.00000  Uiso   1.00
C407   C     0.86154   0.68710   0.13595   0.00000  Uiso   1.00
C408   C     0.80514   0.97957   0.19740   0.00000  Uiso   1.00
C409   C     0.86130   0.97757   0.13753   0.00000  Uiso   1.00
C410   C     0.80537   0.68910   0.19581   0.00000  Uiso   1.00
C411   C     0.83301   0.95743   0.16765   0.00000  Uiso   1.00
C412   C     0.83365   0.70924   0.16569   0.00000  Uiso   1.00
C413   C     0.86650   0.85919   0.02879   0.00000  Uiso   1.00
C414   C     0.80017   0.80747   0.30454   0.00000  Uiso   1.00
C415   C     0.86636   0.85896   0.31386   0.00000  Uiso   1.00
C416   C     0.80031   0.80770   0.01948   0.00000  Uiso   1.00
H417   H     0.99138   0.83334   0.11332   0.00000  Uiso   1.00
H418   H     0.67528   0.83333   0.22001   0.00000  Uiso   1.00
H419   H     0.88340   0.96002   0.11536   0.00000  Uiso   1.00
H420   H     0.78327   0.70665   0.21798   0.00000  Uiso   1.00
H421   H     0.89263   0.87925   0.29888   0.00000  Uiso   1.00
H422   H     0.77405   0.78740   0.03446   0.00000  Uiso   1.00
N423   N     0.83332   0.83332   0.28573   0.00000  Uiso   1.00
N424   N     0.83335   0.83334   0.04760   0.00000  Uiso   1.00
O425   O     0.83333   0.77225   0.20487   0.00000  Uiso   1.00
O426   O     0.83334   0.89442   0.12846   0.00000  Uiso   1.00
O427   O     0.83333   0.77226   0.12843   0.00000  Uiso   1.00
O428   O     0.83334   0.89441   0.20490   0.00000  Uiso   1.00
O429   O     0.75725   0.83333   0.19595   0.00000  Uiso   1.00
O430   O     0.90942   0.83334   0.13739   0.00000  Uiso   1.00
O431   O     0.75725   0.83334   0.11950   0.00000  Uiso   1.00
O432   O     0.90942   0.83333   0.21383   0.00000  Uiso   1.00
Zn433  Zn    0.83333   0.83333   0.21771   0.00000  Uiso   1.00
Zn434  Zn    0.83333   0.83334   0.11563   0.00000  Uiso   1.00
N435   N     0.89153   0.70774   0.10611   0.00000  Uiso   1.00
H436   H     0.92992   0.69773   0.10976   0.00000  Uiso   1.00
C437   C     0.86733   0.70749   0.05864   0.00000  Uiso   1.00
H438   H     0.86638   0.67531   0.04419   0.00000  Uiso   1.00
H439   H     0.89033   0.72772   0.03862   0.00000  Uiso   1.00
H440   H     0.82666   0.71970   0.05532   0.00000  Uiso   1.00
N441   N     0.77517   0.95894   0.22726   0.00000  Uiso   1.00
H442   H     0.73680   0.96900   0.22367   0.00000  Uiso   1.00
C443   C     0.79944   0.95915   0.27471   0.00000  Uiso   1.00
H444   H     0.80065   0.99135   0.28914   0.00000  Uiso   1.00
H445   H     0.84003   0.94677   0.27798   0.00000  Uiso   1.00
H446   H     0.77635   0.93905   0.29478   0.00000  Uiso   1.00
O447   O     0.89958   0.88515   0.05740   0.00000  Uiso   1.00
H448   H     0.92066   0.90191   0.03871   0.00000  Uiso   1.00
O449   O     0.76709   0.78151   0.27594   0.00000  Uiso   1.00
H450   H     0.74601   0.76476   0.29462   0.00000  Uiso   1.00
C451   C     0.16720   0.08671   0.49974   0.00000  Uiso   1.00
C452   C     0.16613   0.24663   0.50026   0.00000  Uiso   1.00
C453   C     0.06704   0.16665   0.48803   0.00000  Uiso   1.00
C454   C     0.26629   0.16668   0.51197   0.00000  Uiso   1.00
C455   C     0.01200   0.16666   0.48159   0.00000  Uiso   1.00
C456   C     0.32133   0.16667   0.51841   0.00000  Uiso   1.00
C457   C     0.19487   0.02044   0.46928   0.00000  Uiso   1.00
C458   C     0.13847   0.31290   0.53073   0.00000  Uiso   1.00
C459   C     0.19463   0.31091   0.47087   0.00000  Uiso   1.00
C460   C     0.13870   0.02243   0.52914   0.00000  Uiso   1.00
C461   C     0.16634   0.29076   0.50098   0.00000  Uiso   1.00
C462   C     0.16699   0.04257   0.49902   0.00000  Uiso   1.00
C463   C     0.19984   0.19253   0.36213   0.00000  Uiso   1.00
C464   C     0.13350   0.14081   0.63787   0.00000  Uiso   1.00
C465   C     0.19969   0.19229   0.64719   0.00000  Uiso   1.00
C466   C     0.13365   0.14103   0.35281   0.00000  Uiso   1.00
H467   H     0.32472   0.16667   0.44666   0.00000  Uiso   1.00
H468   H     0.00862   0.16666   0.55334   0.00000  Uiso   1.00
H469   H     0.21673   0.29336   0.44869   0.00000  Uiso   1.00
H470   H     0.11661   0.03998   0.55131   0.00000  Uiso   1.00
H471   H     0.22596   0.21259   0.63221   0.00000  Uiso   1.00
H472   H     0.10739   0.12073   0.36779   0.00000  Uiso   1.00
N473   N     0.16665   0.16666   0.61907   0.00000  Uiso   1.00
N474   N     0.16668   0.16668   0.38093   0.00000  Uiso   1.00
O475   O     0.16666   0.10558   0.53821   0.00000  Uiso   1.00
O476   O     0.16667   0.22775   0.46179   0.00000  Uiso   1.00
O477   O     0.16666   0.10559   0.46176   0.00000  Uiso   1.00
O478   O     0.16667   0.22774   0.53824   0.00000  Uiso   1.00
O479   O     0.09058   0.16666   0.52928   0.00000  Uiso   1.00
O480   O     0.24275   0.16667   0.47072   0.00000  Uiso   1.00
O481   O     0.09058   0.16667   0.45284   0.00000  Uiso   1.00
O482   O     0.24275   0.16666   0.54716   0.00000  Uiso   1.00
Zn483  Zn    0.16667   0.16666   0.55104   0.00000  Uiso   1.00
Zn484  Zn    0.16667   0.16667   0.44896   0.00000  Uiso   1.00
N485   N     0.22486   0.04108   0.43944   0.00000  Uiso   1.00
H486   H     0.26326   0.03107   0.44309   0.00000  Uiso   1.00
C487   C     0.20067   0.04082   0.39197   0.00000  Uiso   1.00
H488   H     0.19971   0.00864   0.37752   0.00000  Uiso   1.00
H489   H     0.22367   0.06106   0.37196   0.00000  Uiso   1.00
H490   H     0.15999   0.05303   0.38865   0.00000  Uiso   1.00
N491   N     0.10850   0.29227   0.56060   0.00000  Uiso   1.00
H492   H     0.07013   0.30234   0.55701   0.00000  Uiso   1.00
C493   C     0.13278   0.29249   0.60804   0.00000  Uiso   1.00
H494   H     0.13399   0.32468   0.62247   0.00000  Uiso   1.00
H495   H     0.17336   0.28010   0.61132   0.00000  Uiso   1.00
H496   H     0.10968   0.27238   0.62811   0.00000  Uiso   1.00
O497   O     0.23291   0.21849   0.39073   0.00000  Uiso   1.00
H498   H     0.25399   0.23524   0.37204   0.00000  Uiso   1.00
O499   O     0.10043   0.11484   0.60927   0.00000  Uiso   1.00
H500   H     0.07934   0.09809   0.62796   0.00000  Uiso   1.00
C501   C     0.50054   0.08671   0.49974   0.00000  Uiso   1.00
C502   C     0.49946   0.24663   0.50026   0.00000  Uiso   1.00
C503   C     0.40037   0.16665   0.48803   0.00000  Uiso   1.00
C504   C     0.59963   0.16668   0.51197   0.00000  Uiso   1.00
C505   C     0.34533   0.16666   0.48159   0.00000  Uiso   1.00
C506   C     0.65467   0.16667   0.51841   0.00000  Uiso   1.00
C507   C     0.52820   0.02044   0.46928   0.00000  Uiso   1.00
C508   C     0.47180   0.31290   0.53073   0.00000  Uiso   1.00
C509   C     0.52797   0.31091   0.47087   0.00000  Uiso   1.00
C510   C     0.47203   0.02243   0.52914   0.00000  Uiso   1.00
C511   C     0.49968   0.29076   0.50098   0.00000  Uiso   1.00
C512   C     0.50032   0.04257   0.49902   0.00000  Uiso   1.00
C513   C     0.53317   0.19253   0.36213   0.00000  Uiso   1.00
C514   C     0.46683   0.14081   0.63787   0.00000  Uiso   1.00
C515   C     0.53303   0.19229   0.64719   0.00000  Uiso   1.00
C516   C     0.46698   0.14103   0.35281   0.00000  Uiso   1.00
H517   H     0.65805   0.16667   0.44666   0.00000  Uiso   1.00
H518   H     0.34195   0.16666   0.55334   0.00000  Uiso   1.00
H519   H     0.55006   0.29336   0.44869   0.00000  Uiso   1.00
H520   H     0.44994   0.03998   0.55131   0.00000  Uiso   1.00
H521   H     0.55930   0.21259   0.63221   0.00000  Uiso   1.00
H522   H     0.44072   0.12073   0.36779   0.00000  Uiso   1.00
N523   N     0.49999   0.16666   0.61907   0.00000  Uiso   1.00
N524   N     0.50001   0.16668   0.38093   0.00000  Uiso   1.00
O525   O     0.50000   0.10558   0.53821   0.00000  Uiso   1.00
O526   O     0.50000   0.22775   0.46179   0.00000  Uiso   1.00
O527   O     0.50000   0.10559   0.46176   0.00000  Uiso   1.00
O528   O     0.50000   0.22774   0.53824   0.00000  Uiso   1.00
O529   O     0.42392   0.16666   0.52928   0.00000  Uiso   1.00
O530   O     0.57608   0.16667   0.47072   0.00000  Uiso   1.00
O531   O     0.42392   0.16667   0.45284   0.00000  Uiso   1.00
O532   O     0.57608   0.16666   0.54716   0.00000  Uiso   1.00
Zn533  Zn    0.50000   0.16666   0.55104   0.00000  Uiso   1.00
Zn534  Zn    0.50000   0.16667   0.44896   0.00000  Uiso   1.00
N535   N     0.55820   0.04108   0.43944   0.00000  Uiso   1.00
H536   H     0.59659   0.03107   0.44309   0.00000  Uiso   1.00
C537   C     0.53400   0.04082   0.39197   0.00000  Uiso   1.00
H538   H     0.53305   0.00864   0.37752   0.00000  Uiso   1.00
H539   H     0.55700   0.06106   0.37196   0.00000  Uiso   1.00
H540   H     0.49333   0.05303   0.38865   0.00000  Uiso   1.00
N541   N     0.44183   0.29227   0.56060   0.00000  Uiso   1.00
H542   H     0.40346   0.30234   0.55701   0.00000  Uiso   1.00
C543   C     0.46611   0.29249   0.60804   0.00000  Uiso   1.00
H544   H     0.46732   0.32468   0.62247   0.00000  Uiso   1.00
H545   H     0.50669   0.28010   0.61132   0.00000  Uiso   1.00
H546   H     0.44301   0.27238   0.62811   0.00000  Uiso   1.00
O547   O     0.56624   0.21849   0.39073   0.00000  Uiso   1.00
H548   H     0.58733   0.23524   0.37204   0.00000  Uiso   1.00
O549   O     0.43376   0.11484   0.60927   0.00000  Uiso   1.00
H550   H     0.41267   0.09809   0.62796   0.00000  Uiso   1.00
C551   C     0.83387   0.08671   0.49974   0.00000  Uiso   1.00
C552   C     0.83280   0.24663   0.50026   0.00000  Uiso   1.00
C553   C     0.73371   0.16665   0.48803   0.00000  Uiso   1.00
C554   C     0.93296   0.16668   0.51197   0.00000  Uiso   1.00
C555   C     0.67867   0.16666   0.48159   0.00000  Uiso   1.00
C556   C     0.98800   0.16667   0.51841   0.00000  Uiso   1.00
C557   C     0.86154   0.02044   0.46928   0.00000  Uiso   1.00
C558   C     0.80514   0.31290   0.53073   0.00000  Uiso   1.00
C559   C     0.86130   0.31091   0.47087   0.00000  Uiso   1.00
C560   C     0.80537   0.02243   0.52914   0.00000  Uiso   1.00
C561   C     0.83301   0.29076   0.50098   0.00000  Uiso   1.00
C562   C     0.83365   0.04257   0.49902   0.00000  Uiso   1.00
C563   C     0.86650   0.19253   0.36213   0.00000  Uiso   1.00
C564   C     0.80017   0.14081   0.63787   0.00000  Uiso   1.00
C565   C     0.86636   0.19229   0.64719   0.00000  Uiso   1.00
C566   C     0.80031   0.14103   0.35281   0.00000  Uiso   1.00
H567   H     0.99138   0.16667   0.44666   0.00000  Uiso   1.00
H568   H     0.67528   0.16666   0.55334   0.00000  Uiso   1.00
H569   H     0.88340   0.29336   0.44869   0.00000  Uiso   1.00
H570   H     0.78327   0.03998   0.55131   0.00000  Uiso   1.00
H571   H     0.89263   0.21259   0.63221   0.00000  Uiso   1.00
H572   H     0.77405   0.12073   0.36779   0.00000  Uiso   1.00
N573   N     0.83332   0.16666   0.61907   0.00000  Uiso   1.00
N574   N     0.83335   0.16668   0.38093   0.00000  Uiso   1.00
O575   O     0.83333   0.10558   0.53821   0.00000  Uiso   1.00
O576   O     0.83334   0.22775   0.46179   0.00000  Uiso   1.00
O577   O     0.83333   0.10559   0.46176   0.00000  Uiso   1.00
O578   O     0.83334   0.22774   0.53824   0.00000  Uiso   1.00
O579   O     0.75725   0.16666   0.52928   0.00000  Uiso   1.00
O580   O     0.90942   0.16667   0.47072   0.00000  Uiso   1.00
O581   O     0.75725   0.16667   0.45284   0.00000  Uiso   1.00
O582   O     0.90942   0.16666   0.54716   0.00000  Uiso   1.00
Zn583  Zn    0.83333   0.16666   0.55104   0.00000  Uiso   1.00
Zn584  Zn    0.83333   0.16667   0.44896   0.00000  Uiso   1.00
N585   N     0.89153   0.04108   0.43944   0.00000  Uiso   1.00
H586   H     0.92992   0.03107   0.44309   0.00000  Uiso   1.00
C587   C     0.86733   0.04082   0.39197   0.00000  Uiso   1.00
H588   H     0.86638   0.00864   0.37752   0.00000  Uiso   1.00
H589   H     0.89033   0.06106   0.37196   0.00000  Uiso   1.00
H590   H     0.82666   0.05303   0.38865   0.00000  Uiso   1.00
N591   N     0.77517   0.29227   0.56060   0.00000  Uiso   1.00
H592   H     0.73680   0.30234   0.55701   0.00000  Uiso   1.00
C593   C     0.79944   0.29249   0.60804   0.00000  Uiso   1.00
H594   H     0.80065   0.32468   0.62247   0.00000  Uiso   1.00
H595   H     0.84003   0.28010   0.61132   0.00000  Uiso   1.00
H596   H     0.77635   0.27238   0.62811   0.00000  Uiso   1.00
O597   O     0.89958   0.21849   0.39073   0.00000  Uiso   1.00
H598   H     0.92066   0.23524   0.37204   0.00000  Uiso   1.00
O599   O     0.76709   0.11484   0.60927   0.00000  Uiso   1.00
H600   H     0.74601   0.09809   0.62796   0.00000  Uiso   1.00
C601   C     0.16720   0.42004   0.49974   0.00000  Uiso   1.00
C602   C     0.16613   0.57996   0.50026   0.00000  Uiso   1.00
C603   C     0.06704   0.49998   0.48803   0.00000  Uiso   1.00
C604   C     0.26629   0.50002   0.51197   0.00000  Uiso   1.00
C605   C     0.01200   0.50000   0.48159   0.00000  Uiso   1.00
C606   C     0.32133   0.50000   0.51841   0.00000  Uiso   1.00
C607   C     0.19487   0.35377   0.46928   0.00000  Uiso   1.00
C608   C     0.13847   0.64623   0.53073   0.00000  Uiso   1.00
C609   C     0.19463   0.64424   0.47087   0.00000  Uiso   1.00
C610   C     0.13870   0.35576   0.52914   0.00000  Uiso   1.00
C611   C     0.16634   0.62409   0.50098   0.00000  Uiso   1.00
C612   C     0.16699   0.37591   0.49902   0.00000  Uiso   1.00
C613   C     0.19984   0.52586   0.36213   0.00000  Uiso   1.00
C614   C     0.13350   0.47414   0.63787   0.00000  Uiso   1.00
C615   C     0.19969   0.52563   0.64719   0.00000  Uiso   1.00
C616   C     0.13365   0.47437   0.35281   0.00000  Uiso   1.00
H617   H     0.32472   0.50001   0.44666   0.00000  Uiso   1.00
H618   H     0.00862   0.49999   0.55334   0.00000  Uiso   1.00
H619   H     0.21673   0.62669   0.44869   0.00000  Uiso   1.00
H620   H     0.11661   0.37332   0.55131   0.00000  Uiso   1.00
H621   H     0.22596   0.54592   0.63221   0.00000  Uiso   1.00
H622   H     0.10739   0.45407   0.36779   0.00000  Uiso   1.00
N623   N     0.16665   0.49999   0.61907   0.00000  Uiso   1.00
N624   N     0.16668   0.50001   0.38093   0.00000  Uiso   1.00
O625   O     0.16666   0.43892   0.53821   0.00000  Uiso   1.00
O626   O     0.16667   0.56108   0.46179   0.00000  Uiso   1.00
O627   O     0.16666   0.43893   0.46176   0.00000  Uiso   1.00
O628   O     0.16667   0.56107   0.53824   0.00000  Uiso   1.00
O629   O     0.09058   0.50000   0.52928   0.00000  Uiso   1.00
O630   O     0.24275   0.50000   0.47072   0.00000  Uiso   1.00
O631   O     0.09058   0.50000   0.45284   0.00000  Uiso   1.00
O632   O     0.24275   0.50000   0.54716   0.00000  Uiso   1.00
Zn633  Zn    0.16667   0.49999   0.55104   0.00000  Uiso   1.00
Zn634  Zn    0.16667   0.50001   0.44896   0.00000  Uiso   1.00
N635   N     0.22486   0.37441   0.43944   0.00000  Uiso   1.00
H636   H     0.26326   0.36440   0.44309   0.00000  Uiso   1.00
C637   C     0.20067   0.37416   0.39197   0.00000  Uiso   1.00
H638   H     0.19971   0.34198   0.37752   0.00000  Uiso   1.00
H639   H     0.22367   0.39439   0.37196   0.00000  Uiso   1.00
H640   H     0.15999   0.38636   0.38865   0.00000  Uiso   1.00
N641   N     0.10850   0.62561   0.56060   0.00000  Uiso   1.00
H642   H     0.07013   0.63567   0.55701   0.00000  Uiso   1.00
C643   C     0.13278   0.62582   0.60804   0.00000  Uiso   1.00
H644   H     0.13399   0.65802   0.62247   0.00000  Uiso   1.00
H645   H     0.17336   0.61344   0.61132   0.00000  Uiso   1.00
H646   H     0.10968   0.60572   0.62811   0.00000  Uiso   1.00
O647   O     0.23291   0.55182   0.39073   0.00000  Uiso   1.00
H648   H     0.25399   0.56858   0.37204   0.00000  Uiso   1.00
O649   O     0.10043   0.44818   0.60927   0.00000  Uiso   1.00
H650   H     0.07934   0.43142   0.62796   0.00000  Uiso   1.00
C651   C     0.50054   0.42004   0.49974   0.00000  Uiso   1.00
C652   C     0.49946   0.57996   0.50026   0.00000  Uiso   1.00
C653   C     0.40037   0.49998   0.48803   0.00000  Uiso   1.00
C654   C     0.59963   0.50002   0.51197   0.00000  Uiso   1.00
C655   C     0.34533   0.50000   0.48159   0.00000  Uiso   1.00
C656   C     0.65467   0.50000   0.51841   0.00000  Uiso   1.00
C657   C     0.52820   0.35377   0.46928   0.00000  Uiso   1.00
C658   C     0.47180   0.64623   0.53073   0.00000  Uiso   1.00
C659   C     0.52797   0.64424   0.47087   0.00000  Uiso   1.00
C660   C     0.47203   0.35576   0.52914   0.00000  Uiso   1.00
C661   C     0.49968   0.62409   0.50098   0.00000  Uiso   1.00
C662   C     0.50032   0.37591   0.49902   0.00000  Uiso   1.00
C663   C     0.53317   0.52586   0.36213   0.00000  Uiso   1.00
C664   C     0.46683   0.47414   0.63787   0.00000  Uiso   1.00
C665   C     0.53303   0.52563   0.64719   0.00000  Uiso   1.00
C666   C     0.46698   0.47437   0.35281   0.00000  Uiso   1.00
H667   H     0.65805   0.50001   0.44666   0.00000  Uiso   1.00
H668   H     0.34195   0.49999   0.55334   0.00000  Uiso   1.00
H669   H     0.55006   0.62669   0.44869   0.00000  Uiso   1.00
H670   H     0.44994   0.37332   0.55131   0.00000  Uiso   1.00
H671   H     0.55930   0.54592   0.63221   0.00000  Uiso   1.00
H672   H     0.44072   0.45407   0.36779   0.00000  Uiso   1.00
N673   N     0.49999   0.49999   0.61907   0.00000  Uiso   1.00
N674   N     0.50001   0.50001   0.38093   0.00000  Uiso   1.00
O675   O     0.50000   0.43892   0.53821   0.00000  Uiso   1.00
O676   O     0.50000   0.56108   0.46179   0.00000  Uiso   1.00
O677   O     0.50000   0.43893   0.46176   0.00000  Uiso   1.00
O678   O     0.50000   0.56107   0.53824   0.00000  Uiso   1.00
O679   O     0.42392   0.50000   0.52928   0.00000  Uiso   1.00
O680   O     0.57608   0.50000   0.47072   0.00000  Uiso   1.00
O681   O     0.42392   0.50000   0.45284   0.00000  Uiso   1.00
O682   O     0.57608   0.50000   0.54716   0.00000  Uiso   1.00
Zn683  Zn    0.50000   0.49999   0.55104   0.00000  Uiso   1.00
Zn684  Zn    0.50000   0.50001   0.44896   0.00000  Uiso   1.00
N685   N     0.55820   0.37441   0.43944   0.00000  Uiso   1.00
H686   H     0.59659   0.36440   0.44309   0.00000  Uiso   1.00
C687   C     0.53400   0.37416   0.39197   0.00000  Uiso   1.00
H688   H     0.53305   0.34198   0.37752   0.00000  Uiso   1.00
H689   H     0.55700   0.39439   0.37196   0.00000  Uiso   1.00
H690   H     0.49333   0.38636   0.38865   0.00000  Uiso   1.00
N691   N     0.44183   0.62561   0.56060   0.00000  Uiso   1.00
H692   H     0.40346   0.63567   0.55701   0.00000  Uiso   1.00
C693   C     0.46611   0.62582   0.60804   0.00000  Uiso   1.00
H694   H     0.46732   0.65802   0.62247   0.00000  Uiso   1.00
H695   H     0.50669   0.61344   0.61132   0.00000  Uiso   1.00
H696   H     0.44301   0.60572   0.62811   0.00000  Uiso   1.00
O697   O     0.56624   0.55182   0.39073   0.00000  Uiso   1.00
H698   H     0.58733   0.56858   0.37204   0.00000  Uiso   1.00
O699   O     0.43376   0.44818   0.60927   0.00000  Uiso   1.00
H700   H     0.41267   0.43142   0.62796   0.00000  Uiso   1.00
C701   C     0.83387   0.42004   0.49974   0.00000  Uiso   1.00
C702   C     0.83280   0.57996   0.50026   0.00000  Uiso   1.00
C703   C     0.73371   0.49998   0.48803   0.00000  Uiso   1.00
C704   C     0.93296   0.50002   0.51197   0.00000  Uiso   1.00
C705   C     0.67867   0.50000   0.48159   0.00000  Uiso   1.00
C706   C     0.98800   0.50000   0.51841   0.00000  Uiso   1.00
C707   C     0.86154   0.35377   0.46928   0.00000  Uiso   1.00
C708   C     0.80514   0.64623   0.53073   0.00000  Uiso   1.00
C709   C     0.86130   0.64424   0.47087   0.00000  Uiso   1.00
C710   C     0.80537   0.35576   0.52914   0.00000  Uiso   1.00
C711   C     0.83301   0.62409   0.50098   0.00000  Uiso   1.00
C712   C     0.83365   0.37591   0.49902   0.00000  Uiso   1.00
C713   C     0.86650   0.52586   0.36213   0.00000  Uiso   1.00
C714   C     0.80017   0.47414   0.63787   0.00000  Uiso   1.00
C715   C     0.86636   0.52563   0.64719   0.00000  Uiso   1.00
C716   C     0.80031   0.47437   0.35281   0.00000  Uiso   1.00
H717   H     0.99138   0.50001   0.44666   0.00000  Uiso   1.00
H718   H     0.67528   0.49999   0.55334   0.00000  Uiso   1.00
H719   H     0.88340   0.62669   0.44869   0.00000  Uiso   1.00
H720   H     0.78327   0.37332   0.55131   0.00000  Uiso   1.00
H721   H     0.89263   0.54592   0.63221   0.00000  Uiso   1.00
H722   H     0.77405   0.45407   0.36779   0.00000  Uiso   1.00
N723   N     0.83332   0.49999   0.61907   0.00000  Uiso   1.00
N724   N     0.83335   0.50001   0.38093   0.00000  Uiso   1.00
O725   O     0.83333   0.43892   0.53821   0.00000  Uiso   1.00
O726   O     0.83334   0.56108   0.46179   0.00000  Uiso   1.00
O727   O     0.83333   0.43893   0.46176   0.00000  Uiso   1.00
O728   O     0.83334   0.56107   0.53824   0.00000  Uiso   1.00
O729   O     0.75725   0.50000   0.52928   0.00000  Uiso   1.00
O730   O     0.90942   0.50000   0.47072   0.00000  Uiso   1.00
O731   O     0.75725   0.50000   0.45284   0.00000  Uiso   1.00
O732   O     0.90942   0.50000   0.54716   0.00000  Uiso   1.00
Zn733  Zn    0.83333   0.49999   0.55104   0.00000  Uiso   1.00
Zn734  Zn    0.83333   0.50001   0.44896   0.00000  Uiso   1.00
N735   N     0.89153   0.37441   0.43944   0.00000  Uiso   1.00
H736   H     0.92992   0.36440   0.44309   0.00000  Uiso   1.00
C737   C     0.86733   0.37416   0.39197   0.00000  Uiso   1.00
H738   H     0.86638   0.34198   0.37752   0.00000  Uiso   1.00
H739   H     0.89033   0.39439   0.37196   0.00000  Uiso   1.00
H740   H     0.82666   0.38636   0.38865   0.00000  Uiso   1.00
N741   N     0.77517   0.62561   0.56060   0.00000  Uiso   1.00
H742   H     0.73680   0.63567   0.55701   0.00000  Uiso   1.00
C743   C     0.79944   0.62582   0.60804   0.00000  Uiso   1.00
H744   H     0.80065   0.65802   0.62247   0.00000  Uiso   1.00
H745   H     0.84003   0.61344   0.61132   0.00000  Uiso   1.00
H746   H     0.77635   0.60572   0.62811   0.00000  Uiso   1.00
O747   O     0.89958   0.55182   0.39073   0.00000  Uiso   1.00
H748   H     0.92066   0.56858   0.37204   0.00000  Uiso   1.00
O749   O     0.76709   0.44818   0.60927   0.00000  Uiso   1.00
H750   H     0.74601   0.43142   0.62796   0.00000  Uiso   1.00
C751   C     0.16720   0.75337   0.49974   0.00000  Uiso   1.00
C752   C     0.16613   0.91329   0.50026   0.00000  Uiso   1.00
C753   C     0.06704   0.83332   0.48803   0.00000  Uiso   1.00
C754   C     0.26629   0.83335   0.51197   0.00000  Uiso   1.00
C755   C     0.01200   0.83333   0.48159   0.00000  Uiso   1.00
C756   C     0.32133   0.83334   0.51841   0.00000  Uiso   1.00
C757   C     0.19487   0.68710   0.46928   0.00000  Uiso   1.00
C758   C     0.13847   0.97957   0.53073   0.00000  Uiso   1.00
C759   C     0.19463   0.97757   0.47087   0.00000  Uiso   1.00
C760   C     0.13870   0.68910   0.52914   0.00000  Uiso   1.00
C761   C     0.16634   0.95743   0.50098   0.00000  Uiso   1.00
C762   C     0.16699   0.70924   0.49902   0.00000  Uiso   1.00
C763   C     0.19984   0.85919   0.36213   0.00000  Uiso   1.00
C764   C     0.13350   0.80747   0.63787   0.00000  Uiso   1.00
C765   C     0.19969   0.85896   0.64719   0.00000  Uiso   1.00
C766   C     0.13365   0.80770   0.35281   0.00000  Uiso   1.00
H767   H     0.32472   0.83334   0.44666   0.00000  Uiso   1.00
H768   H     0.00862   0.83333   0.55334   0.00000  Uiso   1.00
H769   H     0.21673   0.96002   0.44869   0.00000  Uiso   1.00
H770   H     0.11661   0.70665   0.55131   0.00000  Uiso   1.00
H771   H     0.22596   0.87925   0.63221   0.00000  Uiso   1.00
H772   H     0.10739   0.78740   0.36779   0.00000  Uiso   1.00
N773   N     0.16665   0.83332   0.61907   0.00000  Uiso   1.00
N774   N     0.16668   0.83334   0.38093   0.00000  Uiso   1.00
O775   O     0.16666   0.77225   0.53821   0.00000  Uiso   1.00
O776   O     0.16667   0.89442   0.46179   0.00000  Uiso   1.00
O777   O     0.16666   0.77226   0.46176   0.00000  Uiso   1.00
O778   O     0.16667   0.89441   0.53824   0.00000  Uiso   1.00
O779   O     0.09058   0.83333   0.52928   0.00000  Uiso   1.00
O780   O     0.24275   0.83334   0.47072   0.00000  Uiso   1.00
O781   O     0.09058   0.83334   0.45284   0.00000  Uiso   1.00
O782   O     0.24275   0.83333   0.54716   0.00000  Uiso   1.00
Zn783  Zn    0.16667   0.83333   0.55104   0.00000  Uiso   1.00
Zn784  Zn    0.16667   0.83334   0.44896   0.00000  Uiso   1.00
N785   N     0.22486   0.70774   0.43944   0.00000  Uiso   1.00
H786   H     0.26326   0.69773   0.44309   0.00000  Uiso   1.00
C787   C     0.20067   0.70749   0.39197   0.00000  Uiso   1.00
H788   H     0.19971   0.67531   0.37752   0.00000  Uiso   1.00
H789   H     0.22367   0.72772   0.37196   0.00000  Uiso   1.00
H790   H     0.15999   0.71970   0.38865   0.00000  Uiso   1.00
N791   N     0.10850   0.95894   0.56060   0.00000  Uiso   1.00
H792   H     0.07013   0.96900   0.55701   0.00000  Uiso   1.00
C793   C     0.13278   0.95915   0.60804   0.00000  Uiso   1.00
H794   H     0.13399   0.99135   0.62247   0.00000  Uiso   1.00
H795   H     0.17336   0.94677   0.61132   0.00000  Uiso   1.00
H796   H     0.10968   0.93905   0.62811   0.00000  Uiso   1.00
O797   O     0.23291   0.88515   0.39073   0.00000  Uiso   1.00
H798   H     0.25399   0.90191   0.37204   0.00000  Uiso   1.00
O799   O     0.10043   0.78151   0.60927   0.00000  Uiso   1.00
H800   H     0.07934   0.76476   0.62796   0.00000  Uiso   1.00
C801   C     0.50054   0.75337   0.49974   0.00000  Uiso   1.00
C802   C     0.49946   0.91329   0.50026   0.00000  Uiso   1.00
C803   C     0.40037   0.83332   0.48803   0.00000  Uiso   1.00
C804   C     0.59963   0.83335   0.51197   0.00000  Uiso   1.00
C805   C     0.34533   0.83333   0.48159   0.00000  Uiso   1.00
C806   C     0.65467   0.83334   0.51841   0.00000  Uiso   1.00
C807   C     0.52820   0.68710   0.46928   0.00000  Uiso   1.00
C808   C     0.47180   0.97957   0.53073   0.00000  Uiso   1.00
C809   C     0.52797   0.97757   0.47087   0.00000  Uiso   1.00
C810   C     0.47203   0.68910   0.52914   0.00000  Uiso   1.00
C811   C     0.49968   0.95743   0.50098   0.00000  Uiso   1.00
C812   C     0.50032   0.70924   0.49902   0.00000  Uiso   1.00
C813   C     0.53317   0.85919   0.36213   0.00000  Uiso   1.00
C814   C     0.46683   0.80747   0.63787   0.00000  Uiso   1.00
C815   C     0.53303   0.85896   0.64719   0.00000  Uiso   1.00
C816   C     0.46698   0.80770   0.35281   0.00000  Uiso   1.00
H817   H     0.65805   0.83334   0.44666   0.00000  Uiso   1.00
H818   H     0.34195   0.83333   0.55334   0.00000  Uiso   1.00
H819   H     0.55006   0.96002   0.44869   0.00000  Uiso   1.00
H820   H     0.44994   0.70665   0.55131   0.00000  Uiso   1.00
H821   H     0.55930   0.87925   0.63221   0.00000  Uiso   1.00
H822   H     0.44072   0.78740   0.36779   0.00000  Uiso   1.00
N823   N     0.49999   0.83332   0.61907   0.00000  Uiso   1.00
N824   N     0.50001   0.83334   0.38093   0.00000  Uiso   1.00
O825   O     0.50000   0.77225   0.53821   0.00000  Uiso   1.00
O826   O     0.50000   0.89442   0.46179   0.00000  Uiso   1.00
O827   O     0.50000   0.77226   0.46176   0.00000  Uiso   1.00
O828   O     0.50000   0.89441   0.53824   0.00000  Uiso   1.00
O829   O     0.42392   0.83333   0.52928   0.00000  Uiso   1.00
O830   O     0.57608   0.83334   0.47072   0.00000  Uiso   1.00
O831   O     0.42392   0.83334   0.45284   0.00000  Uiso   1.00
O832   O     0.57608   0.83333   0.54716   0.00000  Uiso   1.00
Zn833  Zn    0.50000   0.83333   0.55104   0.00000  Uiso   1.00
Zn834  Zn    0.50000   0.83334   0.44896   0.00000  Uiso   1.00
N835   N     0.55820   0.70774   0.43944   0.00000  Uiso   1.00
H836   H     0.59659   0.69773   0.44309   0.00000  Uiso   1.00
C837   C     0.53400   0.70749   0.39197   0.00000  Uiso   1.00
H838   H     0.53305   0.67531   0.37752   0.00000  Uiso   1.00
H839   H     0.55700   0.72772   0.37196   0.00000  Uiso   1.00
H840   H     0.49333   0.71970   0.38865   0.00000  Uiso   1.00
N841   N     0.44183   0.95894   0.56060   0.00000  Uiso   1.00
H842   H     0.40346   0.96900   0.55701   0.00000  Uiso   1.00
C843   C     0.46611   0.95915   0.60804   0.00000  Uiso   1.00
H844   H     0.46732   0.99135   0.62247   0.00000  Uiso   1.00
H845   H     0.50669   0.94677   0.61132   0.00000  Uiso   1.00
H846   H     0.44301   0.93905   0.62811   0.00000  Uiso   1.00
O847   O     0.56624   0.88515   0.39073   0.00000  Uiso   1.00
H848   H     0.58733   0.90191   0.37204   0.00000  Uiso   1.00
O849   O     0.43376   0.78151   0.60927   0.00000  Uiso   1.00
H850   H     0.41267   0.76476   0.62796   0.00000  Uiso   1.00
C851   C     0.83387   0.75337   0.49974   0.00000  Uiso   1.00
C852   C     0.83280   0.91329   0.50026   0.00000  Uiso   1.00
C853   C     0.73371   0.83332   0.48803   0.00000  Uiso   1.00
C854   C     0.93296   0.83335   0.51197   0.00000  Uiso   1.00
C855   C     0.67867   0.83333   0.48159   0.00000  Uiso   1.00
C856   C     0.98800   0.83334   0.51841   0.00000  Uiso   1.00
C857   C     0.86154   0.68710   0.46928   0.00000  Uiso   1.00
C858   C     0.80514   0.97957   0.53073   0.00000  Uiso   1.00
C859   C     0.86130   0.97757   0.47087   0.00000  Uiso   1.00
C860   C     0.80537   0.68910   0.52914   0.00000  Uiso   1.00
C861   C     0.83301   0.95743   0.50098   0.00000  Uiso   1.00
C862   C     0.83365   0.70924   0.49902   0.00000  Uiso   1.00
C863   C     0.86650   0.85919   0.36213   0.00000  Uiso   1.00
C864   C     0.80017   0.80747   0.63787   0.00000  Uiso   1.00
C865   C     0.86636   0.85896   0.64719   0.00000  Uiso   1.00
C866   C     0.80031   0.80770   0.35281   0.00000  Uiso   1.00
H867   H     0.99138   0.83334   0.44666   0.00000  Uiso   1.00
H868   H     0.67528   0.83333   0.55334   0.00000  Uiso   1.00
H869   H     0.88340   0.96002   0.44869   0.00000  Uiso   1.00
H870   H     0.78327   0.70665   0.55131   0.00000  Uiso   1.00
H871   H     0.89263   0.87925   0.63221   0.00000  Uiso   1.00
H872   H     0.77405   0.78740   0.36779   0.00000  Uiso   1.00
N873   N     0.83332   0.83332   0.61907   0.00000  Uiso   1.00
N874   N     0.83335   0.83334   0.38093   0.00000  Uiso   1.00
O875   O     0.83333   0.77225   0.53821   0.00000  Uiso   1.00
O876   O     0.83334   0.89442   0.46179   0.00000  Uiso   1.00
O877   O     0.83333   0.77226   0.46176   0.00000  Uiso   1.00
O878   O     0.83334   0.89441   0.53824   0.00000  Uiso   1.00
O879   O     0.75725   0.83333   0.52928   0.00000  Uiso   1.00
O880   O     0.90942   0.83334   0.47072   0.00000  Uiso   1.00
O881   O     0.75725   0.83334   0.45284   0.00000  Uiso   1.00
O882   O     0.90942   0.83333   0.54716   0.00000  Uiso   1.00
Zn883  Zn    0.83333   0.83333   0.55104   0.00000  Uiso   1.00
Zn884  Zn    0.83333   0.83334   0.44896   0.00000  Uiso   1.00
N885   N     0.89153   0.70774   0.43944   0.00000  Uiso   1.00
H886   H     0.92992   0.69773   0.44309   0.00000  Uiso   1.00
C887   C     0.86733   0.70749   0.39197   0.00000  Uiso   1.00
H888   H     0.86638   0.67531   0.37752   0.00000  Uiso   1.00
H889   H     0.89033   0.72772   0.37196   0.00000  Uiso   1.00
H890   H     0.82666   0.71970   0.38865   0.00000  Uiso   1.00
N891   N     0.77517   0.95894   0.56060   0.00000  Uiso   1.00
H892   H     0.73680   0.96900   0.55701   0.00000  Uiso   1.00
C893   C     0.79944   0.95915   0.60804   0.00000  Uiso   1.00
H894   H     0.80065   0.99135   0.62247   0.00000  Uiso   1.00
H895   H     0.84003   0.94677   0.61132   0.00000  Uiso   1.00
H896   H     0.77635   0.93905   0.62811   0.00000  Uiso   1.00
O897   O     0.89958   0.88515   0.39073   0.00000  Uiso   1.00
H898   H     0.92066   0.90191   0.37204   0.00000  Uiso   1.00
O899   O     0.76709   0.78151   0.60927   0.00000  Uiso   1.00
H900   H     0.74601   0.76476   0.62796   0.00000  Uiso   1.00
C901   C     0.16720   0.08671   0.83307   0.00000  Uiso   1.00
C902   C     0.16613   0.24663   0.83360   0.00000  Uiso   1.00
C903   C     0.06704   0.16665   0.82137   0.00000  Uiso   1.00
C904   C     0.26629   0.16668   0.84530   0.00000  Uiso   1.00
C905   C     0.01200   0.16666   0.81492   0.00000  Uiso   1.00
C906   C     0.32133   0.16667   0.85174   0.00000  Uiso   1.00
C907   C     0.19487   0.02044   0.80261   0.00000  Uiso   1.00
C908   C     0.13847   0.31290   0.86407   0.00000  Uiso   1.00
C909   C     0.19463   0.31091   0.80420   0.00000  Uiso   1.00
C910   C     0.13870   0.02243   0.86247   0.00000  Uiso   1.00
C911   C     0.16634   0.29076   0.83431   0.00000  Uiso   1.00
C912   C     0.16699   0.04257   0.83236   0.00000  Uiso   1.00
C913   C     0.19984   0.19253   0.69546   0.00000  Uiso   1.00
C914   C     0.13350   0.14081   0.97121   0.00000  Uiso   1.00
C915   C     0.19969   0.19229   0.98052   0.00000  Uiso   1.00
C916   C     0.13365   0.14103   0.68614   0.00000  Uiso   1.00
H917   H     0.32472   0.16667   0.77999   0.00000  Uiso   1.00
H918   H     0.00862   0.16666   0.88668   0.00000  Uiso   1.00
H919   H     0.21673   0.29336   0.78203   0.00000  Uiso   1.00
H920   H     0.11661   0.03998   0.88465   0.00000  Uiso   1.00
H921   H     0.22596   0.21259   0.96554   0.00000  Uiso   1.00
H922   H     0.10739   0.12073   0.70112   0.00000  Uiso   1.00
N923   N     0.16665   0.16666   0.95240   0.00000  Uiso   1.00
N924   N     0.16668   0.16668   0.71427   0.00000  Uiso   1.00
O925   O     0.16666   0.10558   0.87154   0.00000  Uiso   1.00
O926   O     0.16667   0.22775   0.79513   0.00000  Uiso   1.00
O927   O     0.16666   0.10559   0.79510   0.00000  Uiso   1.00
O928   O     0.16667   0.22774   0.87157   0.00000  Uiso   1.00
O929   O     0.09058   0.16666   0.86261   0.00000  Uiso   1.00
O930   O     0.24275   0.16667   0.80405   0.00000  Uiso   1.00
O931   O     0.09058   0.16667   0.78617   0.00000  Uiso   1.00
O932   O     0.24275   0.16666   0.88050   0.00000  Uiso   1.00
Zn933  Zn    0.16667   0.16666   0.88437   0.00000  Uiso   1.00
Zn934  Zn    0.16667   0.16667   0.78229   0.00000  Uiso   1.00
N935   N     0.22486   0.04108   0.77277   0.00000  Uiso   1.00
H936   H     0.26326   0.03107   0.77643   0.00000  Uiso   1.00
C937   C     0.20067   0.04082   0.72530   0.00000  Uiso   1.00
H938   H     0.19971   0.00864   0.71086   0.00000  Uiso   1.00
H939   H     0.22367   0.06106   0.70529   0.00000  Uiso   1.00
H940   H     0.15999   0.05303   0.72198   0.00000  Uiso   1.00
N941   N     0.10850   0.29227   0.89393   0.00000  Uiso   1.00
H942   H     0.07013   0.30234   0.89034   0.00000  Uiso   1.00
C943   C     0.13278   0.29249   0.94138   0.00000  Uiso   1.00
H944   H     0.13399   0.32468   0.95580   0.00000  Uiso   1.00
H945   H     0.17336   0.28010   0.94465   0.00000  Uiso   1.00
H946   H     0.10968   0.27238   0.96144   0.00000  Uiso   1.00
O947   O     0.23291   0.21849   0.72406   0.00000  Uiso   1.00
H948   H     0.25399   0.23524   0.70538   0.00000  Uiso   1.00
O949   O     0.10043   0.11484   0.94260   0.00000  Uiso   1.00
H950   H     0.07934   0.09809   0.96129   0.00000  Uiso   1.00
C951   C     0.50054   0.08671   0.83307   0.00000  Uiso   1.00
C952   C     0.49946   0.24663   0.83360   0.00000  Uiso   1.00
C953   C     0.40037   0.16665   0.82137   0.00000  Uiso   1.00
C954   C     0.59963   0.16668   0.84530   0.00000  Uiso   1.00
C955   C     0.34533   0.16666   0.81492   0.00000  Uiso   1.00
C956   C     0.65467   0.16667   0.85174   0.00000  Uiso   1.00
C957   C     0.52820   0.02044   0.80261   0.00000  Uiso   1.00
C958   C     0.47180   0.31290   0.86407   0.00000  Uiso   1.00
C959   C     0.52797   0.31091   0.80420   0.00000  Uiso   1.00
C960   C     0.47203   0.02243   0.86247   0.00000  Uiso   1.00
C961   C     0.49968   0.29076   0.83431   0.00000  Uiso   1.00
C962   C     0.50032   0.04257   0.83236   0.00000  Uiso   1.00
C963   C     0.53317   0.19253   0.69546   0.00000  Uiso   1.00
C964   C     0.46683   0.14081   0.97121   0.00000  Uiso   1.00
C965   C     0.53303   0.19229   0.98052   0.00000  Uiso   1.00
C966   C     0.46698   0.14103   0.68614   0.00000  Uiso   1.00
H967   H     0.65805   0.16667   0.77999   0.00000  Uiso   1.00
H968   H     0.34195   0.16666   0.88668   0.00000  Uiso   1.00
H969   H     0.55006   0.29336   0.78203   0.00000  Uiso   1.00
H970   H     0.44994   0.03998   0.88465   0.00000  Uiso   1.00
H971   H     0.55930   0.21259   0.96554   0.00000  Uiso   1.00
H972   H     0.44072   0.12073   0.70112   0.00000  Uiso   1.00
N973   N     0.49999   0.16666   0.95240   0.00000  Uiso   1.00
N974   N     0.50001   0.16668   0.71427   0.00000  Uiso   1.00
O975   O     0.50000   0.10558   0.87154   0.00000  Uiso   1.00
O976   O     0.50000   0.22775   0.79513   0.00000  Uiso   1.00
O977   O     0.50000   0.10559   0.79510   0.00000  Uiso   1.00
O978   O     0.50000   0.22774   0.87157   0.00000  Uiso   1.00
O979   O     0.42392   0.16666   0.86261   0.00000  Uiso   1.00
O980   O     0.57608   0.16667   0.80405   0.00000  Uiso   1.00
O981   O     0.42392   0.16667   0.78617   0.00000  Uiso   1.00
O982   O     0.57608   0.16666   0.88050   0.00000  Uiso   1.00
Zn983  Zn    0.50000   0.16666   0.88437   0.00000  Uiso   1.00
Zn984  Zn    0.50000   0.16667   0.78229   0.00000  Uiso   1.00
N985   N     0.55820   0.04108   0.77277   0.00000  Uiso   1.00
H986   H     0.59659   0.03107   0.77643   0.00000  Uiso   1.00
C987   C     0.53400   0.04082   0.72530   0.00000  Uiso   1.00
H988   H     0.53305   0.00864   0.71086   0.00000  Uiso   1.00
H989   H     0.55700   0.06106   0.70529   0.00000  Uiso   1.00
H990   H     0.49333   0.05303   0.72198   0.00000  Uiso   1.00
N991   N     0.44183   0.29227   0.89393   0.00000  Uiso   1.00
H992   H     0.40346   0.30234   0.89034   0.00000  Uiso   1.00
C993   C     0.46611   0.29249   0.94138   0.00000  Uiso   1.00
H994   H     0.46732   0.32468   0.95580   0.00000  Uiso   1.00
H995   H     0.50669   0.28010   0.94465   0.00000  Uiso   1.00
H996   H     0.44301   0.27238   0.96144   0.00000  Uiso   1.00
O997   O     0.56624   0.21849   0.72406   0.00000  Uiso   1.00
H998   H     0.58733   0.23524   0.70538   0.00000  Uiso   1.00
O999   O     0.43376   0.11484   0.94260   0.00000  Uiso   1.00
H1000  H     0.41267   0.09809   0.96129   0.00000  Uiso   1.00
C1001  C     0.83387   0.08671   0.83307   0.00000  Uiso   1.00
C1002  C     0.83280   0.24663   0.83360   0.00000  Uiso   1.00
C1003  C     0.73371   0.16665   0.82137   0.00000  Uiso   1.00
C1004  C     0.93296   0.16668   0.84530   0.00000  Uiso   1.00
C1005  C     0.67867   0.16666   0.81492   0.00000  Uiso   1.00
C1006  C     0.98800   0.16667   0.85174   0.00000  Uiso   1.00
C1007  C     0.86154   0.02044   0.80261   0.00000  Uiso   1.00
C1008  C     0.80514   0.31290   0.86407   0.00000  Uiso   1.00
C1009  C     0.86130   0.31091   0.80420   0.00000  Uiso   1.00
C1010  C     0.80537   0.02243   0.86247   0.00000  Uiso   1.00
C1011  C     0.83301   0.29076   0.83431   0.00000  Uiso   1.00
C1012  C     0.83365   0.04257   0.83236   0.00000  Uiso   1.00
C1013  C     0.86650   0.19253   0.69546   0.00000  Uiso   1.00
C1014  C     0.80017   0.14081   0.97121   0.00000  Uiso   1.00
C1015  C     0.86636   0.19229   0.98052   0.00000  Uiso   1.00
C1016  C     0.80031   0.14103   0.68614   0.00000  Uiso   1.00
H1017  H     0.99138   0.16667   0.77999   0.00000  Uiso   1.00
H1018  H     0.67528   0.16666   0.88668   0.00000  Uiso   1.00
H1019  H     0.88340   0.29336   0.78203   0.00000  Uiso   1.00
H1020  H     0.78327   0.03998   0.88465   0.00000  Uiso   1.00
H1021  H     0.89263   0.21259   0.96554   0.00000  Uiso   1.00
H1022  H     0.77405   0.12073   0.70112   0.00000  Uiso   1.00
N1023  N     0.83332   0.16666   0.95240   0.00000  Uiso   1.00
N1024  N     0.83335   0.16668   0.71427   0.00000  Uiso   1.00
O1025  O     0.83333   0.10558   0.87154   0.00000  Uiso   1.00
O1026  O     0.83334   0.22775   0.79513   0.00000  Uiso   1.00
O1027  O     0.83333   0.10559   0.79510   0.00000  Uiso   1.00
O1028  O     0.83334   0.22774   0.87157   0.00000  Uiso   1.00
O1029  O     0.75725   0.16666   0.86261   0.00000  Uiso   1.00
O1030  O     0.90942   0.16667   0.80405   0.00000  Uiso   1.00
O1031  O     0.75725   0.16667   0.78617   0.00000  Uiso   1.00
O1032  O     0.90942   0.16666   0.88050   0.00000  Uiso   1.00
Zn1033 Zn    0.83333   0.16666   0.88437   0.00000  Uiso   1.00
Zn1034 Zn    0.83333   0.16667   0.78229   0.00000  Uiso   1.00
N1035  N     0.89153   0.04108   0.77277   0.00000  Uiso   1.00
H1036  H     0.92992   0.03107   0.77643   0.00000  Uiso   1.00
C1037  C     0.86733   0.04082   0.72530   0.00000  Uiso   1.00
H1038  H     0.86638   0.00864   0.71086   0.00000  Uiso   1.00
H1039  H     0.89033   0.06106   0.70529   0.00000  Uiso   1.00
H1040  H     0.82666   0.05303   0.72198   0.00000  Uiso   1.00
N1041  N     0.77517   0.29227   0.89393   0.00000  Uiso   1.00
H1042  H     0.73680   0.30234   0.89034   0.00000  Uiso   1.00
C1043  C     0.79944   0.29249   0.94138   0.00000  Uiso   1.00
H1044  H     0.80065   0.32468   0.95580   0.00000  Uiso   1.00
H1045  H     0.84003   0.28010   0.94465   0.00000  Uiso   1.00
H1046  H     0.77635   0.27238   0.96144   0.00000  Uiso   1.00
O1047  O     0.89958   0.21849   0.72406   0.00000  Uiso   1.00
H1048  H     0.92066   0.23524   0.70538   0.00000  Uiso   1.00
O1049  O     0.76709   0.11484   0.94260   0.00000  Uiso   1.00
H1050  H     0.74601   0.09809   0.96129   0.00000  Uiso   1.00
C1051  C     0.16720   0.42004   0.83307   0.00000  Uiso   1.00
C1052  C     0.16613   0.57996   0.83360   0.00000  Uiso   1.00
C1053  C     0.06704   0.49998   0.82137   0.00000  Uiso   1.00
C1054  C     0.26629   0.50002   0.84530   0.00000  Uiso   1.00
C1055  C     0.01200   0.50000   0.81492   0.00000  Uiso   1.00
C1056  C     0.32133   0.50000   0.85174   0.00000  Uiso   1.00
C1057  C     0.19487   0.35377   0.80261   0.00000  Uiso   1.00
C1058  C     0.13847   0.64623   0.86407   0.00000  Uiso   1.00
C1059  C     0.19463   0.64424   0.80420   0.00000  Uiso   1.00
C1060  C     0.13870   0.35576   0.86247   0.00000  Uiso   1.00
C1061  C     0.16634   0.62409   0.83431   0.00000  Uiso   1.00
C1062  C     0.16699   0.37591   0.83236   0.00000  Uiso   1.00
C1063  C     0.19984   0.52586   0.69546   0.00000  Uiso   1.00
C1064  C     0.13350   0.47414   0.97121   0.00000  Uiso   1.00
C1065  C     0.19969   0.52563   0.98052   0.00000  Uiso   1.00
C1066  C     0.13365   0.47437   0.68614   0.00000  Uiso   1.00
H1067  H     0.32472   0.50001   0.77999   0.00000  Uiso   1.00
H1068  H     0.00862   0.49999   0.88668   0.00000  Uiso   1.00
H1069  H     0.21673   0.62669   0.78203   0.00000  Uiso   1.00
H1070  H     0.11661   0.37332   0.88465   0.00000  Uiso   1.00
H1071  H     0.22596   0.54592   0.96554   0.00000  Uiso   1.00
H1072  H     0.10739   0.45407   0.70112   0.00000  Uiso   1.00
N1073  N     0.16665   0.49999   0.95240   0.00000  Uiso   1.00
N1074  N     0.16668   0.50001   0.71427   0.00000  Uiso   1.00
O1075  O     0.16666   0.43892   0.87154   0.00000  Uiso   1.00
O1076  O     0.16667   0.56108   0.79513   0.00000  Uiso   1.00
O1077  O     0.16666   0.43893   0.79510   0.00000  Uiso   1.00
O1078  O     0.16667   0.56107   0.87157   0.00000  Uiso   1.00
O1079  O     0.09058   0.50000   0.86261   0.00000  Uiso   1.00
O1080  O     0.24275   0.50000   0.80405   0.00000  Uiso   1.00
O1081  O     0.09058   0.50000   0.78617   0.00000  Uiso   1.00
O1082  O     0.24275   0.50000   0.88050   0.00000  Uiso   1.00
Zn1083 Zn    0.16667   0.49999   0.88437   0.00000  Uiso   1.00
Zn1084 Zn    0.16667   0.50001   0.78229   0.00000  Uiso   1.00
N1085  N     0.22486   0.37441   0.77277   0.00000  Uiso   1.00
H1086  H     0.26326   0.36440   0.77643   0.00000  Uiso   1.00
C1087  C     0.20067   0.37416   0.72530   0.00000  Uiso   1.00
H1088  H     0.19971   0.34198   0.71086   0.00000  Uiso   1.00
H1089  H     0.22367   0.39439   0.70529   0.00000  Uiso   1.00
H1090  H     0.15999   0.38636   0.72198   0.00000  Uiso   1.00
N1091  N     0.10850   0.62561   0.89393   0.00000  Uiso   1.00
H1092  H     0.07013   0.63567   0.89034   0.00000  Uiso   1.00
C1093  C     0.13278   0.62582   0.94138   0.00000  Uiso   1.00
H1094  H     0.13399   0.65802   0.95580   0.00000  Uiso   1.00
H1095  H     0.17336   0.61344   0.94465   0.00000  Uiso   1.00
H1096  H     0.10968   0.60572   0.96144   0.00000  Uiso   1.00
O1097  O     0.23291   0.55182   0.72406   0.00000  Uiso   1.00
H1098  H     0.25399   0.56858   0.70538   0.00000  Uiso   1.00
O1099  O     0.10043   0.44818   0.94260   0.00000  Uiso   1.00
H1100  H     0.07934   0.43142   0.96129   0.00000  Uiso   1.00
C1101  C     0.50054   0.42004   0.83307   0.00000  Uiso   1.00
C1102  C     0.49946   0.57996   0.83360   0.00000  Uiso   1.00
C1103  C     0.40037   0.49998   0.82137   0.00000  Uiso   1.00
C1104  C     0.59963   0.50002   0.84530   0.00000  Uiso   1.00
C1105  C     0.34533   0.50000   0.81492   0.00000  Uiso   1.00
C1106  C     0.65467   0.50000   0.85174   0.00000  Uiso   1.00
C1107  C     0.52820   0.35377   0.80261   0.00000  Uiso   1.00
C1108  C     0.47180   0.64623   0.86407   0.00000  Uiso   1.00
C1109  C     0.52797   0.64424   0.80420   0.00000  Uiso   1.00
C1110  C     0.47203   0.35576   0.86247   0.00000  Uiso   1.00
C1111  C     0.49968   0.62409   0.83431   0.00000  Uiso   1.00
C1112  C     0.50032   0.37591   0.83236   0.00000  Uiso   1.00
C1113  C     0.53317   0.52586   0.69546   0.00000  Uiso   1.00
C1114  C     0.46683   0.47414   0.97121   0.00000  Uiso   1.00
C1115  C     0.53303   0.52563   0.98052   0.00000  Uiso   1.00
C1116  C     0.46698   0.47437   0.68614   0.00000  Uiso   1.00
H1117  H     0.65805   0.50001   0.77999   0.00000  Uiso   1.00
H1118  H     0.34195   0.49999   0.88668   0.00000  Uiso   1.00
H1119  H     0.55006   0.62669   0.78203   0.00000  Uiso   1.00
H1120  H     0.44994   0.37332   0.88465   0.00000  Uiso   1.00
H1121  H     0.55930   0.54592   0.96554   0.00000  Uiso   1.00
H1122  H     0.44072   0.45407   0.70112   0.00000  Uiso   1.00
N1123  N     0.49999   0.49999   0.95240   0.00000  Uiso   1.00
N1124  N     0.50001   0.50001   0.71427   0.00000  Uiso   1.00
O1125  O     0.50000   0.43892   0.87154   0.00000  Uiso   1.00
O1126  O     0.50000   0.56108   0.79513   0.00000  Uiso   1.00
O1127  O     0.50000   0.43893   0.79510   0.00000  Uiso   1.00
O1128  O     0.50000   0.56107   0.87157   0.00000  Uiso   1.00
O1129  O     0.42392   0.50000   0.86261   0.00000  Uiso   1.00
O1130  O     0.57608   0.50000   0.80405   0.00000  Uiso   1.00
O1131  O     0.42392   0.50000   0.78617   0.00000  Uiso   1.00
O1132  O     0.57608   0.50000   0.88050   0.00000  Uiso   1.00
Zn1133 Zn    0.50000   0.49999   0.88437   0.00000  Uiso   1.00
Zn1134 Zn    0.50000   0.50001   0.78229   0.00000  Uiso   1.00
N1135  N     0.55820   0.37441   0.77277   0.00000  Uiso   1.00
H1136  H     0.59659   0.36440   0.77643   0.00000  Uiso   1.00
C1137  C     0.53400   0.37416   0.72530   0.00000  Uiso   1.00
H1138  H     0.53305   0.34198   0.71086   0.00000  Uiso   1.00
H1139  H     0.55700   0.39439   0.70529   0.00000  Uiso   1.00
H1140  H     0.49333   0.38636   0.72198   0.00000  Uiso   1.00
N1141  N     0.44183   0.62561   0.89393   0.00000  Uiso   1.00
H1142  H     0.40346   0.63567   0.89034   0.00000  Uiso   1.00
C1143  C     0.46611   0.62582   0.94138   0.00000  Uiso   1.00
H1144  H     0.46732   0.65802   0.95580   0.00000  Uiso   1.00
H1145  H     0.50669   0.61344   0.94465   0.00000  Uiso   1.00
H1146  H     0.44301   0.60572   0.96144   0.00000  Uiso   1.00
O1147  O     0.56624   0.55182   0.72406   0.00000  Uiso   1.00
H1148  H     0.58733   0.56858   0.70538   0.00000  Uiso   1.00
O1149  O     0.43376   0.44818   0.94260   0.00000  Uiso   1.00
H1150  H     0.41267   0.43142   0.96129   0.00000  Uiso   1.00
C1151  C     0.83387   0.42004   0.83307   0.00000  Uiso   1.00
C1152  C     0.83280   0.57996   0.83360   0.00000  Uiso   1.00
C1153  C     0.73371   0.49998   0.82137   0.00000  Uiso   1.00
C1154  C     0.93296   0.50002   0.84530   0.00000  Uiso   1.00
C1155  C     0.67867   0.50000   0.81492   0.00000  Uiso   1.00
C1156  C     0.98800   0.50000   0.85174   0.00000  Uiso   1.00
C1157  C     0.86154   0.35377   0.80261   0.00000  Uiso   1.00
C1158  C     0.80514   0.64623   0.86407   0.00000  Uiso   1.00
C1159  C     0.86130   0.64424   0.80420   0.00000  Uiso   1.00
C1160  C     0.80537   0.35576   0.86247   0.00000  Uiso   1.00
C1161  C     0.83301   0.62409   0.83431   0.00000  Uiso   1.00
C1162  C     0.83365   0.37591   0.83236   0.00000  Uiso   1.00
C1163  C     0.86650   0.52586   0.69546   0.00000  Uiso   1.00
C1164  C     0.80017   0.47414   0.97121   0.00000  Uiso   1.00
C1165  C     0.86636   0.52563   0.98052   0.00000  Uiso   1.00
C1166  C     0.80031   0.47437   0.68614   0.00000  Uiso   1.00
H1167  H     0.99138   0.50001   0.77999   0.00000  Uiso   1.00
H1168  H     0.67528   0.49999   0.88668   0.00000  Uiso   1.00
H1169  H     0.88340   0.62669   0.78203   0.00000  Uiso   1.00
H1170  H     0.78327   0.37332   0.88465   0.00000  Uiso   1.00
H1171  H     0.89263   0.54592   0.96554   0.00000  Uiso   1.00
H1172  H     0.77405   0.45407   0.70112   0.00000  Uiso   1.00
N1173  N     0.83332   0.49999   0.95240   0.00000  Uiso   1.00
N1174  N     0.83335   0.50001   0.71427   0.00000  Uiso   1.00
O1175  O     0.83333   0.43892   0.87154   0.00000  Uiso   1.00
O1176  O     0.83334   0.56108   0.79513   0.00000  Uiso   1.00
O1177  O     0.83333   0.43893   0.79510   0.00000  Uiso   1.00
O1178  O     0.83334   0.56107   0.87157   0.00000  Uiso   1.00
O1179  O     0.75725   0.50000   0.86261   0.00000  Uiso   1.00
O1180  O     0.90942   0.50000   0.80405   0.00000  Uiso   1.00
O1181  O     0.75725   0.50000   0.78617   0.00000  Uiso   1.00
O1182  O     0.90942   0.50000   0.88050   0.00000  Uiso   1.00
Zn1183 Zn    0.83333   0.49999   0.88437   0.00000  Uiso   1.00
Zn1184 Zn    0.83333   0.50001   0.78229   0.00000  Uiso   1.00
N1185  N     0.89153   0.37441   0.77277   0.00000  Uiso   1.00
H1186  H     0.92992   0.36440   0.77643   0.00000  Uiso   1.00
C1187  C     0.86733   0.37416   0.72530   0.00000  Uiso   1.00
H1188  H     0.86638   0.34198   0.71086   0.00000  Uiso   1.00
H1189  H     0.89033   0.39439   0.70529   0.00000  Uiso   1.00
H1190  H     0.82666   0.38636   0.72198   0.00000  Uiso   1.00
N1191  N     0.77517   0.62561   0.89393   0.00000  Uiso   1.00
H1192  H     0.73680   0.63567   0.89034   0.00000  Uiso   1.00
C1193  C     0.79944   0.62582   0.94138   0.00000  Uiso   1.00
H1194  H     0.80065   0.65802   0.95580   0.00000  Uiso   1.00
H1195  H     0.84003   0.61344   0.94465   0.00000  Uiso   1.00
H1196  H     0.77635   0.60572   0.96144   0.00000  Uiso   1.00
O1197  O     0.89958   0.55182   0.72406   0.00000  Uiso   1.00
H1198  H     0.92066   0.56858   0.70538   0.00000  Uiso   1.00
O1199  O     0.76709   0.44818   0.94260   0.00000  Uiso   1.00
H1200  H     0.74601   0.43142   0.96129   0.00000  Uiso   1.00
C1201  C     0.16720   0.75337   0.83307   0.00000  Uiso   1.00
C1202  C     0.16613   0.91329   0.83360   0.00000  Uiso   1.00
C1203  C     0.06704   0.83332   0.82137   0.00000  Uiso   1.00
C1204  C     0.26629   0.83335   0.84530   0.00000  Uiso   1.00
C1205  C     0.01200   0.83333   0.81492   0.00000  Uiso   1.00
C1206  C     0.32133   0.83334   0.85174   0.00000  Uiso   1.00
C1207  C     0.19487   0.68710   0.80261   0.00000  Uiso   1.00
C1208  C     0.13847   0.97957   0.86407   0.00000  Uiso   1.00
C1209  C     0.19463   0.97757   0.80420   0.00000  Uiso   1.00
C1210  C     0.13870   0.68910   0.86247   0.00000  Uiso   1.00
C1211  C     0.16634   0.95743   0.83431   0.00000  Uiso   1.00
C1212  C     0.16699   0.70924   0.83236   0.00000  Uiso   1.00
C1213  C     0.19984   0.85919   0.69546   0.00000  Uiso   1.00
C1214  C     0.13350   0.80747   0.97121   0.00000  Uiso   1.00
C1215  C     0.19969   0.85896   0.98052   0.00000  Uiso   1.00
C1216  C     0.13365   0.80770   0.68614   0.00000  Uiso   1.00
H1217  H     0.32472   0.83334   0.77999   0.00000  Uiso   1.00
H1218  H     0.00862   0.83333   0.88668   0.00000  Uiso   1.00
H1219  H     0.21673   0.96002   0.78203   0.00000  Uiso   1.00
H1220  H     0.11661   0.70665   0.88465   0.00000  Uiso   1.00
H1221  H     0.22596   0.87925   0.96554   0.00000  Uiso   1.00
H1222  H     0.10739   0.78740   0.70112   0.00000  Uiso   1.00
N1223  N     0.16665   0.83332   0.95240   0.00000  Uiso   1.00
N1224  N     0.16668   0.83334   0.71427   0.00000  Uiso   1.00
O1225  O     0.16666   0.77225   0.87154   0.00000  Uiso   1.00
O1226  O     0.16667   0.89442   0.79513   0.00000  Uiso   1.00
O1227  O     0.16666   0.77226   0.79510   0.00000  Uiso   1.00
O1228  O     0.16667   0.89441   0.87157   0.00000  Uiso   1.00
O1229  O     0.09058   0.83333   0.86261   0.00000  Uiso   1.00
O1230  O     0.24275   0.83334   0.80405   0.00000  Uiso   1.00
O1231  O     0.09058   0.83334   0.78617   0.00000  Uiso   1.00
O1232  O     0.24275   0.83333   0.88050   0.00000  Uiso   1.00
Zn1233 Zn    0.16667   0.83333   0.88437   0.00000  Uiso   1.00
Zn1234 Zn    0.16667   0.83334   0.78229   0.00000  Uiso   1.00
N1235  N     0.22486   0.70774   0.77277   0.00000  Uiso   1.00
H1236  H     0.26326   0.69773   0.77643   0.00000  Uiso   1.00
C1237  C     0.20067   0.70749   0.72530   0.00000  Uiso   1.00
H1238  H     0.19971   0.67531   0.71086   0.00000  Uiso   1.00
H1239  H     0.22367   0.72772   0.70529   0.00000  Uiso   1.00
H1240  H     0.15999   0.71970   0.72198   0.00000  Uiso   1.00
N1241  N     0.10850   0.95894   0.89393   0.00000  Uiso   1.00
H1242  H     0.07013   0.96900   0.89034   0.00000  Uiso   1.00
C1243  C     0.13278   0.95915   0.94138   0.00000  Uiso   1.00
H1244  H     0.13399   0.99135   0.95580   0.00000  Uiso   1.00
H1245  H     0.17336   0.94677   0.94465   0.00000  Uiso   1.00
H1246  H     0.10968   0.93905   0.96144   0.00000  Uiso   1.00
O1247  O     0.23291   0.88515   0.72406   0.00000  Uiso   1.00
H1248  H     0.25399   0.90191   0.70538   0.00000  Uiso   1.00
O1249  O     0.10043   0.78151   0.94260   0.00000  Uiso   1.00
H1250  H     0.07934   0.76476   0.96129   0.00000  Uiso   1.00
C1251  C     0.50054   0.75337   0.83307   0.00000  Uiso   1.00
C1252  C     0.49946   0.91329   0.83360   0.00000  Uiso   1.00
C1253  C     0.40037   0.83332   0.82137   0.00000  Uiso   1.00
C1254  C     0.59963   0.83335   0.84530   0.00000  Uiso   1.00
C1255  C     0.34533   0.83333   0.81492   0.00000  Uiso   1.00
C1256  C     0.65467   0.83334   0.85174   0.00000  Uiso   1.00
C1257  C     0.52820   0.68710   0.80261   0.00000  Uiso   1.00
C1258  C     0.47180   0.97957   0.86407   0.00000  Uiso   1.00
C1259  C     0.52797   0.97757   0.80420   0.00000  Uiso   1.00
C1260  C     0.47203   0.68910   0.86247   0.00000  Uiso   1.00
C1261  C     0.49968   0.95743   0.83431   0.00000  Uiso   1.00
C1262  C     0.50032   0.70924   0.83236   0.00000  Uiso   1.00
C1263  C     0.53317   0.85919   0.69546   0.00000  Uiso   1.00
C1264  C     0.46683   0.80747   0.97121   0.00000  Uiso   1.00
C1265  C     0.53303   0.85896   0.98052   0.00000  Uiso   1.00
C1266  C     0.46698   0.80770   0.68614   0.00000  Uiso   1.00
H1267  H     0.65805   0.83334   0.77999   0.00000  Uiso   1.00
H1268  H     0.34195   0.83333   0.88668   0.00000  Uiso   1.00
H1269  H     0.55006   0.96002   0.78203   0.00000  Uiso   1.00
H1270  H     0.44994   0.70665   0.88465   0.00000  Uiso   1.00
H1271  H     0.55930   0.87925   0.96554   0.00000  Uiso   1.00
H1272  H     0.44072   0.78740   0.70112   0.00000  Uiso   1.00
N1273  N     0.49999   0.83332   0.95240   0.00000  Uiso   1.00
N1274  N     0.50001   0.83334   0.71427   0.00000  Uiso   1.00
O1275  O     0.50000   0.77225   0.87154   0.00000  Uiso   1.00
O1276  O     0.50000   0.89442   0.79513   0.00000  Uiso   1.00
O1277  O     0.50000   0.77226   0.79510   0.00000  Uiso   1.00
O1278  O     0.50000   0.89441   0.87157   0.00000  Uiso   1.00
O1279  O     0.42392   0.83333   0.86261   0.00000  Uiso   1.00
O1280  O     0.57608   0.83334   0.80405   0.00000  Uiso   1.00
O1281  O     0.42392   0.83334   0.78617   0.00000  Uiso   1.00
O1282  O     0.57608   0.83333   0.88050   0.00000  Uiso   1.00
Zn1283 Zn    0.50000   0.83333   0.88437   0.00000  Uiso   1.00
Zn1284 Zn    0.50000   0.83334   0.78229   0.00000  Uiso   1.00
N1285  N     0.55820   0.70774   0.77277   0.00000  Uiso   1.00
H1286  H     0.59659   0.69773   0.77643   0.00000  Uiso   1.00
C1287  C     0.53400   0.70749   0.72530   0.00000  Uiso   1.00
H1288  H     0.53305   0.67531   0.71086   0.00000  Uiso   1.00
H1289  H     0.55700   0.72772   0.70529   0.00000  Uiso   1.00
H1290  H     0.49333   0.71970   0.72198   0.00000  Uiso   1.00
N1291  N     0.44183   0.95894   0.89393   0.00000  Uiso   1.00
H1292  H     0.40346   0.96900   0.89034   0.00000  Uiso   1.00
C1293  C     0.46611   0.95915   0.94138   0.00000  Uiso   1.00
H1294  H     0.46732   0.99135   0.95580   0.00000  Uiso   1.00
H1295  H     0.50669   0.94677   0.94465   0.00000  Uiso   1.00
H1296  H     0.44301   0.93905   0.96144   0.00000  Uiso   1.00
O1297  O     0.56624   0.88515   0.72406   0.00000  Uiso   1.00
H1298  H     0.58733   0.90191   0.70538   0.00000  Uiso   1.00
O1299  O     0.43376   0.78151   0.94260   0.00000  Uiso   1.00
H1300  H     0.41267   0.76476   0.96129   0.00000  Uiso   1.00
C1301  C     0.83387   0.75337   0.83307   0.00000  Uiso   1.00
C1302  C     0.83280   0.91329   0.83360   0.00000  Uiso   1.00
C1303  C     0.73371   0.83332   0.82137   0.00000  Uiso   1.00
C1304  C     0.93296   0.83335   0.84530   0.00000  Uiso   1.00
C1305  C     0.67867   0.83333   0.81492   0.00000  Uiso   1.00
C1306  C     0.98800   0.83334   0.85174   0.00000  Uiso   1.00
C1307  C     0.86154   0.68710   0.80261   0.00000  Uiso   1.00
C1308  C     0.80514   0.97957   0.86407   0.00000  Uiso   1.00
C1309  C     0.86130   0.97757   0.80420   0.00000  Uiso   1.00
C1310  C     0.80537   0.68910   0.86247   0.00000  Uiso   1.00
C1311  C     0.83301   0.95743   0.83431   0.00000  Uiso   1.00
C1312  C     0.83365   0.70924   0.83236   0.00000  Uiso   1.00
C1313  C     0.86650   0.85919   0.69546   0.00000  Uiso   1.00
C1314  C     0.80017   0.80747   0.97121   0.00000  Uiso   1.00
C1315  C     0.86636   0.85896   0.98052   0.00000  Uiso   1.00
C1316  C     0.80031   0.80770   0.68614   0.00000  Uiso   1.00
H1317  H     0.99138   0.83334   0.77999   0.00000  Uiso   1.00
H1318  H     0.67528   0.83333   0.88668   0.00000  Uiso   1.00
H1319  H     0.88340   0.96002   0.78203   0.00000  Uiso   1.00
H1320  H     0.78327   0.70665   0.88465   0.00000  Uiso   1.00
H1321  H     0.89263   0.87925   0.96554   0.00000  Uiso   1.00
H1322  H     0.77405   0.78740   0.70112   0.00000  Uiso   1.00
N1323  N     0.83332   0.83332   0.95240   0.00000  Uiso   1.00
N1324  N     0.83335   0.83334   0.71427   0.00000  Uiso   1.00
O1325  O     0.83333   0.77225   0.87154   0.00000  Uiso   1.00
O1326  O     0.83334   0.89442   0.79513   0.00000  Uiso   1.00
O1327  O     0.83333   0.77226   0.79510   0.00000  Uiso   1.00
O1328  O     0.83334   0.89441   0.87157   0.00000  Uiso   1.00
O1329  O     0.75725   0.83333   0.86261   0.00000  Uiso   1.00
O1330  O     0.90942   0.83334   0.80405   0.00000  Uiso   1.00
O1331  O     0.75725   0.83334   0.78617   0.00000  Uiso   1.00
O1332  O     0.90942   0.83333   0.88050   0.00000  Uiso   1.00
Zn1333 Zn    0.83333   0.83333   0.88437   0.00000  Uiso   1.00
Zn1334 Zn    0.83333   0.83334   0.78229   0.00000  Uiso   1.00
N1335  N     0.89153   0.70774   0.77277   0.00000  Uiso   1.00
H1336  H     0.92992   0.69773   0.77643   0.00000  Uiso   1.00
C1337  C     0.86733   0.70749   0.72530   0.00000  Uiso   1.00
H1338  H     0.86638   0.67531   0.71086   0.00000  Uiso   1.00
H1339  H     0.89033   0.72772   0.70529   0.00000  Uiso   1.00
H1340  H     0.82666   0.71970   0.72198   0.00000  Uiso   1.00
N1341  N     0.77517   0.95894   0.89393   0.00000  Uiso   1.00
H1342  H     0.73680   0.96900   0.89034   0.00000  Uiso   1.00
C1343  C     0.79944   0.95915   0.94138   0.00000  Uiso   1.00
H1344  H     0.80065   0.99135   0.95580   0.00000  Uiso   1.00
H1345  H     0.84003   0.94677   0.94465   0.00000  Uiso   1.00
H1346  H     0.77635   0.93905   0.96144   0.00000  Uiso   1.00
O1347  O     0.89958   0.88515   0.72406   0.00000  Uiso   1.00
H1348  H     0.92066   0.90191   0.70538   0.00000  Uiso   1.00
O1349  O     0.76709   0.78151   0.94260   0.00000  Uiso   1.00
H1350  H     0.74601   0.76476   0.96129   0.00000  Uiso   1.00
loop_
_geom_bond_atom_site_label_1
_geom_bond_atom_site_label_2
_geom_bond_distance
_geom_bond_site_symmetry_2
_ccdc_geom_bond_type
C1     O25     1.285   .     A
C1     C12     1.415   .     S
C1     O27     1.279   .     A
C2     O26     1.285   .     A
C2     C11     1.415   .     S
C2     O28     1.279   .     A
C3     O31     1.280   .     A
C3     O29     1.278   .     A
C3     C5      1.402   .     S
C4     O32     1.280   .     A
C4     C6      1.402   .     S
C4     O30     1.278   .     A
C5     C106    1.330   1_455 S
C5     H117    1.088   1_455 S
C6     C55     1.330   .     S
C6     H68     1.088   .     S
C7     N35     1.424   .     S
C7     C12     1.405   .     A
C7     C309    1.376   1_545 S
C8     C11     1.405   .     A
C8     N41     1.423   .     S
C8     C160    1.376   .     S
C9     C11     1.394   .     A
C9     H19     1.085   .     S
C9     C157    1.376   .     S
C10    C12     1.394   .     A
C10    H20     1.085   .     S
C10    C308    1.376   1_545 S
C13    O47     1.378   .     S
C13    N24     1.369   .     A
C13    C915    1.426   1_554 S
C14    N23     1.369   .     A
C14    O49     1.378   .     S
C14    C466    1.426   .     S
C15    N23     1.364   .     A
C15    H21     1.082   .     S
C15    C463    1.426   .     S
C16    N24     1.364   .     A
C16    H22     1.082   .     S
C16    C914    1.426   1_554 S
H17    C55     1.088   .     S
H18    C106    1.088   1_455 S
N23    Zn33    2.011   .     S
N24    Zn34    2.011   .     S
O25    Zn33    1.991   .     S
O26    Zn34    1.991   .     S
O27    Zn34    1.999   .     S
O28    Zn33    1.999   .     S
O29    Zn33    1.970   .     S
O30    Zn34    1.970   .     S
O31    Zn34    1.981   .     S
O32    Zn33    1.981   .     S
N35    C37     1.447   .     S
N35    H36     1.032   .     S
C37    H38     1.112   .     S
C37    H40     1.111   .     S
C37    H39     1.110   .     S
N41    H42     1.032   .     S
N41    C43     1.447   .     S
C43    H44     1.112   .     S
C43    H45     1.111   .     S
C43    H46     1.110   .     S
O47    H48     0.992   .     S
O49    H50     0.992   .     S
C51    O75     1.285   .     A
C51    C62     1.415   .     S
C51    O77     1.279   .     A
C52    O76     1.285   .     A
C52    C61     1.415   .     S
C52    O78     1.279   .     A
C53    O81     1.280   .     A
C53    O79     1.278   .     A
C53    C55     1.402   .     S
C54    O82     1.280   .     A
C54    C56     1.402   .     S
C54    O80     1.278   .     A
C56    C105    1.330   .     S
C56    H118    1.088   .     S
C57    N85     1.424   .     S
C57    C62     1.405   .     A
C57    C359    1.376   1_545 S
C58    C61     1.405   .     A
C58    N91     1.423   .     S
C58    C210    1.376   .     S
C59    C61     1.394   .     A
C59    H69     1.085   .     S
C59    C207    1.376   .     S
C60    C62     1.394   .     A
C60    H70     1.085   .     S
C60    C358    1.376   1_545 S
C63    O97     1.378   .     S
C63    N74     1.369   .     A
C63    C965    1.426   1_554 S
C64    N73     1.369   .     A
C64    O99     1.378   .     S
C64    C516    1.426   .     S
C65    N73     1.364   .     A
C65    H71     1.082   .     S
C65    C513    1.426   .     S
C66    N74     1.364   .     A
C66    H72     1.082   .     S
C66    C964    1.426   1_554 S
H67    C105    1.088   .     S
N73    Zn83    2.011   .     S
N74    Zn84    2.011   .     S
O75    Zn83    1.991   .     S
O76    Zn84    1.991   .     S
O77    Zn84    1.999   .     S
O78    Zn83    1.999   .     S
O79    Zn83    1.970   .     S
O80    Zn84    1.970   .     S
O81    Zn84    1.981   .     S
O82    Zn83    1.981   .     S
N85    C87     1.447   .     S
N85    H86     1.032   .     S
C87    H88     1.112   .     S
C87    H90     1.111   .     S
C87    H89     1.110   .     S
N91    H92     1.032   .     S
N91    C93     1.447   .     S
C93    H94     1.112   .     S
C93    H95     1.111   .     S
C93    H96     1.110   .     S
O97    H98     0.992   .     S
O99    H100    0.992   .     S
C101   O125    1.285   .     A
C101   C112    1.415   .     S
C101   O127    1.279   .     A
C102   O126    1.285   .     A
C102   C111    1.415   .     S
C102   O128    1.279   .     A
C103   O131    1.280   .     A
C103   O129    1.278   .     A
C103   C105    1.402   .     S
C104   O132    1.280   .     A
C104   C106    1.402   .     S
C104   O130    1.278   .     A
C106   C5      1.330   1_655 S
C106   H18     1.088   1_655 S
C107   N135    1.424   .     S
C107   C112    1.405   .     A
C107   C409    1.376   1_545 S
C108   C111    1.405   .     A
C108   N141    1.423   .     S
C108   C260    1.376   .     S
C109   C111    1.394   .     A
C109   H119    1.085   .     S
C109   C257    1.376   .     S
C110   C112    1.394   .     A
C110   H120    1.085   .     S
C110   C408    1.376   1_545 S
C113   O147    1.378   .     S
C113   N124    1.369   .     A
C113   C1015   1.426   1_554 S
C114   N123    1.369   .     A
C114   O149    1.378   .     S
C114   C566    1.426   .     S
C115   N123    1.364   .     A
C115   H121    1.082   .     S
C115   C563    1.426   .     S
C116   N124    1.364   .     A
C116   H122    1.082   .     S
C116   C1014   1.426   1_554 S
H117   C5      1.088   1_655 S
N123   Zn133   2.011   .     S
N124   Zn134   2.011   .     S
O125   Zn133   1.991   .     S
O126   Zn134   1.991   .     S
O127   Zn134   1.999   .     S
O128   Zn133   1.999   .     S
O129   Zn133   1.970   .     S
O130   Zn134   1.970   .     S
O131   Zn134   1.981   .     S
O132   Zn133   1.981   .     S
N135   C137    1.447   .     S
N135   H136    1.032   .     S
C137   H138    1.112   .     S
C137   H140    1.111   .     S
C137   H139    1.110   .     S
N141   H142    1.032   .     S
N141   C143    1.447   .     S
C143   H144    1.112   .     S
C143   H145    1.111   .     S
C143   H146    1.110   .     S
O147   H148    0.992   .     S
O149   H150    0.992   .     S
C151   O175    1.285   .     A
C151   C162    1.415   .     S
C151   O177    1.279   .     A
C152   O176    1.285   .     A
C152   C161    1.415   .     S
C152   O178    1.279   .     A
C153   O181    1.280   .     A
C153   O179    1.278   .     A
C153   C155    1.402   .     S
C154   O182    1.280   .     A
C154   C156    1.402   .     S
C154   O180    1.278   .     A
C155   C256    1.330   1_455 S
C155   H267    1.088   1_455 S
C156   C205    1.330   .     S
C156   H218    1.088   .     S
C157   N185    1.424   .     S
C157   C162    1.405   .     A
C158   C161    1.405   .     A
C158   N191    1.423   .     S
C158   C310    1.376   .     S
C159   C161    1.394   .     A
C159   H169    1.085   .     S
C159   C307    1.376   .     S
C160   C162    1.394   .     A
C160   H170    1.085   .     S
C163   O197    1.378   .     S
C163   N174    1.369   .     A
C163   C1065   1.426   1_554 S
C164   N173    1.369   .     A
C164   O199    1.378   .     S
C164   C616    1.426   .     S
C165   N173    1.364   .     A
C165   H171    1.082   .     S
C165   C613    1.426   .     S
C166   N174    1.364   .     A
C166   H172    1.082   .     S
C166   C1064   1.426   1_554 S
H167   C205    1.088   .     S
H168   C256    1.088   1_455 S
N173   Zn183   2.011   .     S
N174   Zn184   2.011   .     S
O175   Zn183   1.991   .     S
O176   Zn184   1.991   .     S
O177   Zn184   1.999   .     S
O178   Zn183   1.999   .     S
O179   Zn183   1.970   .     S
O180   Zn184   1.970   .     S
O181   Zn184   1.981   .     S
O182   Zn183   1.981   .     S
N185   C187    1.447   .     S
N185   H186    1.032   .     S
C187   H188    1.112   .     S
C187   H190    1.111   .     S
C187   H189    1.110   .     S
N191   H192    1.032   .     S
N191   C193    1.447   .     S
C193   H194    1.112   .     S
C193   H195    1.111   .     S
C193   H196    1.110   .     S
O197   H198    0.992   .     S
O199   H200    0.992   .     S
C201   O225    1.285   .     A
C201   C212    1.415   .     S
C201   O227    1.279   .     A
C202   O226    1.285   .     A
C202   C211    1.415   .     S
C202   O228    1.279   .     A
C203   O231    1.280   .     A
C203   O229    1.278   .     A
C203   C205    1.402   .     S
C204   O232    1.280   .     A
C204   C206    1.402   .     S
C204   O230    1.278   .     A
C206   C255    1.330   .     S
C206   H268    1.088   .     S
C207   N235    1.424   .     S
C207   C212    1.405   .     A
C208   C211    1.405   .     A
C208   N241    1.423   .     S
C208   C360    1.376   .     S
C209   C211    1.394   .     A
C209   H219    1.085   .     S
C209   C357    1.376   .     S
C210   C212    1.394   .     A
C210   H220    1.085   .     S
C213   O247    1.378   .     S
C213   N224    1.369   .     A
C213   C1115   1.426   1_554 S
C214   N223    1.369   .     A
C214   O249    1.378   .     S
C214   C666    1.426   .     S
C215   N223    1.364   .     A
C215   H221    1.082   .     S
C215   C663    1.426   .     S
C216   N224    1.364   .     A
C216   H222    1.082   .     S
C216   C1114   1.426   1_554 S
H217   C255    1.088   .     S
N223   Zn233   2.011   .     S
N224   Zn234   2.011   .     S
O225   Zn233   1.991   .     S
O226   Zn234   1.991   .     S
O227   Zn234   1.999   .     S
O228   Zn233   1.999   .     S
O229   Zn233   1.970   .     S
O230   Zn234   1.970   .     S
O231   Zn234   1.981   .     S
O232   Zn233   1.981   .     S
N235   C237    1.447   .     S
N235   H236    1.032   .     S
C237   H238    1.112   .     S
C237   H240    1.111   .     S
C237   H239    1.110   .     S
N241   H242    1.032   .     S
N241   C243    1.447   .     S
C243   H244    1.112   .     S
C243   H245    1.111   .     S
C243   H246    1.110   .     S
O247   H248    0.992   .     S
O249   H250    0.992   .     S
C251   O275    1.285   .     A
C251   C262    1.415   .     S
C251   O277    1.279   .     A
C252   O276    1.285   .     A
C252   C261    1.415   .     S
C252   O278    1.279   .     A
C253   O281    1.280   .     A
C253   O279    1.278   .     A
C253   C255    1.402   .     S
C254   O282    1.280   .     A
C254   C256    1.402   .     S
C254   O280    1.278   .     A
C256   C155    1.330   1_655 S
C256   H168    1.088   1_655 S
C257   N285    1.424   .     S
C257   C262    1.405   .     A
C258   C261    1.405   .     A
C258   N291    1.423   .     S
C258   C410    1.376   .     S
C259   C261    1.394   .     A
C259   H269    1.085   .     S
C259   C407    1.376   .     S
C260   C262    1.394   .     A
C260   H270    1.085   .     S
C263   O297    1.378   .     S
C263   N274    1.369   .     A
C263   C1165   1.426   1_554 S
C264   N273    1.369   .     A
C264   O299    1.378   .     S
C264   C716    1.426   .     S
C265   N273    1.364   .     A
C265   H271    1.082   .     S
C265   C713    1.426   .     S
C266   N274    1.364   .     A
C266   H272    1.082   .     S
C266   C1164   1.426   1_554 S
H267   C155    1.088   1_655 S
N273   Zn283   2.011   .     S
N274   Zn284   2.011   .     S
O275   Zn283   1.991   .     S
O276   Zn284   1.991   .     S
O277   Zn284   1.999   .     S
O278   Zn283   1.999   .     S
O279   Zn283   1.970   .     S
O280   Zn284   1.970   .     S
O281   Zn284   1.981   .     S
O282   Zn283   1.981   .     S
N285   C287    1.447   .     S
N285   H286    1.032   .     S
C287   H288    1.112   .     S
C287   H290    1.111   .     S
C287   H289    1.110   .     S
N291   H292    1.032   .     S
N291   C293    1.447   .     S
C293   H294    1.112   .     S
C293   H295    1.111   .     S
C293   H296    1.110   .     S
O297   H298    0.992   .     S
O299   H300    0.992   .     S
C301   O325    1.285   .     A
C301   C312    1.415   .     S
C301   O327    1.279   .     A
C302   O326    1.285   .     A
C302   C311    1.415   .     S
C302   O328    1.279   .     A
C303   O331    1.280   .     A
C303   O329    1.278   .     A
C303   C305    1.402   .     S
C304   O332    1.280   .     A
C304   C306    1.402   .     S
C304   O330    1.278   .     A
C305   C406    1.330   1_455 S
C305   H417    1.088   1_455 S
C306   C355    1.330   .     S
C306   H368    1.088   .     S
C307   N335    1.424   .     S
C307   C312    1.405   .     A
C308   C311    1.405   .     A
C308   N341    1.423   .     S
C308   C10     1.376   1_565 S
C309   C311    1.394   .     A
C309   H319    1.085   .     S
C309   C7      1.376   1_565 S
C310   C312    1.394   .     A
C310   H320    1.085   .     S
C313   O347    1.378   .     S
C313   N324    1.369   .     A
C313   C1215   1.426   1_554 S
C314   N323    1.369   .     A
C314   O349    1.378   .     S
C314   C766    1.426   .     S
C315   N323    1.364   .     A
C315   H321    1.082   .     S
C315   C763    1.426   .     S
C316   N324    1.364   .     A
C316   H322    1.082   .     S
C316   C1214   1.426   1_554 S
H317   C355    1.088   .     S
H318   C406    1.088   1_455 S
N323   Zn333   2.011   .     S
N324   Zn334   2.011   .     S
O325   Zn333   1.991   .     S
O326   Zn334   1.991   .     S
O327   Zn334   1.999   .     S
O328   Zn333   1.999   .     S
O329   Zn333   1.970   .     S
O330   Zn334   1.970   .     S
O331   Zn334   1.981   .     S
O332   Zn333   1.981   .     S
N335   C337    1.447   .     S
N335   H336    1.032   .     S
C337   H338    1.112   .     S
C337   H340    1.111   .     S
C337   H339    1.110   .     S
N341   H342    1.032   .     S
N341   C343    1.447   .     S
C343   H344    1.112   .     S
C343   H345    1.111   .     S
C343   H346    1.110   .     S
O347   H348    0.992   .     S
O349   H350    0.992   .     S
C351   O375    1.285   .     A
C351   C362    1.415   .     S
C351   O377    1.279   .     A
C352   O376    1.285   .     A
C352   C361    1.415   .     S
C352   O378    1.279   .     A
C353   O381    1.280   .     A
C353   O379    1.278   .     A
C353   C355    1.402   .     S
C354   O382    1.280   .     A
C354   C356    1.402   .     S
C354   O380    1.278   .     A
C356   C405    1.330   .     S
C356   H418    1.088   .     S
C357   N385    1.424   .     S
C357   C362    1.405   .     A
C358   C361    1.405   .     A
C358   N391    1.423   .     S
C358   C60     1.376   1_565 S
C359   C361    1.394   .     A
C359   H369    1.085   .     S
C359   C57     1.376   1_565 S
C360   C362    1.394   .     A
C360   H370    1.085   .     S
C363   O397    1.378   .     S
C363   N374    1.369   .     A
C363   C1265   1.426   1_554 S
C364   N373    1.369   .     A
C364   O399    1.378   .     S
C364   C816    1.426   .     S
C365   N373    1.364   .     A
C365   H371    1.082   .     S
C365   C813    1.426   .     S
C366   N374    1.364   .     A
C366   H372    1.082   .     S
C366   C1264   1.426   1_554 S
H367   C405    1.088   .     S
N373   Zn383   2.011   .     S
N374   Zn384   2.011   .     S
O375   Zn383   1.991   .     S
O376   Zn384   1.991   .     S
O377   Zn384   1.999   .     S
O378   Zn383   1.999   .     S
O379   Zn383   1.970   .     S
O380   Zn384   1.970   .     S
O381   Zn384   1.981   .     S
O382   Zn383   1.981   .     S
N385   C387    1.447   .     S
N385   H386    1.032   .     S
C387   H388    1.112   .     S
C387   H390    1.111   .     S
C387   H389    1.110   .     S
N391   H392    1.032   .     S
N391   C393    1.447   .     S
C393   H394    1.112   .     S
C393   H395    1.111   .     S
C393   H396    1.110   .     S
O397   H398    0.992   .     S
O399   H400    0.992   .     S
C401   O425    1.285   .     A
C401   C412    1.415   .     S
C401   O427    1.279   .     A
C402   O426    1.285   .     A
C402   C411    1.415   .     S
C402   O428    1.279   .     A
C403   O431    1.280   .     A
C403   O429    1.278   .     A
C403   C405    1.402   .     S
C404   O432    1.280   .     A
C404   C406    1.402   .     S
C404   O430    1.278   .     A
C406   C305    1.330   1_655 S
C406   H318    1.088   1_655 S
C407   N435    1.424   .     S
C407   C412    1.405   .     A
C408   C411    1.405   .     A
C408   N441    1.423   .     S
C408   C110    1.376   1_565 S
C409   C411    1.394   .     A
C409   H419    1.085   .     S
C409   C107    1.376   1_565 S
C410   C412    1.394   .     A
C410   H420    1.085   .     S
C413   O447    1.378   .     S
C413   N424    1.369   .     A
C413   C1315   1.426   1_554 S
C414   N423    1.369   .     A
C414   O449    1.378   .     S
C414   C866    1.426   .     S
C415   N423    1.364   .     A
C415   H421    1.082   .     S
C415   C863    1.426   .     S
C416   N424    1.364   .     A
C416   H422    1.082   .     S
C416   C1314   1.426   1_554 S
H417   C305    1.088   1_655 S
N423   Zn433   2.011   .     S
N424   Zn434   2.011   .     S
O425   Zn433   1.991   .     S
O426   Zn434   1.991   .     S
O427   Zn434   1.999   .     S
O428   Zn433   1.999   .     S
O429   Zn433   1.970   .     S
O430   Zn434   1.970   .     S
O431   Zn434   1.981   .     S
O432   Zn433   1.981   .     S
N435   C437    1.447   .     S
N435   H436    1.032   .     S
C437   H438    1.112   .     S
C437   H440    1.111   .     S
C437   H439    1.110   .     S
N441   H442    1.032   .     S
N441   C443    1.447   .     S
C443   H444    1.112   .     S
C443   H445    1.111   .     S
C443   H446    1.110   .     S
O447   H448    0.992   .     S
O449   H450    0.992   .     S
C451   O475    1.285   .     A
C451   C462    1.415   .     S
C451   O477    1.279   .     A
C452   O476    1.285   .     A
C452   C461    1.415   .     S
C452   O478    1.279   .     A
C453   O481    1.280   .     A
C453   O479    1.278   .     A
C453   C455    1.402   .     S
C454   O482    1.280   .     A
C454   C456    1.402   .     S
C454   O480    1.278   .     A
C455   C556    1.330   1_455 S
C455   H567    1.088   1_455 S
C456   C505    1.330   .     S
C456   H518    1.088   .     S
C457   N485    1.424   .     S
C457   C462    1.405   .     A
C457   C759    1.376   1_545 S
C458   C461    1.405   .     A
C458   N491    1.423   .     S
C458   C610    1.376   .     S
C459   C461    1.394   .     A
C459   H469    1.085   .     S
C459   C607    1.376   .     S
C460   C462    1.394   .     A
C460   H470    1.085   .     S
C460   C758    1.376   1_545 S
C463   O497    1.378   .     S
C463   N474    1.369   .     A
C464   N473    1.369   .     A
C464   O499    1.378   .     S
C464   C916    1.426   .     S
C465   N473    1.364   .     A
C465   H471    1.082   .     S
C465   C913    1.426   .     S
C466   N474    1.364   .     A
C466   H472    1.082   .     S
H467   C505    1.088   .     S
H468   C556    1.088   1_455 S
N473   Zn483   2.011   .     S
N474   Zn484   2.011   .     S
O475   Zn483   1.991   .     S
O476   Zn484   1.991   .     S
O477   Zn484   1.999   .     S
O478   Zn483   1.999   .     S
O479   Zn483   1.970   .     S
O480   Zn484   1.970   .     S
O481   Zn484   1.981   .     S
O482   Zn483   1.981   .     S
N485   C487    1.447   .     S
N485   H486    1.032   .     S
C487   H488    1.112   .     S
C487   H490    1.111   .     S
C487   H489    1.110   .     S
N491   H492    1.032   .     S
N491   C493    1.447   .     S
C493   H494    1.112   .     S
C493   H495    1.111   .     S
C493   H496    1.110   .     S
O497   H498    0.992   .     S
O499   H500    0.992   .     S
C501   O525    1.285   .     A
C501   C512    1.415   .     S
C501   O527    1.279   .     A
C502   O526    1.285   .     A
C502   C511    1.415   .     S
C502   O528    1.279   .     A
C503   O531    1.280   .     A
C503   O529    1.278   .     A
C503   C505    1.402   .     S
C504   O532    1.280   .     A
C504   C506    1.402   .     S
C504   O530    1.278   .     A
C506   C555    1.330   .     S
C506   H568    1.088   .     S
C507   N535    1.424   .     S
C507   C512    1.405   .     A
C507   C809    1.376   1_545 S
C508   C511    1.405   .     A
C508   N541    1.423   .     S
C508   C660    1.376   .     S
C509   C511    1.394   .     A
C509   H519    1.085   .     S
C509   C657    1.376   .     S
C510   C512    1.394   .     A
C510   H520    1.085   .     S
C510   C808    1.376   1_545 S
C513   O547    1.378   .     S
C513   N524    1.369   .     A
C514   N523    1.369   .     A
C514   O549    1.378   .     S
C514   C966    1.426   .     S
C515   N523    1.364   .     A
C515   H521    1.082   .     S
C515   C963    1.426   .     S
C516   N524    1.364   .     A
C516   H522    1.082   .     S
H517   C555    1.088   .     S
N523   Zn533   2.011   .     S
N524   Zn534   2.011   .     S
O525   Zn533   1.991   .     S
O526   Zn534   1.991   .     S
O527   Zn534   1.999   .     S
O528   Zn533   1.999   .     S
O529   Zn533   1.970   .     S
O530   Zn534   1.970   .     S
O531   Zn534   1.981   .     S
O532   Zn533   1.981   .     S
N535   C537    1.447   .     S
N535   H536    1.032   .     S
C537   H538    1.112   .     S
C537   H540    1.111   .     S
C537   H539    1.110   .     S
N541   H542    1.032   .     S
N541   C543    1.447   .     S
C543   H544    1.112   .     S
C543   H545    1.111   .     S
C543   H546    1.110   .     S
O547   H548    0.992   .     S
O549   H550    0.992   .     S
C551   O575    1.285   .     A
C551   C562    1.415   .     S
C551   O577    1.279   .     A
C552   O576    1.285   .     A
C552   C561    1.415   .     S
C552   O578    1.279   .     A
C553   O581    1.280   .     A
C553   O579    1.278   .     A
C553   C555    1.402   .     S
C554   O582    1.280   .     A
C554   C556    1.402   .     S
C554   O580    1.278   .     A
C556   C455    1.330   1_655 S
C556   H468    1.088   1_655 S
C557   N585    1.424   .     S
C557   C562    1.405   .     A
C557   C859    1.376   1_545 S
C558   C561    1.405   .     A
C558   N591    1.423   .     S
C558   C710    1.376   .     S
C559   C561    1.394   .     A
C559   H569    1.085   .     S
C559   C707    1.376   .     S
C560   C562    1.394   .     A
C560   H570    1.085   .     S
C560   C858    1.376   1_545 S
C563   O597    1.378   .     S
C563   N574    1.369   .     A
C564   N573    1.369   .     A
C564   O599    1.378   .     S
C564   C1016   1.426   .     S
C565   N573    1.364   .     A
C565   H571    1.082   .     S
C565   C1013   1.426   .     S
C566   N574    1.364   .     A
C566   H572    1.082   .     S
H567   C455    1.088   1_655 S
N573   Zn583   2.011   .     S
N574   Zn584   2.011   .     S
O575   Zn583   1.991   .     S
O576   Zn584   1.991   .     S
O577   Zn584   1.999   .     S
O578   Zn583   1.999   .     S
O579   Zn583   1.970   .     S
O580   Zn584   1.970   .     S
O581   Zn584   1.981   .     S
O582   Zn583   1.981   .     S
N585   C587    1.447   .     S
N585   H586    1.032   .     S
C587   H588    1.112   .     S
C587   H590    1.111   .     S
C587   H589    1.110   .     S
N591   H592    1.032   .     S
N591   C593    1.447   .     S
C593   H594    1.112   .     S
C593   H595    1.111   .     S
C593   H596    1.110   .     S
O597   H598    0.992   .     S
O599   H600    0.992   .     S
C601   O625    1.285   .     A
C601   C612    1.415   .     S
C601   O627    1.279   .     A
C602   O626    1.285   .     A
C602   C611    1.415   .     S
C602   O628    1.279   .     A
C603   O631    1.280   .     A
C603   O629    1.278   .     A
C603   C605    1.402   .     S
C604   O632    1.280   .     A
C604   C606    1.402   .     S
C604   O630    1.278   .     A
C605   C706    1.330   1_455 S
C605   H717    1.088   1_455 S
C606   C655    1.330   .     S
C606   H668    1.088   .     S
C607   N635    1.424   .     S
C607   C612    1.405   .     A
C608   C611    1.405   .     A
C608   N641    1.423   .     S
C608   C760    1.376   .     S
C609   C611    1.394   .     A
C609   H619    1.085   .     S
C609   C757    1.376   .     S
C610   C612    1.394   .     A
C610   H620    1.085   .     S
C613   O647    1.378   .     S
C613   N624    1.369   .     A
C614   N623    1.369   .     A
C614   O649    1.378   .     S
C614   C1066   1.426   .     S
C615   N623    1.364   .     A
C615   H621    1.082   .     S
C615   C1063   1.426   .     S
C616   N624    1.364   .     A
C616   H622    1.082   .     S
H617   C655    1.088   .     S
H618   C706    1.088   1_455 S
N623   Zn633   2.011   .     S
N624   Zn634   2.011   .     S
O625   Zn633   1.991   .     S
O626   Zn634   1.991   .     S
O627   Zn634   1.999   .     S
O628   Zn633   1.999   .     S
O629   Zn633   1.970   .     S
O630   Zn634   1.970   .     S
O631   Zn634   1.981   .     S
O632   Zn633   1.981   .     S
N635   C637    1.447   .     S
N635   H636    1.032   .     S
C637   H638    1.112   .     S
C637   H640    1.111   .     S
C637   H639    1.110   .     S
N641   H642    1.032   .     S
N641   C643    1.447   .     S
C643   H644    1.112   .     S
C643   H645    1.111   .     S
C643   H646    1.110   .     S
O647   H648    0.992   .     S
O649   H650    0.992   .     S
C651   O675    1.285   .     A
C651   C662    1.415   .     S
C651   O677    1.279   .     A
C652   O676    1.285   .     A
C652   C661    1.415   .     S
C652   O678    1.279   .     A
C653   O681    1.280   .     A
C653   O679    1.278   .     A
C653   C655    1.402   .     S
C654   O682    1.280   .     A
C654   C656    1.402   .     S
C654   O680    1.278   .     A
C656   C705    1.330   .     S
C656   H718    1.088   .     S
C657   N685    1.424   .     S
C657   C662    1.405   .     A
C658   C661    1.405   .     A
C658   N691    1.423   .     S
C658   C810    1.376   .     S
C659   C661    1.394   .     A
C659   H669    1.085   .     S
C659   C807    1.376   .     S
C660   C662    1.394   .     A
C660   H670    1.085   .     S
C663   O697    1.378   .     S
C663   N674    1.369   .     A
C664   N673    1.369   .     A
C664   O699    1.378   .     S
C664   C1116   1.426   .     S
C665   N673    1.364   .     A
C665   H671    1.082   .     S
C665   C1113   1.426   .     S
C666   N674    1.364   .     A
C666   H672    1.082   .     S
H667   C705    1.088   .     S
N673   Zn683   2.011   .     S
N674   Zn684   2.011   .     S
O675   Zn683   1.991   .     S
O676   Zn684   1.991   .     S
O677   Zn684   1.999   .     S
O678   Zn683   1.999   .     S
O679   Zn683   1.970   .     S
O680   Zn684   1.970   .     S
O681   Zn684   1.981   .     S
O682   Zn683   1.981   .     S
N685   C687    1.447   .     S
N685   H686    1.032   .     S
C687   H688    1.112   .     S
C687   H690    1.111   .     S
C687   H689    1.110   .     S
N691   H692    1.032   .     S
N691   C693    1.447   .     S
C693   H694    1.112   .     S
C693   H695    1.111   .     S
C693   H696    1.110   .     S
O697   H698    0.992   .     S
O699   H700    0.992   .     S
C701   O725    1.285   .     A
C701   C712    1.415   .     S
C701   O727    1.279   .     A
C702   O726    1.285   .     A
C702   C711    1.415   .     S
C702   O728    1.279   .     A
C703   O731    1.280   .     A
C703   O729    1.278   .     A
C703   C705    1.402   .     S
C704   O732    1.280   .     A
C704   C706    1.402   .     S
C704   O730    1.278   .     A
C706   C605    1.330   1_655 S
C706   H618    1.088   1_655 S
C707   N735    1.424   .     S
C707   C712    1.405   .     A
C708   C711    1.405   .     A
C708   N741    1.423   .     S
C708   C860    1.376   .     S
C709   C711    1.394   .     A
C709   H719    1.085   .     S
C709   C857    1.376   .     S
C710   C712    1.394   .     A
C710   H720    1.085   .     S
C713   O747    1.378   .     S
C713   N724    1.369   .     A
C714   N723    1.369   .     A
C714   O749    1.378   .     S
C714   C1166   1.426   .     S
C715   N723    1.364   .     A
C715   H721    1.082   .     S
C715   C1163   1.426   .     S
C716   N724    1.364   .     A
C716   H722    1.082   .     S
H717   C605    1.088   1_655 S
N723   Zn733   2.011   .     S
N724   Zn734   2.011   .     S
O725   Zn733   1.991   .     S
O726   Zn734   1.991   .     S
O727   Zn734   1.999   .     S
O728   Zn733   1.999   .     S
O729   Zn733   1.970   .     S
O730   Zn734   1.970   .     S
O731   Zn734   1.981   .     S
O732   Zn733   1.981   .     S
N735   C737    1.447   .     S
N735   H736    1.032   .     S
C737   H738    1.112   .     S
C737   H740    1.111   .     S
C737   H739    1.110   .     S
N741   H742    1.032   .     S
N741   C743    1.447   .     S
C743   H744    1.112   .     S
C743   H745    1.111   .     S
C743   H746    1.110   .     S
O747   H748    0.992   .     S
O749   H750    0.992   .     S
C751   O775    1.285   .     A
C751   C762    1.415   .     S
C751   O777    1.279   .     A
C752   O776    1.285   .     A
C752   C761    1.415   .     S
C752   O778    1.279   .     A
C753   O781    1.280   .     A
C753   O779    1.278   .     A
C753   C755    1.402   .     S
C754   O782    1.280   .     A
C754   C756    1.402   .     S
C754   O780    1.278   .     A
C755   C856    1.330   1_455 S
C755   H867    1.088   1_455 S
C756   C805    1.330   .     S
C756   H818    1.088   .     S
C757   N785    1.424   .     S
C757   C762    1.405   .     A
C758   C761    1.405   .     A
C758   N791    1.423   .     S
C758   C460    1.376   1_565 S
C759   C761    1.394   .     A
C759   H769    1.085   .     S
C759   C457    1.376   1_565 S
C760   C762    1.394   .     A
C760   H770    1.085   .     S
C763   O797    1.378   .     S
C763   N774    1.369   .     A
C764   N773    1.369   .     A
C764   O799    1.378   .     S
C764   C1216   1.426   .     S
C765   N773    1.364   .     A
C765   H771    1.082   .     S
C765   C1213   1.426   .     S
C766   N774    1.364   .     A
C766   H772    1.082   .     S
H767   C805    1.088   .     S
H768   C856    1.088   1_455 S
N773   Zn783   2.011   .     S
N774   Zn784   2.011   .     S
O775   Zn783   1.991   .     S
O776   Zn784   1.991   .     S
O777   Zn784   1.999   .     S
O778   Zn783   1.999   .     S
O779   Zn783   1.970   .     S
O780   Zn784   1.970   .     S
O781   Zn784   1.981   .     S
O782   Zn783   1.981   .     S
N785   C787    1.447   .     S
N785   H786    1.032   .     S
C787   H788    1.112   .     S
C787   H790    1.111   .     S
C787   H789    1.110   .     S
N791   H792    1.032   .     S
N791   C793    1.447   .     S
C793   H794    1.112   .     S
C793   H795    1.111   .     S
C793   H796    1.110   .     S
O797   H798    0.992   .     S
O799   H800    0.992   .     S
C801   O825    1.285   .     A
C801   C812    1.415   .     S
C801   O827    1.279   .     A
C802   O826    1.285   .     A
C802   C811    1.415   .     S
C802   O828    1.279   .     A
C803   O831    1.280   .     A
C803   O829    1.278   .     A
C803   C805    1.402   .     S
C804   O832    1.280   .     A
C804   C806    1.402   .     S
C804   O830    1.278   .     A
C806   C855    1.330   .     S
C806   H868    1.088   .     S
C807   N835    1.424   .     S
C807   C812    1.405   .     A
C808   C811    1.405   .     A
C808   N841    1.423   .     S
C808   C510    1.376   1_565 S
C809   C811    1.394   .     A
C809   H819    1.085   .     S
C809   C507    1.376   1_565 S
C810   C812    1.394   .     A
C810   H820    1.085   .     S
C813   O847    1.378   .     S
C813   N824    1.369   .     A
C814   N823    1.369   .     A
C814   O849    1.378   .     S
C814   C1266   1.426   .     S
C815   N823    1.364   .     A
C815   H821    1.082   .     S
C815   C1263   1.426   .     S
C816   N824    1.364   .     A
C816   H822    1.082   .     S
H817   C855    1.088   .     S
N823   Zn833   2.011   .     S
N824   Zn834   2.011   .     S
O825   Zn833   1.991   .     S
O826   Zn834   1.991   .     S
O827   Zn834   1.999   .     S
O828   Zn833   1.999   .     S
O829   Zn833   1.970   .     S
O830   Zn834   1.970   .     S
O831   Zn834   1.981   .     S
O832   Zn833   1.981   .     S
N835   C837    1.447   .     S
N835   H836    1.032   .     S
C837   H838    1.112   .     S
C837   H840    1.111   .     S
C837   H839    1.110   .     S
N841   H842    1.032   .     S
N841   C843    1.447   .     S
C843   H844    1.112   .     S
C843   H845    1.111   .     S
C843   H846    1.110   .     S
O847   H848    0.992   .     S
O849   H850    0.992   .     S
C851   O875    1.285   .     A
C851   C862    1.415   .     S
C851   O877    1.279   .     A
C852   O876    1.285   .     A
C852   C861    1.415   .     S
C852   O878    1.279   .     A
C853   O881    1.280   .     A
C853   O879    1.278   .     A
C853   C855    1.402   .     S
C854   O882    1.280   .     A
C854   C856    1.402   .     S
C854   O880    1.278   .     A
C856   C755    1.330   1_655 S
C856   H768    1.088   1_655 S
C857   N885    1.424   .     S
C857   C862    1.405   .     A
C858   C861    1.405   .     A
C858   N891    1.423   .     S
C858   C560    1.376   1_565 S
C859   C861    1.394   .     A
C859   H869    1.085   .     S
C859   C557    1.376   1_565 S
C860   C862    1.394   .     A
C860   H870    1.085   .     S
C863   O897    1.378   .     S
C863   N874    1.369   .     A
C864   N873    1.369   .     A
C864   O899    1.378   .     S
C864   C1316   1.426   .     S
C865   N873    1.364   .     A
C865   H871    1.082   .     S
C865   C1313   1.426   .     S
C866   N874    1.364   .     A
C866   H872    1.082   .     S
H867   C755    1.088   1_655 S
N873   Zn883   2.011   .     S
N874   Zn884   2.011   .     S
O875   Zn883   1.991   .     S
O876   Zn884   1.991   .     S
O877   Zn884   1.999   .     S
O878   Zn883   1.999   .     S
O879   Zn883   1.970   .     S
O880   Zn884   1.970   .     S
O881   Zn884   1.981   .     S
O882   Zn883   1.981   .     S
N885   C887    1.447   .     S
N885   H886    1.032   .     S
C887   H888    1.112   .     S
C887   H890    1.111   .     S
C887   H889    1.110   .     S
N891   H892    1.032   .     S
N891   C893    1.447   .     S
C893   H894    1.112   .     S
C893   H895    1.111   .     S
C893   H896    1.110   .     S
O897   H898    0.992   .     S
O899   H900    0.992   .     S
C901   O925    1.285   .     A
C901   C912    1.415   .     S
C901   O927    1.279   .     A
C902   O926    1.285   .     A
C902   C911    1.415   .     S
C902   O928    1.279   .     A
C903   O931    1.280   .     A
C903   O929    1.278   .     A
C903   C905    1.402   .     S
C904   O932    1.280   .     A
C904   C906    1.402   .     S
C904   O930    1.278   .     A
C905   C1006   1.330   1_455 S
C905   H1017   1.088   1_455 S
C906   C955    1.330   .     S
C906   H968    1.088   .     S
C907   N935    1.424   .     S
C907   C912    1.405   .     A
C907   C1209   1.376   1_545 S
C908   C911    1.405   .     A
C908   N941    1.423   .     S
C908   C1060   1.376   .     S
C909   C911    1.394   .     A
C909   H919    1.085   .     S
C909   C1057   1.376   .     S
C910   C912    1.394   .     A
C910   H920    1.085   .     S
C910   C1208   1.376   1_545 S
C913   O947    1.378   .     S
C913   N924    1.369   .     A
C914   N923    1.369   .     A
C914   O949    1.378   .     S
C914   C16     1.426   1_556 S
C915   N923    1.364   .     A
C915   H921    1.082   .     S
C915   C13     1.426   1_556 S
C916   N924    1.364   .     A
C916   H922    1.082   .     S
H917   C955    1.088   .     S
H918   C1006   1.088   1_455 S
N923   Zn933   2.011   .     S
N924   Zn934   2.011   .     S
O925   Zn933   1.991   .     S
O926   Zn934   1.991   .     S
O927   Zn934   1.999   .     S
O928   Zn933   1.999   .     S
O929   Zn933   1.970   .     S
O930   Zn934   1.970   .     S
O931   Zn934   1.981   .     S
O932   Zn933   1.981   .     S
N935   C937    1.447   .     S
N935   H936    1.032   .     S
C937   H938    1.112   .     S
C937   H940    1.111   .     S
C937   H939    1.110   .     S
N941   H942    1.032   .     S
N941   C943    1.447   .     S
C943   H944    1.112   .     S
C943   H945    1.111   .     S
C943   H946    1.110   .     S
O947   H948    0.992   .     S
O949   H950    0.992   .     S
C951   O975    1.285   .     A
C951   C962    1.415   .     S
C951   O977    1.279   .     A
C952   O976    1.285   .     A
C952   C961    1.415   .     S
C952   O978    1.279   .     A
C953   O981    1.280   .     A
C953   O979    1.278   .     A
C953   C955    1.402   .     S
C954   O982    1.280   .     A
C954   C956    1.402   .     S
C954   O980    1.278   .     A
C956   C1005   1.330   .     S
C956   H1018   1.088   .     S
C957   N985    1.424   .     S
C957   C962    1.405   .     A
C957   C1259   1.376   1_545 S
C958   C961    1.405   .     A
C958   N991    1.423   .     S
C958   C1110   1.376   .     S
C959   C961    1.394   .     A
C959   H969    1.085   .     S
C959   C1107   1.376   .     S
C960   C962    1.394   .     A
C960   H970    1.085   .     S
C960   C1258   1.376   1_545 S
C963   O997    1.378   .     S
C963   N974    1.369   .     A
C964   N973    1.369   .     A
C964   O999    1.378   .     S
C964   C66     1.426   1_556 S
C965   N973    1.364   .     A
C965   H971    1.082   .     S
C965   C63     1.426   1_556 S
C966   N974    1.364   .     A
C966   H972    1.082   .     S
H967   C1005   1.088   .     S
N973   Zn983   2.011   .     S
N974   Zn984   2.011   .     S
O975   Zn983   1.991   .     S
O976   Zn984   1.991   .     S
O977   Zn984   1.999   .     S
O978   Zn983   1.999   .     S
O979   Zn983   1.970   .     S
O980   Zn984   1.970   .     S
O981   Zn984   1.981   .     S
O982   Zn983   1.981   .     S
N985   C987    1.447   .     S
N985   H986    1.032   .     S
C987   H988    1.112   .     S
C987   H990    1.111   .     S
C987   H989    1.110   .     S
N991   H992    1.032   .     S
N991   C993    1.447   .     S
C993   H994    1.112   .     S
C993   H995    1.111   .     S
C993   H996    1.110   .     S
O997   H998    0.992   .     S
O999   H1000   0.992   .     S
C1001  O1025   1.285   .     A
C1001  C1012   1.415   .     S
C1001  O1027   1.279   .     A
C1002  O1026   1.285   .     A
C1002  C1011   1.415   .     S
C1002  O1028   1.279   .     A
C1003  O1031   1.280   .     A
C1003  O1029   1.278   .     A
C1003  C1005   1.402   .     S
C1004  O1032   1.280   .     A
C1004  C1006   1.402   .     S
C1004  O1030   1.278   .     A
C1006  C905    1.330   1_655 S
C1006  H918    1.088   1_655 S
C1007  N1035   1.424   .     S
C1007  C1012   1.405   .     A
C1007  C1309   1.376   1_545 S
C1008  C1011   1.405   .     A
C1008  N1041   1.423   .     S
C1008  C1160   1.376   .     S
C1009  C1011   1.394   .     A
C1009  H1019   1.085   .     S
C1009  C1157   1.376   .     S
C1010  C1012   1.394   .     A
C1010  H1020   1.085   .     S
C1010  C1308   1.376   1_545 S
C1013  O1047   1.378   .     S
C1013  N1024   1.369   .     A
C1014  N1023   1.369   .     A
C1014  O1049   1.378   .     S
C1014  C116    1.426   1_556 S
C1015  N1023   1.364   .     A
C1015  H1021   1.082   .     S
C1015  C113    1.426   1_556 S
C1016  N1024   1.364   .     A
C1016  H1022   1.082   .     S
H1017  C905    1.088   1_655 S
N1023  Zn1033  2.011   .     S
N1024  Zn1034  2.011   .     S
O1025  Zn1033  1.991   .     S
O1026  Zn1034  1.991   .     S
O1027  Zn1034  1.999   .     S
O1028  Zn1033  1.999   .     S
O1029  Zn1033  1.970   .     S
O1030  Zn1034  1.970   .     S
O1031  Zn1034  1.981   .     S
O1032  Zn1033  1.981   .     S
N1035  C1037   1.447   .     S
N1035  H1036   1.032   .     S
C1037  H1038   1.112   .     S
C1037  H1040   1.111   .     S
C1037  H1039   1.110   .     S
N1041  H1042   1.032   .     S
N1041  C1043   1.447   .     S
C1043  H1044   1.112   .     S
C1043  H1045   1.111   .     S
C1043  H1046   1.110   .     S
O1047  H1048   0.992   .     S
O1049  H1050   0.992   .     S
C1051  O1075   1.285   .     A
C1051  C1062   1.415   .     S
C1051  O1077   1.279   .     A
C1052  O1076   1.285   .     A
C1052  C1061   1.415   .     S
C1052  O1078   1.279   .     A
C1053  O1081   1.280   .     A
C1053  O1079   1.278   .     A
C1053  C1055   1.402   .     S
C1054  O1082   1.280   .     A
C1054  C1056   1.402   .     S
C1054  O1080   1.278   .     A
C1055  C1156   1.330   1_455 S
C1055  H1167   1.088   1_455 S
C1056  C1105   1.330   .     S
C1056  H1118   1.088   .     S
C1057  N1085   1.424   .     S
C1057  C1062   1.405   .     A
C1058  C1061   1.405   .     A
C1058  N1091   1.423   .     S
C1058  C1210   1.376   .     S
C1059  C1061   1.394   .     A
C1059  H1069   1.085   .     S
C1059  C1207   1.376   .     S
C1060  C1062   1.394   .     A
C1060  H1070   1.085   .     S
C1063  O1097   1.378   .     S
C1063  N1074   1.369   .     A
C1064  N1073   1.369   .     A
C1064  O1099   1.378   .     S
C1064  C166    1.426   1_556 S
C1065  N1073   1.364   .     A
C1065  H1071   1.082   .     S
C1065  C163    1.426   1_556 S
C1066  N1074   1.364   .     A
C1066  H1072   1.082   .     S
H1067  C1105   1.088   .     S
H1068  C1156   1.088   1_455 S
N1073  Zn1083  2.011   .     S
N1074  Zn1084  2.011   .     S
O1075  Zn1083  1.991   .     S
O1076  Zn1084  1.991   .     S
O1077  Zn1084  1.999   .     S
O1078  Zn1083  1.999   .     S
O1079  Zn1083  1.970   .     S
O1080  Zn1084  1.970   .     S
O1081  Zn1084  1.981   .     S
O1082  Zn1083  1.981   .     S
N1085  C1087   1.447   .     S
N1085  H1086   1.032   .     S
C1087  H1088   1.112   .     S
C1087  H1090   1.111   .     S
C1087  H1089   1.110   .     S
N1091  H1092   1.032   .     S
N1091  C1093   1.447   .     S
C1093  H1094   1.112   .     S
C1093  H1095   1.111   .     S
C1093  H1096   1.110   .     S
O1097  H1098   0.992   .     S
O1099  H1100   0.992   .     S
C1101  O1125   1.285   .     A
C1101  C1112   1.415   .     S
C1101  O1127   1.279   .     A
C1102  O1126   1.285   .     A
C1102  C1111   1.415   .     S
C1102  O1128   1.279   .     A
C1103  O1131   1.280   .     A
C1103  O1129   1.278   .     A
C1103  C1105   1.402   .     S
C1104  O1132   1.280   .     A
C1104  C1106   1.402   .     S
C1104  O1130   1.278   .     A
C1106  C1155   1.330   .     S
C1106  H1168   1.088   .     S
C1107  N1135   1.424   .     S
C1107  C1112   1.405   .     A
C1108  C1111   1.405   .     A
C1108  N1141   1.423   .     S
C1108  C1260   1.376   .     S
C1109  C1111   1.394   .     A
C1109  H1119   1.085   .     S
C1109  C1257   1.376   .     S
C1110  C1112   1.394   .     A
C1110  H1120   1.085   .     S
C1113  O1147   1.378   .     S
C1113  N1124   1.369   .     A
C1114  N1123   1.369   .     A
C1114  O1149   1.378   .     S
C1114  C216    1.426   1_556 S
C1115  N1123   1.364   .     A
C1115  H1121   1.082   .     S
C1115  C213    1.426   1_556 S
C1116  N1124   1.364   .     A
C1116  H1122   1.082   .     S
H1117  C1155   1.088   .     S
N1123  Zn1133  2.011   .     S
N1124  Zn1134  2.011   .     S
O1125  Zn1133  1.991   .     S
O1126  Zn1134  1.991   .     S
O1127  Zn1134  1.999   .     S
O1128  Zn1133  1.999   .     S
O1129  Zn1133  1.970   .     S
O1130  Zn1134  1.970   .     S
O1131  Zn1134  1.981   .     S
O1132  Zn1133  1.981   .     S
N1135  C1137   1.447   .     S
N1135  H1136   1.032   .     S
C1137  H1138   1.112   .     S
C1137  H1140   1.111   .     S
C1137  H1139   1.110   .     S
N1141  H1142   1.032   .     S
N1141  C1143   1.447   .     S
C1143  H1144   1.112   .     S
C1143  H1145   1.111   .     S
C1143  H1146   1.110   .     S
O1147  H1148   0.992   .     S
O1149  H1150   0.992   .     S
C1151  O1175   1.285   .     A
C1151  C1162   1.415   .     S
C1151  O1177   1.279   .     A
C1152  O1176   1.285   .     A
C1152  C1161   1.415   .     S
C1152  O1178   1.279   .     A
C1153  O1181   1.280   .     A
C1153  O1179   1.278   .     A
C1153  C1155   1.402   .     S
C1154  O1182   1.280   .     A
C1154  C1156   1.402   .     S
C1154  O1180   1.278   .     A
C1156  C1055   1.330   1_655 S
C1156  H1068   1.088   1_655 S
C1157  N1185   1.424   .     S
C1157  C1162   1.405   .     A
C1158  C1161   1.405   .     A
C1158  N1191   1.423   .     S
C1158  C1310   1.376   .     S
C1159  C1161   1.394   .     A
C1159  H1169   1.085   .     S
C1159  C1307   1.376   .     S
C1160  C1162   1.394   .     A
C1160  H1170   1.085   .     S
C1163  O1197   1.378   .     S
C1163  N1174   1.369   .     A
C1164  N1173   1.369   .     A
C1164  O1199   1.378   .     S
C1164  C266    1.426   1_556 S
C1165  N1173   1.364   .     A
C1165  H1171   1.082   .     S
C1165  C263    1.426   1_556 S
C1166  N1174   1.364   .     A
C1166  H1172   1.082   .     S
H1167  C1055   1.088   1_655 S
N1173  Zn1183  2.011   .     S
N1174  Zn1184  2.011   .     S
O1175  Zn1183  1.991   .     S
O1176  Zn1184  1.991   .     S
O1177  Zn1184  1.999   .     S
O1178  Zn1183  1.999   .     S
O1179  Zn1183  1.970   .     S
O1180  Zn1184  1.970   .     S
O1181  Zn1184  1.981   .     S
O1182  Zn1183  1.981   .     S
N1185  C1187   1.447   .     S
N1185  H1186   1.032   .     S
C1187  H1188   1.112   .     S
C1187  H1190   1.111   .     S
C1187  H1189   1.110   .     S
N1191  H1192   1.032   .     S
N1191  C1193   1.447   .     S
C1193  H1194   1.112   .     S
C1193  H1195   1.111   .     S
C1193  H1196   1.110   .     S
O1197  H1198   0.992   .     S
O1199  H1200   0.992   .     S
C1201  O1225   1.285   .     A
C1201  C1212   1.415   .     S
C1201  O1227   1.279   .     A
C1202  O1226   1.285   .     A
C1202  C1211   1.415   .     S
C1202  O1228   1.279   .     A
C1203  O1231   1.280   .     A
C1203  O1229   1.278   .     A
C1203  C1205   1.402   .     S
C1204  O1232   1.280   .     A
C1204  C1206   1.402   .     S
C1204  O1230   1.278   .     A
C1205  C1306   1.330   1_455 S
C1205  H1317   1.088   1_455 S
C1206  C1255   1.330   .     S
C1206  H1268   1.088   .     S
C1207  N1235   1.424   .     S
C1207  C1212   1.405   .     A
C1208  C1211   1.405   .     A
C1208  N1241   1.423   .     S
C1208  C910    1.376   1_565 S
C1209  C1211   1.394   .     A
C1209  H1219   1.085   .     S
C1209  C907    1.376   1_565 S
C1210  C1212   1.394   .     A
C1210  H1220   1.085   .     S
C1213  O1247   1.378   .     S
C1213  N1224   1.369   .     A
C1214  N1223   1.369   .     A
C1214  O1249   1.378   .     S
C1214  C316    1.426   1_556 S
C1215  N1223   1.364   .     A
C1215  H1221   1.082   .     S
C1215  C313    1.426   1_556 S
C1216  N1224   1.364   .     A
C1216  H1222   1.082   .     S
H1217  C1255   1.088   .     S
H1218  C1306   1.088   1_455 S
N1223  Zn1233  2.011   .     S
N1224  Zn1234  2.011   .     S
O1225  Zn1233  1.991   .     S
O1226  Zn1234  1.991   .     S
O1227  Zn1234  1.999   .     S
O1228  Zn1233  1.999   .     S
O1229  Zn1233  1.970   .     S
O1230  Zn1234  1.970   .     S
O1231  Zn1234  1.981   .     S
O1232  Zn1233  1.981   .     S
N1235  C1237   1.447   .     S
N1235  H1236   1.032   .     S
C1237  H1238   1.112   .     S
C1237  H1240   1.111   .     S
C1237  H1239   1.110   .     S
N1241  H1242   1.032   .     S
N1241  C1243   1.447   .     S
C1243  H1244   1.112   .     S
C1243  H1245   1.111   .     S
C1243  H1246   1.110   .     S
O1247  H1248   0.992   .     S
O1249  H1250   0.992   .     S
C1251  O1275   1.285   .     A
C1251  C1262   1.415   .     S
C1251  O1277   1.279   .     A
C1252  O1276   1.285   .     A
C1252  C1261   1.415   .     S
C1252  O1278   1.279   .     A
C1253  O1281   1.280   .     A
C1253  O1279   1.278   .     A
C1253  C1255   1.402   .     S
C1254  O1282   1.280   .     A
C1254  C1256   1.402   .     S
C1254  O1280   1.278   .     A
C1256  C1305   1.330   .     S
C1256  H1318   1.088   .     S
C1257  N1285   1.424   .     S
C1257  C1262   1.405   .     A
C1258  C1261   1.405   .     A
C1258  N1291   1.423   .     S
C1258  C960    1.376   1_565 S
C1259  C1261   1.394   .     A
C1259  H1269   1.085   .     S
C1259  C957    1.376   1_565 S
C1260  C1262   1.394   .     A
C1260  H1270   1.085   .     S
C1263  O1297   1.378   .     S
C1263  N1274   1.369   .     A
C1264  N1273   1.369   .     A
C1264  O1299   1.378   .     S
C1264  C366    1.426   1_556 S
C1265  N1273   1.364   .     A
C1265  H1271   1.082   .     S
C1265  C363    1.426   1_556 S
C1266  N1274   1.364   .     A
C1266  H1272   1.082   .     S
H1267  C1305   1.088   .     S
N1273  Zn1283  2.011   .     S
N1274  Zn1284  2.011   .     S
O1275  Zn1283  1.991   .     S
O1276  Zn1284  1.991   .     S
O1277  Zn1284  1.999   .     S
O1278  Zn1283  1.999   .     S
O1279  Zn1283  1.970   .     S
O1280  Zn1284  1.970   .     S
O1281  Zn1284  1.981   .     S
O1282  Zn1283  1.981   .     S
N1285  C1287   1.447   .     S
N1285  H1286   1.032   .     S
C1287  H1288   1.112   .     S
C1287  H1290   1.111   .     S
C1287  H1289   1.110   .     S
N1291  H1292   1.032   .     S
N1291  C1293   1.447   .     S
C1293  H1294   1.112   .     S
C1293  H1295   1.111   .     S
C1293  H1296   1.110   .     S
O1297  H1298   0.992   .     S
O1299  H1300   0.992   .     S
C1301  O1325   1.285   .     A
C1301  C1312   1.415   .     S
C1301  O1327   1.279   .     A
C1302  O1326   1.285   .     A
C1302  C1311   1.415   .     S
C1302  O1328   1.279   .     A
C1303  O1331   1.280   .     A
C1303  O1329   1.278   .     A
C1303  C1305   1.402   .     S
C1304  O1332   1.280   .     A
C1304  C1306   1.402   .     S
C1304  O1330   1.278   .     A
C1306  C1205   1.330   1_655 S
C1306  H1218   1.088   1_655 S
C1307  N1335   1.424   .     S
C1307  C1312   1.405   .     A
C1308  C1311   1.405   .     A
C1308  N1341   1.423   .     S
C1308  C1010   1.376   1_565 S
C1309  C1311   1.394   .     A
C1309  H1319   1.085   .     S
C1309  C1007   1.376   1_565 S
C1310  C1312   1.394   .     A
C1310  H1320   1.085   .     S
C1313  O1347   1.378   .     S
C1313  N1324   1.369   .     A
C1314  N1323   1.369   .     A
C1314  O1349   1.378   .     S
C1314  C416    1.426   1_556 S
C1315  N1323   1.364   .     A
C1315  H1321   1.082   .     S
C1315  C413    1.426   1_556 S
C1316  N1324   1.364   .     A
C1316  H1322   1.082   .     S
H1317  C1205   1.088   1_655 S
N1323  Zn1333  2.011   .     S
N1324  Zn1334  2.011   .     S
O1325  Zn1333  1.991   .     S
O1326  Zn1334  1.991   .     S
O1327  Zn1334  1.999   .     S
O1328  Zn1333  1.999   .     S
O1329  Zn1333  1.970   .     S
O1330  Zn1334  1.970   .     S
O1331  Zn1334  1.981   .     S
O1332  Zn1333  1.981   .     S
N1335  C1337   1.447   .     S
N1335  H1336   1.032   .     S
C1337  H1338   1.112   .     S
C1337  H1340   1.111   .     S
C1337  H1339   1.110   .     S
N1341  H1342   1.032   .     S
N1341  C1343   1.447   .     S
C1343  H1344   1.112   .     S
C1343  H1345   1.111   .     S
C1343  H1346   1.110   .     S
O1347  H1348   0.992   .     S
O1349  H1350   0.992   .     S
