data_str_m2_o1_o5_pcu_sym.57
_audit_creation_date              2020-01-03
_audit_creation_method            'Materials Studio'
_symmetry_space_group_name_H-M    'P1'
_symmetry_Int_Tables_number       1
_symmetry_cell_setting            triclinic
loop_
_symmetry_equiv_pos_as_xyz
  x,y,z
_cell_length_a                    32.3986
_cell_length_b                    28.6148
_cell_length_c                    27.3550
_cell_angle_alpha                 90.0500
_cell_angle_beta                  89.2212
_cell_angle_gamma                 89.6340
loop_
_atom_site_label
_atom_site_type_symbol
_atom_site_fract_x
_atom_site_fract_y
_atom_site_fract_z
_atom_site_U_iso_or_equiv
_atom_site_adp_type
_atom_site_occupancy
C1     C     0.08754   0.16682   0.16670   0.00000  Uiso   1.00
C2     C     0.02105   0.17742   0.21057   0.00000  Uiso   1.00
C3     C     0.29050   0.16626   0.16664   0.00000  Uiso   1.00
C4     C     0.04283   0.16708   0.16669   0.00000  Uiso   1.00
C5     C     0.18719   0.02458   0.13100   0.00000  Uiso   1.00
C6     C     0.14615   0.30876   0.20233   0.00000  Uiso   1.00
C7     C     0.14604   0.02496   0.20226   0.00000  Uiso   1.00
C8     C     0.18729   0.30837   0.13107   0.00000  Uiso   1.00
C9     C     0.04769   0.14938   0.07560   0.00000  Uiso   1.00
C10    C     0.05892   0.19629   0.05273   0.00000  Uiso   1.00
C11    C     0.28565   0.18393   0.25773   0.00000  Uiso   1.00
C12    C     0.24579   0.16651   0.16664   0.00000  Uiso   1.00
C13    C     0.27441   0.13701   0.28059   0.00000  Uiso   1.00
C14    C     0.28882   0.14367   0.07658   0.00000  Uiso   1.00
C15    C     0.28488   0.09068   0.07117   0.00000  Uiso   1.00
C16    C     0.04451   0.18967   0.25675   0.00000  Uiso   1.00
C17    C     0.04843   0.24266   0.26216   0.00000  Uiso   1.00
C18    C     0.16676   0.16665   0.07352   0.00000  Uiso   1.00
C19    C     0.16658   0.16668   0.25981   0.00000  Uiso   1.00
C20    C     0.16673   0.16664   0.02182   0.00000  Uiso   1.00
C21    C     0.16660   0.16669   0.31152   0.00000  Uiso   1.00
C22    C     0.02246   0.15660   0.12270   0.00000  Uiso   1.00
C23    C     0.31088   0.17673   0.21063   0.00000  Uiso   1.00
C24    C     0.31229   0.15591   0.12276   0.00000  Uiso   1.00
Cu25   Cu    0.16667   0.21355   0.16667   0.00000  Uiso   1.00
Cu26   Cu    0.16667   0.11978   0.16667   0.00000  Uiso   1.00
H27    H     0.20343   0.04297   0.10222   0.00000  Uiso   1.00
H28    H     0.25368   0.14301   0.31255   0.00000  Uiso   1.00
H29    H     0.30269   0.11849   0.29274   0.00000  Uiso   1.00
H30    H     0.25804   0.11449   0.25427   0.00000  Uiso   1.00
H31    H     0.30161   0.20530   0.28522   0.00000  Uiso   1.00
H32    H     0.25706   0.20419   0.25080   0.00000  Uiso   1.00
H33    H     0.31535   0.07410   0.06379   0.00000  Uiso   1.00
H34    H     0.27180   0.07527   0.10514   0.00000  Uiso   1.00
H35    H     0.26407   0.08232   0.04054   0.00000  Uiso   1.00
H36    H     0.25746   0.15936   0.07668   0.00000  Uiso   1.00
H37    H     0.30370   0.15914   0.04375   0.00000  Uiso   1.00
H38    H     0.12991   0.29037   0.23111   0.00000  Uiso   1.00
H39    H     0.06921   0.25104   0.29282   0.00000  Uiso   1.00
H40    H     0.01795   0.25924   0.26950   0.00000  Uiso   1.00
H41    H     0.06154   0.25808   0.22820   0.00000  Uiso   1.00
H42    H     0.02964   0.17419   0.28957   0.00000  Uiso   1.00
H43    H     0.07588   0.17400   0.25664   0.00000  Uiso   1.00
H44    H     0.12940   0.04368   0.23077   0.00000  Uiso   1.00
H45    H     0.20393   0.28966   0.10257   0.00000  Uiso   1.00
H46    H     0.03065   0.21482   0.04059   0.00000  Uiso   1.00
H47    H     0.07532   0.21881   0.07904   0.00000  Uiso   1.00
H48    H     0.07965   0.19029   0.02077   0.00000  Uiso   1.00
H49    H     0.07627   0.12912   0.08255   0.00000  Uiso   1.00
H50    H     0.03172   0.12801   0.04812   0.00000  Uiso   1.00
N51    N     0.16667   0.28402   0.16667   0.00000  Uiso   1.00
N52    N     0.16667   0.04931   0.16667   0.00000  Uiso   1.00
O53    O     0.10655   0.20625   0.16666   0.00000  Uiso   1.00
O54    O     0.22679   0.12709   0.16667   0.00000  Uiso   1.00
O55    O     0.22679   0.20625   0.16667   0.00000  Uiso   1.00
O56    O     0.10655   0.12709   0.16666   0.00000  Uiso   1.00
O57    O     0.16667   0.20625   0.09613   0.00000  Uiso   1.00
O58    O     0.16667   0.12708   0.23720   0.00000  Uiso   1.00
O59    O     0.16667   0.20625   0.23720   0.00000  Uiso   1.00
O60    O     0.16667   0.12708   0.09613   0.00000  Uiso   1.00
C61    C     0.42087   0.16682   0.16670   0.00000  Uiso   1.00
C62    C     0.35438   0.17742   0.21057   0.00000  Uiso   1.00
C63    C     0.62384   0.16626   0.16664   0.00000  Uiso   1.00
C64    C     0.37616   0.16708   0.16669   0.00000  Uiso   1.00
C65    C     0.52052   0.02458   0.13100   0.00000  Uiso   1.00
C66    C     0.47948   0.30876   0.20233   0.00000  Uiso   1.00
C67    C     0.47937   0.02496   0.20226   0.00000  Uiso   1.00
C68    C     0.52063   0.30837   0.13107   0.00000  Uiso   1.00
C69    C     0.38102   0.14938   0.07560   0.00000  Uiso   1.00
C70    C     0.39226   0.19629   0.05273   0.00000  Uiso   1.00
C71    C     0.61898   0.18393   0.25773   0.00000  Uiso   1.00
C72    C     0.57912   0.16651   0.16664   0.00000  Uiso   1.00
C73    C     0.60775   0.13701   0.28059   0.00000  Uiso   1.00
C74    C     0.62216   0.14367   0.07658   0.00000  Uiso   1.00
C75    C     0.61821   0.09068   0.07117   0.00000  Uiso   1.00
C76    C     0.37784   0.18967   0.25675   0.00000  Uiso   1.00
C77    C     0.38177   0.24266   0.26216   0.00000  Uiso   1.00
C78    C     0.50009   0.16665   0.07352   0.00000  Uiso   1.00
C79    C     0.49991   0.16668   0.25981   0.00000  Uiso   1.00
C80    C     0.50007   0.16664   0.02182   0.00000  Uiso   1.00
C81    C     0.49994   0.16669   0.31152   0.00000  Uiso   1.00
C82    C     0.35579   0.15660   0.12270   0.00000  Uiso   1.00
C83    C     0.64421   0.17673   0.21063   0.00000  Uiso   1.00
C84    C     0.64562   0.15591   0.12276   0.00000  Uiso   1.00
Cu85   Cu    0.50000   0.21355   0.16667   0.00000  Uiso   1.00
Cu86   Cu    0.50000   0.11978   0.16667   0.00000  Uiso   1.00
H87    H     0.53676   0.04297   0.10222   0.00000  Uiso   1.00
H88    H     0.58701   0.14301   0.31255   0.00000  Uiso   1.00
H89    H     0.63603   0.11849   0.29274   0.00000  Uiso   1.00
H90    H     0.59137   0.11449   0.25427   0.00000  Uiso   1.00
H91    H     0.63494   0.20530   0.28522   0.00000  Uiso   1.00
H92    H     0.59039   0.20419   0.25080   0.00000  Uiso   1.00
H93    H     0.64868   0.07410   0.06379   0.00000  Uiso   1.00
H94    H     0.60513   0.07527   0.10514   0.00000  Uiso   1.00
H95    H     0.59741   0.08232   0.04054   0.00000  Uiso   1.00
H96    H     0.59079   0.15936   0.07668   0.00000  Uiso   1.00
H97    H     0.63703   0.15914   0.04375   0.00000  Uiso   1.00
H98    H     0.46324   0.29037   0.23111   0.00000  Uiso   1.00
H99    H     0.40254   0.25104   0.29282   0.00000  Uiso   1.00
H100   H     0.35128   0.25924   0.26950   0.00000  Uiso   1.00
H101   H     0.39488   0.25808   0.22820   0.00000  Uiso   1.00
H102   H     0.36298   0.17419   0.28957   0.00000  Uiso   1.00
H103   H     0.40921   0.17400   0.25664   0.00000  Uiso   1.00
H104   H     0.46274   0.04368   0.23077   0.00000  Uiso   1.00
H105   H     0.53726   0.28966   0.10257   0.00000  Uiso   1.00
H106   H     0.36398   0.21482   0.04059   0.00000  Uiso   1.00
H107   H     0.40865   0.21881   0.07904   0.00000  Uiso   1.00
H108   H     0.41298   0.19029   0.02077   0.00000  Uiso   1.00
H109   H     0.40961   0.12912   0.08255   0.00000  Uiso   1.00
H110   H     0.36506   0.12801   0.04812   0.00000  Uiso   1.00
N111   N     0.50000   0.28402   0.16667   0.00000  Uiso   1.00
N112   N     0.50000   0.04931   0.16667   0.00000  Uiso   1.00
O113   O     0.43988   0.20625   0.16666   0.00000  Uiso   1.00
O114   O     0.56012   0.12709   0.16667   0.00000  Uiso   1.00
O115   O     0.56012   0.20625   0.16667   0.00000  Uiso   1.00
O116   O     0.43988   0.12709   0.16666   0.00000  Uiso   1.00
O117   O     0.50000   0.20625   0.09613   0.00000  Uiso   1.00
O118   O     0.50000   0.12708   0.23720   0.00000  Uiso   1.00
O119   O     0.50000   0.20625   0.23720   0.00000  Uiso   1.00
O120   O     0.50000   0.12708   0.09613   0.00000  Uiso   1.00
C121   C     0.75421   0.16682   0.16670   0.00000  Uiso   1.00
C122   C     0.68771   0.17742   0.21057   0.00000  Uiso   1.00
C123   C     0.95717   0.16626   0.16664   0.00000  Uiso   1.00
C124   C     0.70950   0.16708   0.16669   0.00000  Uiso   1.00
C125   C     0.85385   0.02458   0.13100   0.00000  Uiso   1.00
C126   C     0.81281   0.30876   0.20233   0.00000  Uiso   1.00
C127   C     0.81271   0.02496   0.20226   0.00000  Uiso   1.00
C128   C     0.85396   0.30837   0.13107   0.00000  Uiso   1.00
C129   C     0.71435   0.14938   0.07560   0.00000  Uiso   1.00
C130   C     0.72559   0.19629   0.05273   0.00000  Uiso   1.00
C131   C     0.95231   0.18393   0.25773   0.00000  Uiso   1.00
C132   C     0.91246   0.16651   0.16664   0.00000  Uiso   1.00
C133   C     0.94108   0.13701   0.28059   0.00000  Uiso   1.00
C134   C     0.95549   0.14367   0.07658   0.00000  Uiso   1.00
C135   C     0.95155   0.09068   0.07117   0.00000  Uiso   1.00
C136   C     0.71117   0.18967   0.25675   0.00000  Uiso   1.00
C137   C     0.71510   0.24266   0.26216   0.00000  Uiso   1.00
C138   C     0.83342   0.16665   0.07352   0.00000  Uiso   1.00
C139   C     0.83324   0.16668   0.25981   0.00000  Uiso   1.00
C140   C     0.83340   0.16664   0.02182   0.00000  Uiso   1.00
C141   C     0.83327   0.16669   0.31152   0.00000  Uiso   1.00
C142   C     0.68912   0.15660   0.12270   0.00000  Uiso   1.00
C143   C     0.97754   0.17673   0.21063   0.00000  Uiso   1.00
C144   C     0.97895   0.15591   0.12276   0.00000  Uiso   1.00
Cu145  Cu    0.83333   0.21355   0.16667   0.00000  Uiso   1.00
Cu146  Cu    0.83333   0.11978   0.16667   0.00000  Uiso   1.00
H147   H     0.87009   0.04297   0.10222   0.00000  Uiso   1.00
H148   H     0.92034   0.14301   0.31255   0.00000  Uiso   1.00
H149   H     0.96936   0.11849   0.29274   0.00000  Uiso   1.00
H150   H     0.92470   0.11449   0.25427   0.00000  Uiso   1.00
H151   H     0.96827   0.20530   0.28522   0.00000  Uiso   1.00
H152   H     0.92373   0.20419   0.25080   0.00000  Uiso   1.00
H153   H     0.98202   0.07410   0.06379   0.00000  Uiso   1.00
H154   H     0.93846   0.07527   0.10514   0.00000  Uiso   1.00
H155   H     0.93074   0.08232   0.04054   0.00000  Uiso   1.00
H156   H     0.92412   0.15936   0.07668   0.00000  Uiso   1.00
H157   H     0.97036   0.15914   0.04375   0.00000  Uiso   1.00
H158   H     0.79657   0.29037   0.23111   0.00000  Uiso   1.00
H159   H     0.73587   0.25104   0.29282   0.00000  Uiso   1.00
H160   H     0.68462   0.25924   0.26950   0.00000  Uiso   1.00
H161   H     0.72821   0.25808   0.22820   0.00000  Uiso   1.00
H162   H     0.69631   0.17419   0.28957   0.00000  Uiso   1.00
H163   H     0.74255   0.17400   0.25664   0.00000  Uiso   1.00
H164   H     0.79607   0.04368   0.23077   0.00000  Uiso   1.00
H165   H     0.87060   0.28966   0.10257   0.00000  Uiso   1.00
H166   H     0.69731   0.21482   0.04059   0.00000  Uiso   1.00
H167   H     0.74199   0.21881   0.07904   0.00000  Uiso   1.00
H168   H     0.74632   0.19029   0.02077   0.00000  Uiso   1.00
H169   H     0.74294   0.12912   0.08255   0.00000  Uiso   1.00
H170   H     0.69839   0.12801   0.04812   0.00000  Uiso   1.00
N171   N     0.83333   0.28402   0.16667   0.00000  Uiso   1.00
N172   N     0.83333   0.04931   0.16667   0.00000  Uiso   1.00
O173   O     0.77321   0.20625   0.16666   0.00000  Uiso   1.00
O174   O     0.89345   0.12709   0.16667   0.00000  Uiso   1.00
O175   O     0.89345   0.20625   0.16667   0.00000  Uiso   1.00
O176   O     0.77321   0.12709   0.16666   0.00000  Uiso   1.00
O177   O     0.83333   0.20625   0.09613   0.00000  Uiso   1.00
O178   O     0.83333   0.12708   0.23720   0.00000  Uiso   1.00
O179   O     0.83333   0.20625   0.23720   0.00000  Uiso   1.00
O180   O     0.83333   0.12708   0.09613   0.00000  Uiso   1.00
C181   C     0.08754   0.50016   0.16670   0.00000  Uiso   1.00
C182   C     0.02105   0.51075   0.21057   0.00000  Uiso   1.00
C183   C     0.29050   0.49959   0.16664   0.00000  Uiso   1.00
C184   C     0.04283   0.50041   0.16669   0.00000  Uiso   1.00
C185   C     0.18719   0.35791   0.13100   0.00000  Uiso   1.00
C186   C     0.14615   0.64209   0.20233   0.00000  Uiso   1.00
C187   C     0.14604   0.35829   0.20226   0.00000  Uiso   1.00
C188   C     0.18729   0.64171   0.13107   0.00000  Uiso   1.00
C189   C     0.04769   0.48272   0.07560   0.00000  Uiso   1.00
C190   C     0.05892   0.52963   0.05273   0.00000  Uiso   1.00
C191   C     0.28565   0.51726   0.25773   0.00000  Uiso   1.00
C192   C     0.24579   0.49984   0.16664   0.00000  Uiso   1.00
C193   C     0.27441   0.47035   0.28059   0.00000  Uiso   1.00
C194   C     0.28882   0.47700   0.07658   0.00000  Uiso   1.00
C195   C     0.28488   0.42401   0.07117   0.00000  Uiso   1.00
C196   C     0.04451   0.52301   0.25675   0.00000  Uiso   1.00
C197   C     0.04843   0.57600   0.26216   0.00000  Uiso   1.00
C198   C     0.16676   0.49998   0.07352   0.00000  Uiso   1.00
C199   C     0.16658   0.50002   0.25981   0.00000  Uiso   1.00
C200   C     0.16673   0.49997   0.02182   0.00000  Uiso   1.00
C201   C     0.16660   0.50003   0.31152   0.00000  Uiso   1.00
C202   C     0.02246   0.48993   0.12270   0.00000  Uiso   1.00
C203   C     0.31088   0.51006   0.21063   0.00000  Uiso   1.00
C204   C     0.31229   0.48925   0.12276   0.00000  Uiso   1.00
Cu205  Cu    0.16667   0.54689   0.16667   0.00000  Uiso   1.00
Cu206  Cu    0.16667   0.45311   0.16667   0.00000  Uiso   1.00
H207   H     0.20343   0.37630   0.10222   0.00000  Uiso   1.00
H208   H     0.25368   0.47634   0.31255   0.00000  Uiso   1.00
H209   H     0.30269   0.45183   0.29274   0.00000  Uiso   1.00
H210   H     0.25804   0.44783   0.25427   0.00000  Uiso   1.00
H211   H     0.30161   0.53863   0.28522   0.00000  Uiso   1.00
H212   H     0.25706   0.53752   0.25080   0.00000  Uiso   1.00
H213   H     0.31535   0.40743   0.06379   0.00000  Uiso   1.00
H214   H     0.27180   0.40860   0.10514   0.00000  Uiso   1.00
H215   H     0.26407   0.41565   0.04054   0.00000  Uiso   1.00
H216   H     0.25746   0.49269   0.07668   0.00000  Uiso   1.00
H217   H     0.30370   0.49248   0.04375   0.00000  Uiso   1.00
H218   H     0.12991   0.62370   0.23111   0.00000  Uiso   1.00
H219   H     0.06921   0.58437   0.29282   0.00000  Uiso   1.00
H220   H     0.01795   0.59257   0.26950   0.00000  Uiso   1.00
H221   H     0.06154   0.59141   0.22820   0.00000  Uiso   1.00
H222   H     0.02964   0.50753   0.28957   0.00000  Uiso   1.00
H223   H     0.07588   0.50734   0.25664   0.00000  Uiso   1.00
H224   H     0.12940   0.37701   0.23077   0.00000  Uiso   1.00
H225   H     0.20393   0.62299   0.10257   0.00000  Uiso   1.00
H226   H     0.03065   0.54815   0.04059   0.00000  Uiso   1.00
H227   H     0.07532   0.55215   0.07904   0.00000  Uiso   1.00
H228   H     0.07965   0.52362   0.02077   0.00000  Uiso   1.00
H229   H     0.07627   0.46245   0.08255   0.00000  Uiso   1.00
H230   H     0.03172   0.46134   0.04812   0.00000  Uiso   1.00
N231   N     0.16667   0.61736   0.16667   0.00000  Uiso   1.00
N232   N     0.16667   0.38264   0.16667   0.00000  Uiso   1.00
O233   O     0.10655   0.53958   0.16666   0.00000  Uiso   1.00
O234   O     0.22679   0.46042   0.16667   0.00000  Uiso   1.00
O235   O     0.22679   0.53958   0.16667   0.00000  Uiso   1.00
O236   O     0.10655   0.46042   0.16666   0.00000  Uiso   1.00
O237   O     0.16667   0.53959   0.09613   0.00000  Uiso   1.00
O238   O     0.16667   0.46041   0.23720   0.00000  Uiso   1.00
O239   O     0.16667   0.53959   0.23720   0.00000  Uiso   1.00
O240   O     0.16667   0.46041   0.09613   0.00000  Uiso   1.00
C241   C     0.42087   0.50016   0.16670   0.00000  Uiso   1.00
C242   C     0.35438   0.51075   0.21057   0.00000  Uiso   1.00
C243   C     0.62384   0.49959   0.16664   0.00000  Uiso   1.00
C244   C     0.37616   0.50041   0.16669   0.00000  Uiso   1.00
C245   C     0.52052   0.35791   0.13100   0.00000  Uiso   1.00
C246   C     0.47948   0.64209   0.20233   0.00000  Uiso   1.00
C247   C     0.47937   0.35829   0.20226   0.00000  Uiso   1.00
C248   C     0.52063   0.64171   0.13107   0.00000  Uiso   1.00
C249   C     0.38102   0.48272   0.07560   0.00000  Uiso   1.00
C250   C     0.39226   0.52963   0.05273   0.00000  Uiso   1.00
C251   C     0.61898   0.51726   0.25773   0.00000  Uiso   1.00
C252   C     0.57912   0.49984   0.16664   0.00000  Uiso   1.00
C253   C     0.60775   0.47035   0.28059   0.00000  Uiso   1.00
C254   C     0.62216   0.47700   0.07658   0.00000  Uiso   1.00
C255   C     0.61821   0.42401   0.07117   0.00000  Uiso   1.00
C256   C     0.37784   0.52301   0.25675   0.00000  Uiso   1.00
C257   C     0.38177   0.57600   0.26216   0.00000  Uiso   1.00
C258   C     0.50009   0.49998   0.07352   0.00000  Uiso   1.00
C259   C     0.49991   0.50002   0.25981   0.00000  Uiso   1.00
C260   C     0.50007   0.49997   0.02182   0.00000  Uiso   1.00
C261   C     0.49994   0.50003   0.31152   0.00000  Uiso   1.00
C262   C     0.35579   0.48993   0.12270   0.00000  Uiso   1.00
C263   C     0.64421   0.51006   0.21063   0.00000  Uiso   1.00
C264   C     0.64562   0.48925   0.12276   0.00000  Uiso   1.00
Cu265  Cu    0.50000   0.54689   0.16667   0.00000  Uiso   1.00
Cu266  Cu    0.50000   0.45311   0.16667   0.00000  Uiso   1.00
H267   H     0.53676   0.37630   0.10222   0.00000  Uiso   1.00
H268   H     0.58701   0.47634   0.31255   0.00000  Uiso   1.00
H269   H     0.63603   0.45183   0.29274   0.00000  Uiso   1.00
H270   H     0.59137   0.44783   0.25427   0.00000  Uiso   1.00
H271   H     0.63494   0.53863   0.28522   0.00000  Uiso   1.00
H272   H     0.59039   0.53752   0.25080   0.00000  Uiso   1.00
H273   H     0.64868   0.40743   0.06379   0.00000  Uiso   1.00
H274   H     0.60513   0.40860   0.10514   0.00000  Uiso   1.00
H275   H     0.59741   0.41565   0.04054   0.00000  Uiso   1.00
H276   H     0.59079   0.49269   0.07668   0.00000  Uiso   1.00
H277   H     0.63703   0.49248   0.04375   0.00000  Uiso   1.00
H278   H     0.46324   0.62370   0.23111   0.00000  Uiso   1.00
H279   H     0.40254   0.58437   0.29282   0.00000  Uiso   1.00
H280   H     0.35128   0.59257   0.26950   0.00000  Uiso   1.00
H281   H     0.39488   0.59141   0.22820   0.00000  Uiso   1.00
H282   H     0.36298   0.50753   0.28957   0.00000  Uiso   1.00
H283   H     0.40921   0.50734   0.25664   0.00000  Uiso   1.00
H284   H     0.46274   0.37701   0.23077   0.00000  Uiso   1.00
H285   H     0.53726   0.62299   0.10257   0.00000  Uiso   1.00
H286   H     0.36398   0.54815   0.04059   0.00000  Uiso   1.00
H287   H     0.40865   0.55215   0.07904   0.00000  Uiso   1.00
H288   H     0.41298   0.52362   0.02077   0.00000  Uiso   1.00
H289   H     0.40961   0.46245   0.08255   0.00000  Uiso   1.00
H290   H     0.36506   0.46134   0.04812   0.00000  Uiso   1.00
N291   N     0.50000   0.61736   0.16667   0.00000  Uiso   1.00
N292   N     0.50000   0.38264   0.16667   0.00000  Uiso   1.00
O293   O     0.43988   0.53958   0.16666   0.00000  Uiso   1.00
O294   O     0.56012   0.46042   0.16667   0.00000  Uiso   1.00
O295   O     0.56012   0.53958   0.16667   0.00000  Uiso   1.00
O296   O     0.43988   0.46042   0.16666   0.00000  Uiso   1.00
O297   O     0.50000   0.53959   0.09613   0.00000  Uiso   1.00
O298   O     0.50000   0.46041   0.23720   0.00000  Uiso   1.00
O299   O     0.50000   0.53959   0.23720   0.00000  Uiso   1.00
O300   O     0.50000   0.46041   0.09613   0.00000  Uiso   1.00
C301   C     0.75421   0.50016   0.16670   0.00000  Uiso   1.00
C302   C     0.68771   0.51075   0.21057   0.00000  Uiso   1.00
C303   C     0.95717   0.49959   0.16664   0.00000  Uiso   1.00
C304   C     0.70950   0.50041   0.16669   0.00000  Uiso   1.00
C305   C     0.85385   0.35791   0.13100   0.00000  Uiso   1.00
C306   C     0.81281   0.64209   0.20233   0.00000  Uiso   1.00
C307   C     0.81271   0.35829   0.20226   0.00000  Uiso   1.00
C308   C     0.85396   0.64171   0.13107   0.00000  Uiso   1.00
C309   C     0.71435   0.48272   0.07560   0.00000  Uiso   1.00
C310   C     0.72559   0.52963   0.05273   0.00000  Uiso   1.00
C311   C     0.95231   0.51726   0.25773   0.00000  Uiso   1.00
C312   C     0.91246   0.49984   0.16664   0.00000  Uiso   1.00
C313   C     0.94108   0.47035   0.28059   0.00000  Uiso   1.00
C314   C     0.95549   0.47700   0.07658   0.00000  Uiso   1.00
C315   C     0.95155   0.42401   0.07117   0.00000  Uiso   1.00
C316   C     0.71117   0.52301   0.25675   0.00000  Uiso   1.00
C317   C     0.71510   0.57600   0.26216   0.00000  Uiso   1.00
C318   C     0.83342   0.49998   0.07352   0.00000  Uiso   1.00
C319   C     0.83324   0.50002   0.25981   0.00000  Uiso   1.00
C320   C     0.83340   0.49997   0.02182   0.00000  Uiso   1.00
C321   C     0.83327   0.50003   0.31152   0.00000  Uiso   1.00
C322   C     0.68912   0.48993   0.12270   0.00000  Uiso   1.00
C323   C     0.97754   0.51006   0.21063   0.00000  Uiso   1.00
C324   C     0.97895   0.48925   0.12276   0.00000  Uiso   1.00
Cu325  Cu    0.83333   0.54689   0.16667   0.00000  Uiso   1.00
Cu326  Cu    0.83333   0.45311   0.16667   0.00000  Uiso   1.00
H327   H     0.87009   0.37630   0.10222   0.00000  Uiso   1.00
H328   H     0.92034   0.47634   0.31255   0.00000  Uiso   1.00
H329   H     0.96936   0.45183   0.29274   0.00000  Uiso   1.00
H330   H     0.92470   0.44783   0.25427   0.00000  Uiso   1.00
H331   H     0.96827   0.53863   0.28522   0.00000  Uiso   1.00
H332   H     0.92373   0.53752   0.25080   0.00000  Uiso   1.00
H333   H     0.98202   0.40743   0.06379   0.00000  Uiso   1.00
H334   H     0.93846   0.40860   0.10514   0.00000  Uiso   1.00
H335   H     0.93074   0.41565   0.04054   0.00000  Uiso   1.00
H336   H     0.92412   0.49269   0.07668   0.00000  Uiso   1.00
H337   H     0.97036   0.49248   0.04375   0.00000  Uiso   1.00
H338   H     0.79657   0.62370   0.23111   0.00000  Uiso   1.00
H339   H     0.73587   0.58437   0.29282   0.00000  Uiso   1.00
H340   H     0.68462   0.59257   0.26950   0.00000  Uiso   1.00
H341   H     0.72821   0.59141   0.22820   0.00000  Uiso   1.00
H342   H     0.69631   0.50753   0.28957   0.00000  Uiso   1.00
H343   H     0.74255   0.50734   0.25664   0.00000  Uiso   1.00
H344   H     0.79607   0.37701   0.23077   0.00000  Uiso   1.00
H345   H     0.87060   0.62299   0.10257   0.00000  Uiso   1.00
H346   H     0.69731   0.54815   0.04059   0.00000  Uiso   1.00
H347   H     0.74199   0.55215   0.07904   0.00000  Uiso   1.00
H348   H     0.74632   0.52362   0.02077   0.00000  Uiso   1.00
H349   H     0.74294   0.46245   0.08255   0.00000  Uiso   1.00
H350   H     0.69839   0.46134   0.04812   0.00000  Uiso   1.00
N351   N     0.83333   0.61736   0.16667   0.00000  Uiso   1.00
N352   N     0.83333   0.38264   0.16667   0.00000  Uiso   1.00
O353   O     0.77321   0.53958   0.16666   0.00000  Uiso   1.00
O354   O     0.89345   0.46042   0.16667   0.00000  Uiso   1.00
O355   O     0.89345   0.53958   0.16667   0.00000  Uiso   1.00
O356   O     0.77321   0.46042   0.16666   0.00000  Uiso   1.00
O357   O     0.83333   0.53959   0.09613   0.00000  Uiso   1.00
O358   O     0.83333   0.46041   0.23720   0.00000  Uiso   1.00
O359   O     0.83333   0.53959   0.23720   0.00000  Uiso   1.00
O360   O     0.83333   0.46041   0.09613   0.00000  Uiso   1.00
C361   C     0.08754   0.83349   0.16670   0.00000  Uiso   1.00
C362   C     0.02105   0.84409   0.21057   0.00000  Uiso   1.00
C363   C     0.29050   0.83292   0.16664   0.00000  Uiso   1.00
C364   C     0.04283   0.83374   0.16669   0.00000  Uiso   1.00
C365   C     0.18719   0.69124   0.13100   0.00000  Uiso   1.00
C366   C     0.14615   0.97542   0.20233   0.00000  Uiso   1.00
C367   C     0.14604   0.69163   0.20226   0.00000  Uiso   1.00
C368   C     0.18729   0.97504   0.13107   0.00000  Uiso   1.00
C369   C     0.04769   0.81605   0.07560   0.00000  Uiso   1.00
C370   C     0.05892   0.86296   0.05273   0.00000  Uiso   1.00
C371   C     0.28565   0.85060   0.25773   0.00000  Uiso   1.00
C372   C     0.24579   0.83318   0.16664   0.00000  Uiso   1.00
C373   C     0.27441   0.80368   0.28059   0.00000  Uiso   1.00
C374   C     0.28882   0.81034   0.07658   0.00000  Uiso   1.00
C375   C     0.28488   0.75735   0.07117   0.00000  Uiso   1.00
C376   C     0.04451   0.85634   0.25675   0.00000  Uiso   1.00
C377   C     0.04843   0.90933   0.26216   0.00000  Uiso   1.00
C378   C     0.16676   0.83332   0.07352   0.00000  Uiso   1.00
C379   C     0.16658   0.83335   0.25981   0.00000  Uiso   1.00
C380   C     0.16673   0.83331   0.02182   0.00000  Uiso   1.00
C381   C     0.16660   0.83336   0.31152   0.00000  Uiso   1.00
C382   C     0.02246   0.82327   0.12270   0.00000  Uiso   1.00
C383   C     0.31088   0.84339   0.21063   0.00000  Uiso   1.00
C384   C     0.31229   0.82258   0.12276   0.00000  Uiso   1.00
Cu385  Cu    0.16667   0.88022   0.16667   0.00000  Uiso   1.00
Cu386  Cu    0.16667   0.78645   0.16667   0.00000  Uiso   1.00
H387   H     0.20343   0.70963   0.10222   0.00000  Uiso   1.00
H388   H     0.25368   0.80967   0.31255   0.00000  Uiso   1.00
H389   H     0.30269   0.78516   0.29274   0.00000  Uiso   1.00
H390   H     0.25804   0.78116   0.25427   0.00000  Uiso   1.00
H391   H     0.30161   0.87197   0.28522   0.00000  Uiso   1.00
H392   H     0.25706   0.87086   0.25080   0.00000  Uiso   1.00
H393   H     0.31535   0.74076   0.06379   0.00000  Uiso   1.00
H394   H     0.27180   0.74193   0.10514   0.00000  Uiso   1.00
H395   H     0.26407   0.74898   0.04054   0.00000  Uiso   1.00
H396   H     0.25746   0.82602   0.07668   0.00000  Uiso   1.00
H397   H     0.30370   0.82581   0.04375   0.00000  Uiso   1.00
H398   H     0.12991   0.95703   0.23111   0.00000  Uiso   1.00
H399   H     0.06921   0.91771   0.29282   0.00000  Uiso   1.00
H400   H     0.01795   0.92591   0.26950   0.00000  Uiso   1.00
H401   H     0.06154   0.92474   0.22820   0.00000  Uiso   1.00
H402   H     0.02964   0.84086   0.28957   0.00000  Uiso   1.00
H403   H     0.07588   0.84067   0.25664   0.00000  Uiso   1.00
H404   H     0.12940   0.71034   0.23077   0.00000  Uiso   1.00
H405   H     0.20393   0.95632   0.10257   0.00000  Uiso   1.00
H406   H     0.03065   0.88149   0.04059   0.00000  Uiso   1.00
H407   H     0.07532   0.88548   0.07904   0.00000  Uiso   1.00
H408   H     0.07965   0.85695   0.02077   0.00000  Uiso   1.00
H409   H     0.07627   0.79579   0.08255   0.00000  Uiso   1.00
H410   H     0.03172   0.79467   0.04812   0.00000  Uiso   1.00
N411   N     0.16667   0.95069   0.16667   0.00000  Uiso   1.00
N412   N     0.16667   0.71598   0.16667   0.00000  Uiso   1.00
O413   O     0.10655   0.87291   0.16666   0.00000  Uiso   1.00
O414   O     0.22679   0.79375   0.16667   0.00000  Uiso   1.00
O415   O     0.22679   0.87291   0.16667   0.00000  Uiso   1.00
O416   O     0.10655   0.79375   0.16666   0.00000  Uiso   1.00
O417   O     0.16667   0.87292   0.09613   0.00000  Uiso   1.00
O418   O     0.16667   0.79375   0.23720   0.00000  Uiso   1.00
O419   O     0.16667   0.87292   0.23720   0.00000  Uiso   1.00
O420   O     0.16667   0.79375   0.09613   0.00000  Uiso   1.00
C421   C     0.42087   0.83349   0.16670   0.00000  Uiso   1.00
C422   C     0.35438   0.84409   0.21057   0.00000  Uiso   1.00
C423   C     0.62384   0.83292   0.16664   0.00000  Uiso   1.00
C424   C     0.37616   0.83374   0.16669   0.00000  Uiso   1.00
C425   C     0.52052   0.69124   0.13100   0.00000  Uiso   1.00
C426   C     0.47948   0.97542   0.20233   0.00000  Uiso   1.00
C427   C     0.47937   0.69163   0.20226   0.00000  Uiso   1.00
C428   C     0.52063   0.97504   0.13107   0.00000  Uiso   1.00
C429   C     0.38102   0.81605   0.07560   0.00000  Uiso   1.00
C430   C     0.39226   0.86296   0.05273   0.00000  Uiso   1.00
C431   C     0.61898   0.85060   0.25773   0.00000  Uiso   1.00
C432   C     0.57912   0.83318   0.16664   0.00000  Uiso   1.00
C433   C     0.60775   0.80368   0.28059   0.00000  Uiso   1.00
C434   C     0.62216   0.81034   0.07658   0.00000  Uiso   1.00
C435   C     0.61821   0.75735   0.07117   0.00000  Uiso   1.00
C436   C     0.37784   0.85634   0.25675   0.00000  Uiso   1.00
C437   C     0.38177   0.90933   0.26216   0.00000  Uiso   1.00
C438   C     0.50009   0.83332   0.07352   0.00000  Uiso   1.00
C439   C     0.49991   0.83335   0.25981   0.00000  Uiso   1.00
C440   C     0.50007   0.83331   0.02182   0.00000  Uiso   1.00
C441   C     0.49994   0.83336   0.31152   0.00000  Uiso   1.00
C442   C     0.35579   0.82327   0.12270   0.00000  Uiso   1.00
C443   C     0.64421   0.84339   0.21063   0.00000  Uiso   1.00
C444   C     0.64562   0.82258   0.12276   0.00000  Uiso   1.00
Cu445  Cu    0.50000   0.88022   0.16667   0.00000  Uiso   1.00
Cu446  Cu    0.50000   0.78645   0.16667   0.00000  Uiso   1.00
H447   H     0.53676   0.70963   0.10222   0.00000  Uiso   1.00
H448   H     0.58701   0.80967   0.31255   0.00000  Uiso   1.00
H449   H     0.63603   0.78516   0.29274   0.00000  Uiso   1.00
H450   H     0.59137   0.78116   0.25427   0.00000  Uiso   1.00
H451   H     0.63494   0.87197   0.28522   0.00000  Uiso   1.00
H452   H     0.59039   0.87086   0.25080   0.00000  Uiso   1.00
H453   H     0.64868   0.74076   0.06379   0.00000  Uiso   1.00
H454   H     0.60513   0.74193   0.10514   0.00000  Uiso   1.00
H455   H     0.59741   0.74898   0.04054   0.00000  Uiso   1.00
H456   H     0.59079   0.82602   0.07668   0.00000  Uiso   1.00
H457   H     0.63703   0.82581   0.04375   0.00000  Uiso   1.00
H458   H     0.46324   0.95703   0.23111   0.00000  Uiso   1.00
H459   H     0.40254   0.91771   0.29282   0.00000  Uiso   1.00
H460   H     0.35128   0.92591   0.26950   0.00000  Uiso   1.00
H461   H     0.39488   0.92474   0.22820   0.00000  Uiso   1.00
H462   H     0.36298   0.84086   0.28957   0.00000  Uiso   1.00
H463   H     0.40921   0.84067   0.25664   0.00000  Uiso   1.00
H464   H     0.46274   0.71034   0.23077   0.00000  Uiso   1.00
H465   H     0.53726   0.95632   0.10257   0.00000  Uiso   1.00
H466   H     0.36398   0.88149   0.04059   0.00000  Uiso   1.00
H467   H     0.40865   0.88548   0.07904   0.00000  Uiso   1.00
H468   H     0.41298   0.85695   0.02077   0.00000  Uiso   1.00
H469   H     0.40961   0.79579   0.08255   0.00000  Uiso   1.00
H470   H     0.36506   0.79467   0.04812   0.00000  Uiso   1.00
N471   N     0.50000   0.95069   0.16667   0.00000  Uiso   1.00
N472   N     0.50000   0.71598   0.16667   0.00000  Uiso   1.00
O473   O     0.43988   0.87291   0.16666   0.00000  Uiso   1.00
O474   O     0.56012   0.79375   0.16667   0.00000  Uiso   1.00
O475   O     0.56012   0.87291   0.16667   0.00000  Uiso   1.00
O476   O     0.43988   0.79375   0.16666   0.00000  Uiso   1.00
O477   O     0.50000   0.87292   0.09613   0.00000  Uiso   1.00
O478   O     0.50000   0.79375   0.23720   0.00000  Uiso   1.00
O479   O     0.50000   0.87292   0.23720   0.00000  Uiso   1.00
O480   O     0.50000   0.79375   0.09613   0.00000  Uiso   1.00
C481   C     0.75421   0.83349   0.16670   0.00000  Uiso   1.00
C482   C     0.68771   0.84409   0.21057   0.00000  Uiso   1.00
C483   C     0.95717   0.83292   0.16664   0.00000  Uiso   1.00
C484   C     0.70950   0.83374   0.16669   0.00000  Uiso   1.00
C485   C     0.85385   0.69124   0.13100   0.00000  Uiso   1.00
C486   C     0.81281   0.97542   0.20233   0.00000  Uiso   1.00
C487   C     0.81271   0.69163   0.20226   0.00000  Uiso   1.00
C488   C     0.85396   0.97504   0.13107   0.00000  Uiso   1.00
C489   C     0.71435   0.81605   0.07560   0.00000  Uiso   1.00
C490   C     0.72559   0.86296   0.05273   0.00000  Uiso   1.00
C491   C     0.95231   0.85060   0.25773   0.00000  Uiso   1.00
C492   C     0.91246   0.83318   0.16664   0.00000  Uiso   1.00
C493   C     0.94108   0.80368   0.28059   0.00000  Uiso   1.00
C494   C     0.95549   0.81034   0.07658   0.00000  Uiso   1.00
C495   C     0.95155   0.75735   0.07117   0.00000  Uiso   1.00
C496   C     0.71117   0.85634   0.25675   0.00000  Uiso   1.00
C497   C     0.71510   0.90933   0.26216   0.00000  Uiso   1.00
C498   C     0.83342   0.83332   0.07352   0.00000  Uiso   1.00
C499   C     0.83324   0.83335   0.25981   0.00000  Uiso   1.00
C500   C     0.83340   0.83331   0.02182   0.00000  Uiso   1.00
C501   C     0.83327   0.83336   0.31152   0.00000  Uiso   1.00
C502   C     0.68912   0.82327   0.12270   0.00000  Uiso   1.00
C503   C     0.97754   0.84339   0.21063   0.00000  Uiso   1.00
C504   C     0.97895   0.82258   0.12276   0.00000  Uiso   1.00
Cu505  Cu    0.83333   0.88022   0.16667   0.00000  Uiso   1.00
Cu506  Cu    0.83333   0.78645   0.16667   0.00000  Uiso   1.00
H507   H     0.87009   0.70963   0.10222   0.00000  Uiso   1.00
H508   H     0.92034   0.80967   0.31255   0.00000  Uiso   1.00
H509   H     0.96936   0.78516   0.29274   0.00000  Uiso   1.00
H510   H     0.92470   0.78116   0.25427   0.00000  Uiso   1.00
H511   H     0.96827   0.87197   0.28522   0.00000  Uiso   1.00
H512   H     0.92373   0.87086   0.25080   0.00000  Uiso   1.00
H513   H     0.98202   0.74076   0.06379   0.00000  Uiso   1.00
H514   H     0.93846   0.74193   0.10514   0.00000  Uiso   1.00
H515   H     0.93074   0.74898   0.04054   0.00000  Uiso   1.00
H516   H     0.92412   0.82602   0.07668   0.00000  Uiso   1.00
H517   H     0.97036   0.82581   0.04375   0.00000  Uiso   1.00
H518   H     0.79657   0.95703   0.23111   0.00000  Uiso   1.00
H519   H     0.73587   0.91771   0.29282   0.00000  Uiso   1.00
H520   H     0.68462   0.92591   0.26950   0.00000  Uiso   1.00
H521   H     0.72821   0.92474   0.22820   0.00000  Uiso   1.00
H522   H     0.69631   0.84086   0.28957   0.00000  Uiso   1.00
H523   H     0.74255   0.84067   0.25664   0.00000  Uiso   1.00
H524   H     0.79607   0.71034   0.23077   0.00000  Uiso   1.00
H525   H     0.87060   0.95632   0.10257   0.00000  Uiso   1.00
H526   H     0.69731   0.88149   0.04059   0.00000  Uiso   1.00
H527   H     0.74199   0.88548   0.07904   0.00000  Uiso   1.00
H528   H     0.74632   0.85695   0.02077   0.00000  Uiso   1.00
H529   H     0.74294   0.79579   0.08255   0.00000  Uiso   1.00
H530   H     0.69839   0.79467   0.04812   0.00000  Uiso   1.00
N531   N     0.83333   0.95069   0.16667   0.00000  Uiso   1.00
N532   N     0.83333   0.71598   0.16667   0.00000  Uiso   1.00
O533   O     0.77321   0.87291   0.16666   0.00000  Uiso   1.00
O534   O     0.89345   0.79375   0.16667   0.00000  Uiso   1.00
O535   O     0.89345   0.87291   0.16667   0.00000  Uiso   1.00
O536   O     0.77321   0.79375   0.16666   0.00000  Uiso   1.00
O537   O     0.83333   0.87292   0.09613   0.00000  Uiso   1.00
O538   O     0.83333   0.79375   0.23720   0.00000  Uiso   1.00
O539   O     0.83333   0.87292   0.23720   0.00000  Uiso   1.00
O540   O     0.83333   0.79375   0.09613   0.00000  Uiso   1.00
C541   C     0.08754   0.16682   0.50003   0.00000  Uiso   1.00
C542   C     0.02105   0.17742   0.54391   0.00000  Uiso   1.00
C543   C     0.29050   0.16626   0.49998   0.00000  Uiso   1.00
C544   C     0.04283   0.16708   0.50002   0.00000  Uiso   1.00
C545   C     0.18719   0.02458   0.46434   0.00000  Uiso   1.00
C546   C     0.14615   0.30876   0.53566   0.00000  Uiso   1.00
C547   C     0.14604   0.02496   0.53559   0.00000  Uiso   1.00
C548   C     0.18729   0.30837   0.46441   0.00000  Uiso   1.00
C549   C     0.04769   0.14938   0.40894   0.00000  Uiso   1.00
C550   C     0.05892   0.19629   0.38607   0.00000  Uiso   1.00
C551   C     0.28565   0.18393   0.59106   0.00000  Uiso   1.00
C552   C     0.24579   0.16651   0.49997   0.00000  Uiso   1.00
C553   C     0.27441   0.13701   0.61392   0.00000  Uiso   1.00
C554   C     0.28882   0.14367   0.40991   0.00000  Uiso   1.00
C555   C     0.28488   0.09068   0.40451   0.00000  Uiso   1.00
C556   C     0.04451   0.18967   0.59008   0.00000  Uiso   1.00
C557   C     0.04843   0.24266   0.59549   0.00000  Uiso   1.00
C558   C     0.16676   0.16665   0.40685   0.00000  Uiso   1.00
C559   C     0.16658   0.16668   0.59315   0.00000  Uiso   1.00
C560   C     0.16673   0.16664   0.35515   0.00000  Uiso   1.00
C561   C     0.16660   0.16669   0.64485   0.00000  Uiso   1.00
C562   C     0.02246   0.15660   0.45603   0.00000  Uiso   1.00
C563   C     0.31088   0.17673   0.54397   0.00000  Uiso   1.00
C564   C     0.31229   0.15591   0.45609   0.00000  Uiso   1.00
Cu565  Cu    0.16667   0.21355   0.50000   0.00000  Uiso   1.00
Cu566  Cu    0.16667   0.11978   0.50000   0.00000  Uiso   1.00
H567   H     0.20343   0.04297   0.43555   0.00000  Uiso   1.00
H568   H     0.25368   0.14301   0.64588   0.00000  Uiso   1.00
H569   H     0.30269   0.11849   0.62608   0.00000  Uiso   1.00
H570   H     0.25804   0.11449   0.58761   0.00000  Uiso   1.00
H571   H     0.30161   0.20530   0.61855   0.00000  Uiso   1.00
H572   H     0.25706   0.20419   0.58413   0.00000  Uiso   1.00
H573   H     0.31535   0.07410   0.39712   0.00000  Uiso   1.00
H574   H     0.27180   0.07527   0.43848   0.00000  Uiso   1.00
H575   H     0.26407   0.08232   0.37387   0.00000  Uiso   1.00
H576   H     0.25746   0.15936   0.41002   0.00000  Uiso   1.00
H577   H     0.30370   0.15914   0.37709   0.00000  Uiso   1.00
H578   H     0.12991   0.29037   0.56445   0.00000  Uiso   1.00
H579   H     0.06921   0.25104   0.62615   0.00000  Uiso   1.00
H580   H     0.01795   0.25924   0.60283   0.00000  Uiso   1.00
H581   H     0.06154   0.25808   0.56153   0.00000  Uiso   1.00
H582   H     0.02964   0.17419   0.62291   0.00000  Uiso   1.00
H583   H     0.07588   0.17400   0.58998   0.00000  Uiso   1.00
H584   H     0.12940   0.04368   0.56410   0.00000  Uiso   1.00
H585   H     0.20393   0.28966   0.43590   0.00000  Uiso   1.00
H586   H     0.03065   0.21482   0.37392   0.00000  Uiso   1.00
H587   H     0.07532   0.21881   0.41237   0.00000  Uiso   1.00
H588   H     0.07965   0.19029   0.35410   0.00000  Uiso   1.00
H589   H     0.07627   0.12912   0.41588   0.00000  Uiso   1.00
H590   H     0.03172   0.12801   0.38146   0.00000  Uiso   1.00
N591   N     0.16667   0.28402   0.50000   0.00000  Uiso   1.00
N592   N     0.16667   0.04931   0.50000   0.00000  Uiso   1.00
O593   O     0.10655   0.20625   0.50000   0.00000  Uiso   1.00
O594   O     0.22679   0.12709   0.50000   0.00000  Uiso   1.00
O595   O     0.22679   0.20625   0.50000   0.00000  Uiso   1.00
O596   O     0.10655   0.12709   0.50000   0.00000  Uiso   1.00
O597   O     0.16667   0.20625   0.42946   0.00000  Uiso   1.00
O598   O     0.16667   0.12708   0.57054   0.00000  Uiso   1.00
O599   O     0.16667   0.20625   0.57054   0.00000  Uiso   1.00
O600   O     0.16667   0.12708   0.42946   0.00000  Uiso   1.00
C601   C     0.42087   0.16682   0.50003   0.00000  Uiso   1.00
C602   C     0.35438   0.17742   0.54391   0.00000  Uiso   1.00
C603   C     0.62384   0.16626   0.49998   0.00000  Uiso   1.00
C604   C     0.37616   0.16708   0.50002   0.00000  Uiso   1.00
C605   C     0.52052   0.02458   0.46434   0.00000  Uiso   1.00
C606   C     0.47948   0.30876   0.53566   0.00000  Uiso   1.00
C607   C     0.47937   0.02496   0.53559   0.00000  Uiso   1.00
C608   C     0.52063   0.30837   0.46441   0.00000  Uiso   1.00
C609   C     0.38102   0.14938   0.40894   0.00000  Uiso   1.00
C610   C     0.39226   0.19629   0.38607   0.00000  Uiso   1.00
C611   C     0.61898   0.18393   0.59106   0.00000  Uiso   1.00
C612   C     0.57912   0.16651   0.49997   0.00000  Uiso   1.00
C613   C     0.60775   0.13701   0.61392   0.00000  Uiso   1.00
C614   C     0.62216   0.14367   0.40991   0.00000  Uiso   1.00
C615   C     0.61821   0.09068   0.40451   0.00000  Uiso   1.00
C616   C     0.37784   0.18967   0.59008   0.00000  Uiso   1.00
C617   C     0.38177   0.24266   0.59549   0.00000  Uiso   1.00
C618   C     0.50009   0.16665   0.40685   0.00000  Uiso   1.00
C619   C     0.49991   0.16668   0.59315   0.00000  Uiso   1.00
C620   C     0.50007   0.16664   0.35515   0.00000  Uiso   1.00
C621   C     0.49994   0.16669   0.64485   0.00000  Uiso   1.00
C622   C     0.35579   0.15660   0.45603   0.00000  Uiso   1.00
C623   C     0.64421   0.17673   0.54397   0.00000  Uiso   1.00
C624   C     0.64562   0.15591   0.45609   0.00000  Uiso   1.00
Cu625  Cu    0.50000   0.21355   0.50000   0.00000  Uiso   1.00
Cu626  Cu    0.50000   0.11978   0.50000   0.00000  Uiso   1.00
H627   H     0.53676   0.04297   0.43555   0.00000  Uiso   1.00
H628   H     0.58701   0.14301   0.64588   0.00000  Uiso   1.00
H629   H     0.63603   0.11849   0.62608   0.00000  Uiso   1.00
H630   H     0.59137   0.11449   0.58761   0.00000  Uiso   1.00
H631   H     0.63494   0.20530   0.61855   0.00000  Uiso   1.00
H632   H     0.59039   0.20419   0.58413   0.00000  Uiso   1.00
H633   H     0.64868   0.07410   0.39712   0.00000  Uiso   1.00
H634   H     0.60513   0.07527   0.43848   0.00000  Uiso   1.00
H635   H     0.59741   0.08232   0.37387   0.00000  Uiso   1.00
H636   H     0.59079   0.15936   0.41002   0.00000  Uiso   1.00
H637   H     0.63703   0.15914   0.37709   0.00000  Uiso   1.00
H638   H     0.46324   0.29037   0.56445   0.00000  Uiso   1.00
H639   H     0.40254   0.25104   0.62615   0.00000  Uiso   1.00
H640   H     0.35128   0.25924   0.60283   0.00000  Uiso   1.00
H641   H     0.39488   0.25808   0.56153   0.00000  Uiso   1.00
H642   H     0.36298   0.17419   0.62291   0.00000  Uiso   1.00
H643   H     0.40921   0.17400   0.58998   0.00000  Uiso   1.00
H644   H     0.46274   0.04368   0.56410   0.00000  Uiso   1.00
H645   H     0.53726   0.28966   0.43590   0.00000  Uiso   1.00
H646   H     0.36398   0.21482   0.37392   0.00000  Uiso   1.00
H647   H     0.40865   0.21881   0.41237   0.00000  Uiso   1.00
H648   H     0.41298   0.19029   0.35410   0.00000  Uiso   1.00
H649   H     0.40961   0.12912   0.41588   0.00000  Uiso   1.00
H650   H     0.36506   0.12801   0.38146   0.00000  Uiso   1.00
N651   N     0.50000   0.28402   0.50000   0.00000  Uiso   1.00
N652   N     0.50000   0.04931   0.50000   0.00000  Uiso   1.00
O653   O     0.43988   0.20625   0.50000   0.00000  Uiso   1.00
O654   O     0.56012   0.12709   0.50000   0.00000  Uiso   1.00
O655   O     0.56012   0.20625   0.50000   0.00000  Uiso   1.00
O656   O     0.43988   0.12709   0.50000   0.00000  Uiso   1.00
O657   O     0.50000   0.20625   0.42946   0.00000  Uiso   1.00
O658   O     0.50000   0.12708   0.57054   0.00000  Uiso   1.00
O659   O     0.50000   0.20625   0.57054   0.00000  Uiso   1.00
O660   O     0.50000   0.12708   0.42946   0.00000  Uiso   1.00
C661   C     0.75421   0.16682   0.50003   0.00000  Uiso   1.00
C662   C     0.68771   0.17742   0.54391   0.00000  Uiso   1.00
C663   C     0.95717   0.16626   0.49998   0.00000  Uiso   1.00
C664   C     0.70950   0.16708   0.50002   0.00000  Uiso   1.00
C665   C     0.85385   0.02458   0.46434   0.00000  Uiso   1.00
C666   C     0.81281   0.30876   0.53566   0.00000  Uiso   1.00
C667   C     0.81271   0.02496   0.53559   0.00000  Uiso   1.00
C668   C     0.85396   0.30837   0.46441   0.00000  Uiso   1.00
C669   C     0.71435   0.14938   0.40894   0.00000  Uiso   1.00
C670   C     0.72559   0.19629   0.38607   0.00000  Uiso   1.00
C671   C     0.95231   0.18393   0.59106   0.00000  Uiso   1.00
C672   C     0.91246   0.16651   0.49997   0.00000  Uiso   1.00
C673   C     0.94108   0.13701   0.61392   0.00000  Uiso   1.00
C674   C     0.95549   0.14367   0.40991   0.00000  Uiso   1.00
C675   C     0.95155   0.09068   0.40451   0.00000  Uiso   1.00
C676   C     0.71117   0.18967   0.59008   0.00000  Uiso   1.00
C677   C     0.71510   0.24266   0.59549   0.00000  Uiso   1.00
C678   C     0.83342   0.16665   0.40685   0.00000  Uiso   1.00
C679   C     0.83324   0.16668   0.59315   0.00000  Uiso   1.00
C680   C     0.83340   0.16664   0.35515   0.00000  Uiso   1.00
C681   C     0.83327   0.16669   0.64485   0.00000  Uiso   1.00
C682   C     0.68912   0.15660   0.45603   0.00000  Uiso   1.00
C683   C     0.97754   0.17673   0.54397   0.00000  Uiso   1.00
C684   C     0.97895   0.15591   0.45609   0.00000  Uiso   1.00
Cu685  Cu    0.83333   0.21355   0.50000   0.00000  Uiso   1.00
Cu686  Cu    0.83333   0.11978   0.50000   0.00000  Uiso   1.00
H687   H     0.87009   0.04297   0.43555   0.00000  Uiso   1.00
H688   H     0.92034   0.14301   0.64588   0.00000  Uiso   1.00
H689   H     0.96936   0.11849   0.62608   0.00000  Uiso   1.00
H690   H     0.92470   0.11449   0.58761   0.00000  Uiso   1.00
H691   H     0.96827   0.20530   0.61855   0.00000  Uiso   1.00
H692   H     0.92373   0.20419   0.58413   0.00000  Uiso   1.00
H693   H     0.98202   0.07410   0.39712   0.00000  Uiso   1.00
H694   H     0.93846   0.07527   0.43848   0.00000  Uiso   1.00
H695   H     0.93074   0.08232   0.37387   0.00000  Uiso   1.00
H696   H     0.92412   0.15936   0.41002   0.00000  Uiso   1.00
H697   H     0.97036   0.15914   0.37709   0.00000  Uiso   1.00
H698   H     0.79657   0.29037   0.56445   0.00000  Uiso   1.00
H699   H     0.73587   0.25104   0.62615   0.00000  Uiso   1.00
H700   H     0.68462   0.25924   0.60283   0.00000  Uiso   1.00
H701   H     0.72821   0.25808   0.56153   0.00000  Uiso   1.00
H702   H     0.69631   0.17419   0.62291   0.00000  Uiso   1.00
H703   H     0.74255   0.17400   0.58998   0.00000  Uiso   1.00
H704   H     0.79607   0.04368   0.56410   0.00000  Uiso   1.00
H705   H     0.87060   0.28966   0.43590   0.00000  Uiso   1.00
H706   H     0.69731   0.21482   0.37392   0.00000  Uiso   1.00
H707   H     0.74199   0.21881   0.41237   0.00000  Uiso   1.00
H708   H     0.74632   0.19029   0.35410   0.00000  Uiso   1.00
H709   H     0.74294   0.12912   0.41588   0.00000  Uiso   1.00
H710   H     0.69839   0.12801   0.38146   0.00000  Uiso   1.00
N711   N     0.83333   0.28402   0.50000   0.00000  Uiso   1.00
N712   N     0.83333   0.04931   0.50000   0.00000  Uiso   1.00
O713   O     0.77321   0.20625   0.50000   0.00000  Uiso   1.00
O714   O     0.89345   0.12709   0.50000   0.00000  Uiso   1.00
O715   O     0.89345   0.20625   0.50000   0.00000  Uiso   1.00
O716   O     0.77321   0.12709   0.50000   0.00000  Uiso   1.00
O717   O     0.83333   0.20625   0.42946   0.00000  Uiso   1.00
O718   O     0.83333   0.12708   0.57054   0.00000  Uiso   1.00
O719   O     0.83333   0.20625   0.57054   0.00000  Uiso   1.00
O720   O     0.83333   0.12708   0.42946   0.00000  Uiso   1.00
C721   C     0.08754   0.50016   0.50003   0.00000  Uiso   1.00
C722   C     0.02105   0.51075   0.54391   0.00000  Uiso   1.00
C723   C     0.29050   0.49959   0.49998   0.00000  Uiso   1.00
C724   C     0.04283   0.50041   0.50002   0.00000  Uiso   1.00
C725   C     0.18719   0.35791   0.46434   0.00000  Uiso   1.00
C726   C     0.14615   0.64209   0.53566   0.00000  Uiso   1.00
C727   C     0.14604   0.35829   0.53559   0.00000  Uiso   1.00
C728   C     0.18729   0.64171   0.46441   0.00000  Uiso   1.00
C729   C     0.04769   0.48272   0.40894   0.00000  Uiso   1.00
C730   C     0.05892   0.52963   0.38607   0.00000  Uiso   1.00
C731   C     0.28565   0.51726   0.59106   0.00000  Uiso   1.00
C732   C     0.24579   0.49984   0.49997   0.00000  Uiso   1.00
C733   C     0.27441   0.47035   0.61392   0.00000  Uiso   1.00
C734   C     0.28882   0.47700   0.40991   0.00000  Uiso   1.00
C735   C     0.28488   0.42401   0.40451   0.00000  Uiso   1.00
C736   C     0.04451   0.52301   0.59008   0.00000  Uiso   1.00
C737   C     0.04843   0.57600   0.59549   0.00000  Uiso   1.00
C738   C     0.16676   0.49998   0.40685   0.00000  Uiso   1.00
C739   C     0.16658   0.50002   0.59315   0.00000  Uiso   1.00
C740   C     0.16673   0.49997   0.35515   0.00000  Uiso   1.00
C741   C     0.16660   0.50003   0.64485   0.00000  Uiso   1.00
C742   C     0.02246   0.48993   0.45603   0.00000  Uiso   1.00
C743   C     0.31088   0.51006   0.54397   0.00000  Uiso   1.00
C744   C     0.31229   0.48925   0.45609   0.00000  Uiso   1.00
Cu745  Cu    0.16667   0.54689   0.50000   0.00000  Uiso   1.00
Cu746  Cu    0.16667   0.45311   0.50000   0.00000  Uiso   1.00
H747   H     0.20343   0.37630   0.43555   0.00000  Uiso   1.00
H748   H     0.25368   0.47634   0.64588   0.00000  Uiso   1.00
H749   H     0.30269   0.45183   0.62608   0.00000  Uiso   1.00
H750   H     0.25804   0.44783   0.58761   0.00000  Uiso   1.00
H751   H     0.30161   0.53863   0.61855   0.00000  Uiso   1.00
H752   H     0.25706   0.53752   0.58413   0.00000  Uiso   1.00
H753   H     0.31535   0.40743   0.39712   0.00000  Uiso   1.00
H754   H     0.27180   0.40860   0.43848   0.00000  Uiso   1.00
H755   H     0.26407   0.41565   0.37387   0.00000  Uiso   1.00
H756   H     0.25746   0.49269   0.41002   0.00000  Uiso   1.00
H757   H     0.30370   0.49248   0.37709   0.00000  Uiso   1.00
H758   H     0.12991   0.62370   0.56445   0.00000  Uiso   1.00
H759   H     0.06921   0.58437   0.62615   0.00000  Uiso   1.00
H760   H     0.01795   0.59257   0.60283   0.00000  Uiso   1.00
H761   H     0.06154   0.59141   0.56153   0.00000  Uiso   1.00
H762   H     0.02964   0.50753   0.62291   0.00000  Uiso   1.00
H763   H     0.07588   0.50734   0.58998   0.00000  Uiso   1.00
H764   H     0.12940   0.37701   0.56410   0.00000  Uiso   1.00
H765   H     0.20393   0.62299   0.43590   0.00000  Uiso   1.00
H766   H     0.03065   0.54815   0.37392   0.00000  Uiso   1.00
H767   H     0.07532   0.55215   0.41237   0.00000  Uiso   1.00
H768   H     0.07965   0.52362   0.35410   0.00000  Uiso   1.00
H769   H     0.07627   0.46245   0.41588   0.00000  Uiso   1.00
H770   H     0.03172   0.46134   0.38146   0.00000  Uiso   1.00
N771   N     0.16667   0.61736   0.50000   0.00000  Uiso   1.00
N772   N     0.16667   0.38264   0.50000   0.00000  Uiso   1.00
O773   O     0.10655   0.53958   0.50000   0.00000  Uiso   1.00
O774   O     0.22679   0.46042   0.50000   0.00000  Uiso   1.00
O775   O     0.22679   0.53958   0.50000   0.00000  Uiso   1.00
O776   O     0.10655   0.46042   0.50000   0.00000  Uiso   1.00
O777   O     0.16667   0.53959   0.42946   0.00000  Uiso   1.00
O778   O     0.16667   0.46041   0.57054   0.00000  Uiso   1.00
O779   O     0.16667   0.53959   0.57054   0.00000  Uiso   1.00
O780   O     0.16667   0.46041   0.42946   0.00000  Uiso   1.00
C781   C     0.42087   0.50016   0.50003   0.00000  Uiso   1.00
C782   C     0.35438   0.51075   0.54391   0.00000  Uiso   1.00
C783   C     0.62384   0.49959   0.49998   0.00000  Uiso   1.00
C784   C     0.37616   0.50041   0.50002   0.00000  Uiso   1.00
C785   C     0.52052   0.35791   0.46434   0.00000  Uiso   1.00
C786   C     0.47948   0.64209   0.53566   0.00000  Uiso   1.00
C787   C     0.47937   0.35829   0.53559   0.00000  Uiso   1.00
C788   C     0.52063   0.64171   0.46441   0.00000  Uiso   1.00
C789   C     0.38102   0.48272   0.40894   0.00000  Uiso   1.00
C790   C     0.39226   0.52963   0.38607   0.00000  Uiso   1.00
C791   C     0.61898   0.51726   0.59106   0.00000  Uiso   1.00
C792   C     0.57912   0.49984   0.49997   0.00000  Uiso   1.00
C793   C     0.60775   0.47035   0.61392   0.00000  Uiso   1.00
C794   C     0.62216   0.47700   0.40991   0.00000  Uiso   1.00
C795   C     0.61821   0.42401   0.40451   0.00000  Uiso   1.00
C796   C     0.37784   0.52301   0.59008   0.00000  Uiso   1.00
C797   C     0.38177   0.57600   0.59549   0.00000  Uiso   1.00
C798   C     0.50009   0.49998   0.40685   0.00000  Uiso   1.00
C799   C     0.49991   0.50002   0.59315   0.00000  Uiso   1.00
C800   C     0.50007   0.49997   0.35515   0.00000  Uiso   1.00
C801   C     0.49994   0.50003   0.64485   0.00000  Uiso   1.00
C802   C     0.35579   0.48993   0.45603   0.00000  Uiso   1.00
C803   C     0.64421   0.51006   0.54397   0.00000  Uiso   1.00
C804   C     0.64562   0.48925   0.45609   0.00000  Uiso   1.00
Cu805  Cu    0.50000   0.54689   0.50000   0.00000  Uiso   1.00
Cu806  Cu    0.50000   0.45311   0.50000   0.00000  Uiso   1.00
H807   H     0.53676   0.37630   0.43555   0.00000  Uiso   1.00
H808   H     0.58701   0.47634   0.64588   0.00000  Uiso   1.00
H809   H     0.63603   0.45183   0.62608   0.00000  Uiso   1.00
H810   H     0.59137   0.44783   0.58761   0.00000  Uiso   1.00
H811   H     0.63494   0.53863   0.61855   0.00000  Uiso   1.00
H812   H     0.59039   0.53752   0.58413   0.00000  Uiso   1.00
H813   H     0.64868   0.40743   0.39712   0.00000  Uiso   1.00
H814   H     0.60513   0.40860   0.43848   0.00000  Uiso   1.00
H815   H     0.59741   0.41565   0.37387   0.00000  Uiso   1.00
H816   H     0.59079   0.49269   0.41002   0.00000  Uiso   1.00
H817   H     0.63703   0.49248   0.37709   0.00000  Uiso   1.00
H818   H     0.46324   0.62370   0.56445   0.00000  Uiso   1.00
H819   H     0.40254   0.58437   0.62615   0.00000  Uiso   1.00
H820   H     0.35128   0.59257   0.60283   0.00000  Uiso   1.00
H821   H     0.39488   0.59141   0.56153   0.00000  Uiso   1.00
H822   H     0.36298   0.50753   0.62291   0.00000  Uiso   1.00
H823   H     0.40921   0.50734   0.58998   0.00000  Uiso   1.00
H824   H     0.46274   0.37701   0.56410   0.00000  Uiso   1.00
H825   H     0.53726   0.62299   0.43590   0.00000  Uiso   1.00
H826   H     0.36398   0.54815   0.37392   0.00000  Uiso   1.00
H827   H     0.40865   0.55215   0.41237   0.00000  Uiso   1.00
H828   H     0.41298   0.52362   0.35410   0.00000  Uiso   1.00
H829   H     0.40961   0.46245   0.41588   0.00000  Uiso   1.00
H830   H     0.36506   0.46134   0.38146   0.00000  Uiso   1.00
N831   N     0.50000   0.61736   0.50000   0.00000  Uiso   1.00
N832   N     0.50000   0.38264   0.50000   0.00000  Uiso   1.00
O833   O     0.43988   0.53958   0.50000   0.00000  Uiso   1.00
O834   O     0.56012   0.46042   0.50000   0.00000  Uiso   1.00
O835   O     0.56012   0.53958   0.50000   0.00000  Uiso   1.00
O836   O     0.43988   0.46042   0.50000   0.00000  Uiso   1.00
O837   O     0.50000   0.53959   0.42946   0.00000  Uiso   1.00
O838   O     0.50000   0.46041   0.57054   0.00000  Uiso   1.00
O839   O     0.50000   0.53959   0.57054   0.00000  Uiso   1.00
O840   O     0.50000   0.46041   0.42946   0.00000  Uiso   1.00
C841   C     0.75421   0.50016   0.50003   0.00000  Uiso   1.00
C842   C     0.68771   0.51075   0.54391   0.00000  Uiso   1.00
C843   C     0.95717   0.49959   0.49998   0.00000  Uiso   1.00
C844   C     0.70950   0.50041   0.50002   0.00000  Uiso   1.00
C845   C     0.85385   0.35791   0.46434   0.00000  Uiso   1.00
C846   C     0.81281   0.64209   0.53566   0.00000  Uiso   1.00
C847   C     0.81271   0.35829   0.53559   0.00000  Uiso   1.00
C848   C     0.85396   0.64171   0.46441   0.00000  Uiso   1.00
C849   C     0.71435   0.48272   0.40894   0.00000  Uiso   1.00
C850   C     0.72559   0.52963   0.38607   0.00000  Uiso   1.00
C851   C     0.95231   0.51726   0.59106   0.00000  Uiso   1.00
C852   C     0.91246   0.49984   0.49997   0.00000  Uiso   1.00
C853   C     0.94108   0.47035   0.61392   0.00000  Uiso   1.00
C854   C     0.95549   0.47700   0.40991   0.00000  Uiso   1.00
C855   C     0.95155   0.42401   0.40451   0.00000  Uiso   1.00
C856   C     0.71117   0.52301   0.59008   0.00000  Uiso   1.00
C857   C     0.71510   0.57600   0.59549   0.00000  Uiso   1.00
C858   C     0.83342   0.49998   0.40685   0.00000  Uiso   1.00
C859   C     0.83324   0.50002   0.59315   0.00000  Uiso   1.00
C860   C     0.83340   0.49997   0.35515   0.00000  Uiso   1.00
C861   C     0.83327   0.50003   0.64485   0.00000  Uiso   1.00
C862   C     0.68912   0.48993   0.45603   0.00000  Uiso   1.00
C863   C     0.97754   0.51006   0.54397   0.00000  Uiso   1.00
C864   C     0.97895   0.48925   0.45609   0.00000  Uiso   1.00
Cu865  Cu    0.83333   0.54689   0.50000   0.00000  Uiso   1.00
Cu866  Cu    0.83333   0.45311   0.50000   0.00000  Uiso   1.00
H867   H     0.87009   0.37630   0.43555   0.00000  Uiso   1.00
H868   H     0.92034   0.47634   0.64588   0.00000  Uiso   1.00
H869   H     0.96936   0.45183   0.62608   0.00000  Uiso   1.00
H870   H     0.92470   0.44783   0.58761   0.00000  Uiso   1.00
H871   H     0.96827   0.53863   0.61855   0.00000  Uiso   1.00
H872   H     0.92373   0.53752   0.58413   0.00000  Uiso   1.00
H873   H     0.98202   0.40743   0.39712   0.00000  Uiso   1.00
H874   H     0.93846   0.40860   0.43848   0.00000  Uiso   1.00
H875   H     0.93074   0.41565   0.37387   0.00000  Uiso   1.00
H876   H     0.92412   0.49269   0.41002   0.00000  Uiso   1.00
H877   H     0.97036   0.49248   0.37709   0.00000  Uiso   1.00
H878   H     0.79657   0.62370   0.56445   0.00000  Uiso   1.00
H879   H     0.73587   0.58437   0.62615   0.00000  Uiso   1.00
H880   H     0.68462   0.59257   0.60283   0.00000  Uiso   1.00
H881   H     0.72821   0.59141   0.56153   0.00000  Uiso   1.00
H882   H     0.69631   0.50753   0.62291   0.00000  Uiso   1.00
H883   H     0.74255   0.50734   0.58998   0.00000  Uiso   1.00
H884   H     0.79607   0.37701   0.56410   0.00000  Uiso   1.00
H885   H     0.87060   0.62299   0.43590   0.00000  Uiso   1.00
H886   H     0.69731   0.54815   0.37392   0.00000  Uiso   1.00
H887   H     0.74199   0.55215   0.41237   0.00000  Uiso   1.00
H888   H     0.74632   0.52362   0.35410   0.00000  Uiso   1.00
H889   H     0.74294   0.46245   0.41588   0.00000  Uiso   1.00
H890   H     0.69839   0.46134   0.38146   0.00000  Uiso   1.00
N891   N     0.83333   0.61736   0.50000   0.00000  Uiso   1.00
N892   N     0.83333   0.38264   0.50000   0.00000  Uiso   1.00
O893   O     0.77321   0.53958   0.50000   0.00000  Uiso   1.00
O894   O     0.89345   0.46042   0.50000   0.00000  Uiso   1.00
O895   O     0.89345   0.53958   0.50000   0.00000  Uiso   1.00
O896   O     0.77321   0.46042   0.50000   0.00000  Uiso   1.00
O897   O     0.83333   0.53959   0.42946   0.00000  Uiso   1.00
O898   O     0.83333   0.46041   0.57054   0.00000  Uiso   1.00
O899   O     0.83333   0.53959   0.57054   0.00000  Uiso   1.00
O900   O     0.83333   0.46041   0.42946   0.00000  Uiso   1.00
C901   C     0.08754   0.83349   0.50003   0.00000  Uiso   1.00
C902   C     0.02105   0.84409   0.54391   0.00000  Uiso   1.00
C903   C     0.29050   0.83292   0.49998   0.00000  Uiso   1.00
C904   C     0.04283   0.83374   0.50002   0.00000  Uiso   1.00
C905   C     0.18719   0.69124   0.46434   0.00000  Uiso   1.00
C906   C     0.14615   0.97542   0.53566   0.00000  Uiso   1.00
C907   C     0.14604   0.69163   0.53559   0.00000  Uiso   1.00
C908   C     0.18729   0.97504   0.46441   0.00000  Uiso   1.00
C909   C     0.04769   0.81605   0.40894   0.00000  Uiso   1.00
C910   C     0.05892   0.86296   0.38607   0.00000  Uiso   1.00
C911   C     0.28565   0.85060   0.59106   0.00000  Uiso   1.00
C912   C     0.24579   0.83318   0.49997   0.00000  Uiso   1.00
C913   C     0.27441   0.80368   0.61392   0.00000  Uiso   1.00
C914   C     0.28882   0.81034   0.40991   0.00000  Uiso   1.00
C915   C     0.28488   0.75735   0.40451   0.00000  Uiso   1.00
C916   C     0.04451   0.85634   0.59008   0.00000  Uiso   1.00
C917   C     0.04843   0.90933   0.59549   0.00000  Uiso   1.00
C918   C     0.16676   0.83332   0.40685   0.00000  Uiso   1.00
C919   C     0.16658   0.83335   0.59315   0.00000  Uiso   1.00
C920   C     0.16673   0.83331   0.35515   0.00000  Uiso   1.00
C921   C     0.16660   0.83336   0.64485   0.00000  Uiso   1.00
C922   C     0.02246   0.82327   0.45603   0.00000  Uiso   1.00
C923   C     0.31088   0.84339   0.54397   0.00000  Uiso   1.00
C924   C     0.31229   0.82258   0.45609   0.00000  Uiso   1.00
Cu925  Cu    0.16667   0.88022   0.50000   0.00000  Uiso   1.00
Cu926  Cu    0.16667   0.78645   0.50000   0.00000  Uiso   1.00
H927   H     0.20343   0.70963   0.43555   0.00000  Uiso   1.00
H928   H     0.25368   0.80967   0.64588   0.00000  Uiso   1.00
H929   H     0.30269   0.78516   0.62608   0.00000  Uiso   1.00
H930   H     0.25804   0.78116   0.58761   0.00000  Uiso   1.00
H931   H     0.30161   0.87197   0.61855   0.00000  Uiso   1.00
H932   H     0.25706   0.87086   0.58413   0.00000  Uiso   1.00
H933   H     0.31535   0.74076   0.39712   0.00000  Uiso   1.00
H934   H     0.27180   0.74193   0.43848   0.00000  Uiso   1.00
H935   H     0.26407   0.74898   0.37387   0.00000  Uiso   1.00
H936   H     0.25746   0.82602   0.41002   0.00000  Uiso   1.00
H937   H     0.30370   0.82581   0.37709   0.00000  Uiso   1.00
H938   H     0.12991   0.95703   0.56445   0.00000  Uiso   1.00
H939   H     0.06921   0.91771   0.62615   0.00000  Uiso   1.00
H940   H     0.01795   0.92591   0.60283   0.00000  Uiso   1.00
H941   H     0.06154   0.92474   0.56153   0.00000  Uiso   1.00
H942   H     0.02964   0.84086   0.62291   0.00000  Uiso   1.00
H943   H     0.07588   0.84067   0.58998   0.00000  Uiso   1.00
H944   H     0.12940   0.71034   0.56410   0.00000  Uiso   1.00
H945   H     0.20393   0.95632   0.43590   0.00000  Uiso   1.00
H946   H     0.03065   0.88149   0.37392   0.00000  Uiso   1.00
H947   H     0.07532   0.88548   0.41237   0.00000  Uiso   1.00
H948   H     0.07965   0.85695   0.35410   0.00000  Uiso   1.00
H949   H     0.07627   0.79579   0.41588   0.00000  Uiso   1.00
H950   H     0.03172   0.79467   0.38146   0.00000  Uiso   1.00
N951   N     0.16667   0.95069   0.50000   0.00000  Uiso   1.00
N952   N     0.16667   0.71598   0.50000   0.00000  Uiso   1.00
O953   O     0.10655   0.87291   0.50000   0.00000  Uiso   1.00
O954   O     0.22679   0.79375   0.50000   0.00000  Uiso   1.00
O955   O     0.22679   0.87291   0.50000   0.00000  Uiso   1.00
O956   O     0.10655   0.79375   0.50000   0.00000  Uiso   1.00
O957   O     0.16667   0.87292   0.42946   0.00000  Uiso   1.00
O958   O     0.16667   0.79375   0.57054   0.00000  Uiso   1.00
O959   O     0.16667   0.87292   0.57054   0.00000  Uiso   1.00
O960   O     0.16667   0.79375   0.42946   0.00000  Uiso   1.00
C961   C     0.42087   0.83349   0.50003   0.00000  Uiso   1.00
C962   C     0.35438   0.84409   0.54391   0.00000  Uiso   1.00
C963   C     0.62384   0.83292   0.49998   0.00000  Uiso   1.00
C964   C     0.37616   0.83374   0.50002   0.00000  Uiso   1.00
C965   C     0.52052   0.69124   0.46434   0.00000  Uiso   1.00
C966   C     0.47948   0.97542   0.53566   0.00000  Uiso   1.00
C967   C     0.47937   0.69163   0.53559   0.00000  Uiso   1.00
C968   C     0.52063   0.97504   0.46441   0.00000  Uiso   1.00
C969   C     0.38102   0.81605   0.40894   0.00000  Uiso   1.00
C970   C     0.39226   0.86296   0.38607   0.00000  Uiso   1.00
C971   C     0.61898   0.85060   0.59106   0.00000  Uiso   1.00
C972   C     0.57912   0.83318   0.49997   0.00000  Uiso   1.00
C973   C     0.60775   0.80368   0.61392   0.00000  Uiso   1.00
C974   C     0.62216   0.81034   0.40991   0.00000  Uiso   1.00
C975   C     0.61821   0.75735   0.40451   0.00000  Uiso   1.00
C976   C     0.37784   0.85634   0.59008   0.00000  Uiso   1.00
C977   C     0.38177   0.90933   0.59549   0.00000  Uiso   1.00
C978   C     0.50009   0.83332   0.40685   0.00000  Uiso   1.00
C979   C     0.49991   0.83335   0.59315   0.00000  Uiso   1.00
C980   C     0.50007   0.83331   0.35515   0.00000  Uiso   1.00
C981   C     0.49994   0.83336   0.64485   0.00000  Uiso   1.00
C982   C     0.35579   0.82327   0.45603   0.00000  Uiso   1.00
C983   C     0.64421   0.84339   0.54397   0.00000  Uiso   1.00
C984   C     0.64562   0.82258   0.45609   0.00000  Uiso   1.00
Cu985  Cu    0.50000   0.88022   0.50000   0.00000  Uiso   1.00
Cu986  Cu    0.50000   0.78645   0.50000   0.00000  Uiso   1.00
H987   H     0.53676   0.70963   0.43555   0.00000  Uiso   1.00
H988   H     0.58701   0.80967   0.64588   0.00000  Uiso   1.00
H989   H     0.63603   0.78516   0.62608   0.00000  Uiso   1.00
H990   H     0.59137   0.78116   0.58761   0.00000  Uiso   1.00
H991   H     0.63494   0.87197   0.61855   0.00000  Uiso   1.00
H992   H     0.59039   0.87086   0.58413   0.00000  Uiso   1.00
H993   H     0.64868   0.74076   0.39712   0.00000  Uiso   1.00
H994   H     0.60513   0.74193   0.43848   0.00000  Uiso   1.00
H995   H     0.59741   0.74898   0.37387   0.00000  Uiso   1.00
H996   H     0.59079   0.82602   0.41002   0.00000  Uiso   1.00
H997   H     0.63703   0.82581   0.37709   0.00000  Uiso   1.00
H998   H     0.46324   0.95703   0.56445   0.00000  Uiso   1.00
H999   H     0.40254   0.91771   0.62615   0.00000  Uiso   1.00
H1000  H     0.35128   0.92591   0.60283   0.00000  Uiso   1.00
H1001  H     0.39488   0.92474   0.56153   0.00000  Uiso   1.00
H1002  H     0.36298   0.84086   0.62291   0.00000  Uiso   1.00
H1003  H     0.40921   0.84067   0.58998   0.00000  Uiso   1.00
H1004  H     0.46274   0.71034   0.56410   0.00000  Uiso   1.00
H1005  H     0.53726   0.95632   0.43590   0.00000  Uiso   1.00
H1006  H     0.36398   0.88149   0.37392   0.00000  Uiso   1.00
H1007  H     0.40865   0.88548   0.41237   0.00000  Uiso   1.00
H1008  H     0.41298   0.85695   0.35410   0.00000  Uiso   1.00
H1009  H     0.40961   0.79579   0.41588   0.00000  Uiso   1.00
H1010  H     0.36506   0.79467   0.38146   0.00000  Uiso   1.00
N1011  N     0.50000   0.95069   0.50000   0.00000  Uiso   1.00
N1012  N     0.50000   0.71598   0.50000   0.00000  Uiso   1.00
O1013  O     0.43988   0.87291   0.50000   0.00000  Uiso   1.00
O1014  O     0.56012   0.79375   0.50000   0.00000  Uiso   1.00
O1015  O     0.56012   0.87291   0.50000   0.00000  Uiso   1.00
O1016  O     0.43988   0.79375   0.50000   0.00000  Uiso   1.00
O1017  O     0.50000   0.87292   0.42946   0.00000  Uiso   1.00
O1018  O     0.50000   0.79375   0.57054   0.00000  Uiso   1.00
O1019  O     0.50000   0.87292   0.57054   0.00000  Uiso   1.00
O1020  O     0.50000   0.79375   0.42946   0.00000  Uiso   1.00
C1021  C     0.75421   0.83349   0.50003   0.00000  Uiso   1.00
C1022  C     0.68771   0.84409   0.54391   0.00000  Uiso   1.00
C1023  C     0.95717   0.83292   0.49998   0.00000  Uiso   1.00
C1024  C     0.70950   0.83374   0.50002   0.00000  Uiso   1.00
C1025  C     0.85385   0.69124   0.46434   0.00000  Uiso   1.00
C1026  C     0.81281   0.97542   0.53566   0.00000  Uiso   1.00
C1027  C     0.81271   0.69163   0.53559   0.00000  Uiso   1.00
C1028  C     0.85396   0.97504   0.46441   0.00000  Uiso   1.00
C1029  C     0.71435   0.81605   0.40894   0.00000  Uiso   1.00
C1030  C     0.72559   0.86296   0.38607   0.00000  Uiso   1.00
C1031  C     0.95231   0.85060   0.59106   0.00000  Uiso   1.00
C1032  C     0.91246   0.83318   0.49997   0.00000  Uiso   1.00
C1033  C     0.94108   0.80368   0.61392   0.00000  Uiso   1.00
C1034  C     0.95549   0.81034   0.40991   0.00000  Uiso   1.00
C1035  C     0.95155   0.75735   0.40451   0.00000  Uiso   1.00
C1036  C     0.71117   0.85634   0.59008   0.00000  Uiso   1.00
C1037  C     0.71510   0.90933   0.59549   0.00000  Uiso   1.00
C1038  C     0.83342   0.83332   0.40685   0.00000  Uiso   1.00
C1039  C     0.83324   0.83335   0.59315   0.00000  Uiso   1.00
C1040  C     0.83340   0.83331   0.35515   0.00000  Uiso   1.00
C1041  C     0.83327   0.83336   0.64485   0.00000  Uiso   1.00
C1042  C     0.68912   0.82327   0.45603   0.00000  Uiso   1.00
C1043  C     0.97754   0.84339   0.54397   0.00000  Uiso   1.00
C1044  C     0.97895   0.82258   0.45609   0.00000  Uiso   1.00
Cu1045 Cu    0.83333   0.88022   0.50000   0.00000  Uiso   1.00
Cu1046 Cu    0.83333   0.78645   0.50000   0.00000  Uiso   1.00
H1047  H     0.87009   0.70963   0.43555   0.00000  Uiso   1.00
H1048  H     0.92034   0.80967   0.64588   0.00000  Uiso   1.00
H1049  H     0.96936   0.78516   0.62608   0.00000  Uiso   1.00
H1050  H     0.92470   0.78116   0.58761   0.00000  Uiso   1.00
H1051  H     0.96827   0.87197   0.61855   0.00000  Uiso   1.00
H1052  H     0.92373   0.87086   0.58413   0.00000  Uiso   1.00
H1053  H     0.98202   0.74076   0.39712   0.00000  Uiso   1.00
H1054  H     0.93846   0.74193   0.43848   0.00000  Uiso   1.00
H1055  H     0.93074   0.74898   0.37387   0.00000  Uiso   1.00
H1056  H     0.92412   0.82602   0.41002   0.00000  Uiso   1.00
H1057  H     0.97036   0.82581   0.37709   0.00000  Uiso   1.00
H1058  H     0.79657   0.95703   0.56445   0.00000  Uiso   1.00
H1059  H     0.73587   0.91771   0.62615   0.00000  Uiso   1.00
H1060  H     0.68462   0.92591   0.60283   0.00000  Uiso   1.00
H1061  H     0.72821   0.92474   0.56153   0.00000  Uiso   1.00
H1062  H     0.69631   0.84086   0.62291   0.00000  Uiso   1.00
H1063  H     0.74255   0.84067   0.58998   0.00000  Uiso   1.00
H1064  H     0.79607   0.71034   0.56410   0.00000  Uiso   1.00
H1065  H     0.87060   0.95632   0.43590   0.00000  Uiso   1.00
H1066  H     0.69731   0.88149   0.37392   0.00000  Uiso   1.00
H1067  H     0.74199   0.88548   0.41237   0.00000  Uiso   1.00
H1068  H     0.74632   0.85695   0.35410   0.00000  Uiso   1.00
H1069  H     0.74294   0.79579   0.41588   0.00000  Uiso   1.00
H1070  H     0.69839   0.79467   0.38146   0.00000  Uiso   1.00
N1071  N     0.83333   0.95069   0.50000   0.00000  Uiso   1.00
N1072  N     0.83333   0.71598   0.50000   0.00000  Uiso   1.00
O1073  O     0.77321   0.87291   0.50000   0.00000  Uiso   1.00
O1074  O     0.89345   0.79375   0.50000   0.00000  Uiso   1.00
O1075  O     0.89345   0.87291   0.50000   0.00000  Uiso   1.00
O1076  O     0.77321   0.79375   0.50000   0.00000  Uiso   1.00
O1077  O     0.83333   0.87292   0.42946   0.00000  Uiso   1.00
O1078  O     0.83333   0.79375   0.57054   0.00000  Uiso   1.00
O1079  O     0.83333   0.87292   0.57054   0.00000  Uiso   1.00
O1080  O     0.83333   0.79375   0.42946   0.00000  Uiso   1.00
C1081  C     0.08754   0.16682   0.83336   0.00000  Uiso   1.00
C1082  C     0.02105   0.17742   0.87724   0.00000  Uiso   1.00
C1083  C     0.29050   0.16626   0.83331   0.00000  Uiso   1.00
C1084  C     0.04283   0.16708   0.83336   0.00000  Uiso   1.00
C1085  C     0.18719   0.02458   0.79767   0.00000  Uiso   1.00
C1086  C     0.14615   0.30876   0.86900   0.00000  Uiso   1.00
C1087  C     0.14604   0.02496   0.86893   0.00000  Uiso   1.00
C1088  C     0.18729   0.30837   0.79774   0.00000  Uiso   1.00
C1089  C     0.04769   0.14938   0.74227   0.00000  Uiso   1.00
C1090  C     0.05892   0.19629   0.71940   0.00000  Uiso   1.00
C1091  C     0.28565   0.18393   0.92440   0.00000  Uiso   1.00
C1092  C     0.24579   0.16651   0.83330   0.00000  Uiso   1.00
C1093  C     0.27441   0.13701   0.94726   0.00000  Uiso   1.00
C1094  C     0.28882   0.14367   0.74325   0.00000  Uiso   1.00
C1095  C     0.28488   0.09068   0.73784   0.00000  Uiso   1.00
C1096  C     0.04451   0.18967   0.92342   0.00000  Uiso   1.00
C1097  C     0.04843   0.24266   0.92882   0.00000  Uiso   1.00
C1098  C     0.16676   0.16665   0.74019   0.00000  Uiso   1.00
C1099  C     0.16658   0.16668   0.92648   0.00000  Uiso   1.00
C1100  C     0.16673   0.16664   0.68848   0.00000  Uiso   1.00
C1101  C     0.16660   0.16669   0.97818   0.00000  Uiso   1.00
C1102  C     0.02246   0.15660   0.78937   0.00000  Uiso   1.00
C1103  C     0.31088   0.17673   0.87730   0.00000  Uiso   1.00
C1104  C     0.31229   0.15591   0.78943   0.00000  Uiso   1.00
Cu1105 Cu    0.16667   0.21355   0.83333   0.00000  Uiso   1.00
Cu1106 Cu    0.16667   0.11978   0.83333   0.00000  Uiso   1.00
H1107  H     0.20343   0.04297   0.76889   0.00000  Uiso   1.00
H1108  H     0.25368   0.14301   0.97921   0.00000  Uiso   1.00
H1109  H     0.30269   0.11849   0.95941   0.00000  Uiso   1.00
H1110  H     0.25804   0.11449   0.92094   0.00000  Uiso   1.00
H1111  H     0.30161   0.20530   0.95189   0.00000  Uiso   1.00
H1112  H     0.25706   0.20419   0.91746   0.00000  Uiso   1.00
H1113  H     0.31535   0.07410   0.73045   0.00000  Uiso   1.00
H1114  H     0.27180   0.07527   0.77181   0.00000  Uiso   1.00
H1115  H     0.26407   0.08232   0.70721   0.00000  Uiso   1.00
H1116  H     0.25746   0.15936   0.74335   0.00000  Uiso   1.00
H1117  H     0.30370   0.15914   0.71042   0.00000  Uiso   1.00
H1118  H     0.12991   0.29037   0.89778   0.00000  Uiso   1.00
H1119  H     0.06921   0.25104   0.95949   0.00000  Uiso   1.00
H1120  H     0.01795   0.25924   0.93617   0.00000  Uiso   1.00
H1121  H     0.06154   0.25808   0.89487   0.00000  Uiso   1.00
H1122  H     0.02964   0.17419   0.95624   0.00000  Uiso   1.00
H1123  H     0.07588   0.17400   0.92331   0.00000  Uiso   1.00
H1124  H     0.12940   0.04368   0.89743   0.00000  Uiso   1.00
H1125  H     0.20393   0.28966   0.76923   0.00000  Uiso   1.00
H1126  H     0.03065   0.21482   0.70725   0.00000  Uiso   1.00
H1127  H     0.07532   0.21881   0.74571   0.00000  Uiso   1.00
H1128  H     0.07965   0.19029   0.68743   0.00000  Uiso   1.00
H1129  H     0.07627   0.12912   0.74921   0.00000  Uiso   1.00
H1130  H     0.03172   0.12801   0.71479   0.00000  Uiso   1.00
N1131  N     0.16667   0.28402   0.83333   0.00000  Uiso   1.00
N1132  N     0.16667   0.04931   0.83333   0.00000  Uiso   1.00
O1133  O     0.10655   0.20625   0.83333   0.00000  Uiso   1.00
O1134  O     0.22679   0.12709   0.83334   0.00000  Uiso   1.00
O1135  O     0.22679   0.20625   0.83334   0.00000  Uiso   1.00
O1136  O     0.10655   0.12709   0.83333   0.00000  Uiso   1.00
O1137  O     0.16667   0.20625   0.76280   0.00000  Uiso   1.00
O1138  O     0.16667   0.12708   0.90387   0.00000  Uiso   1.00
O1139  O     0.16667   0.20625   0.90387   0.00000  Uiso   1.00
O1140  O     0.16667   0.12708   0.76280   0.00000  Uiso   1.00
C1141  C     0.42087   0.16682   0.83336   0.00000  Uiso   1.00
C1142  C     0.35438   0.17742   0.87724   0.00000  Uiso   1.00
C1143  C     0.62384   0.16626   0.83331   0.00000  Uiso   1.00
C1144  C     0.37616   0.16708   0.83336   0.00000  Uiso   1.00
C1145  C     0.52052   0.02458   0.79767   0.00000  Uiso   1.00
C1146  C     0.47948   0.30876   0.86900   0.00000  Uiso   1.00
C1147  C     0.47937   0.02496   0.86893   0.00000  Uiso   1.00
C1148  C     0.52063   0.30837   0.79774   0.00000  Uiso   1.00
C1149  C     0.38102   0.14938   0.74227   0.00000  Uiso   1.00
C1150  C     0.39226   0.19629   0.71940   0.00000  Uiso   1.00
C1151  C     0.61898   0.18393   0.92440   0.00000  Uiso   1.00
C1152  C     0.57912   0.16651   0.83330   0.00000  Uiso   1.00
C1153  C     0.60775   0.13701   0.94726   0.00000  Uiso   1.00
C1154  C     0.62216   0.14367   0.74325   0.00000  Uiso   1.00
C1155  C     0.61821   0.09068   0.73784   0.00000  Uiso   1.00
C1156  C     0.37784   0.18967   0.92342   0.00000  Uiso   1.00
C1157  C     0.38177   0.24266   0.92882   0.00000  Uiso   1.00
C1158  C     0.50009   0.16665   0.74019   0.00000  Uiso   1.00
C1159  C     0.49991   0.16668   0.92648   0.00000  Uiso   1.00
C1160  C     0.50007   0.16664   0.68848   0.00000  Uiso   1.00
C1161  C     0.49994   0.16669   0.97818   0.00000  Uiso   1.00
C1162  C     0.35579   0.15660   0.78937   0.00000  Uiso   1.00
C1163  C     0.64421   0.17673   0.87730   0.00000  Uiso   1.00
C1164  C     0.64562   0.15591   0.78943   0.00000  Uiso   1.00
Cu1165 Cu    0.50000   0.21355   0.83333   0.00000  Uiso   1.00
Cu1166 Cu    0.50000   0.11978   0.83333   0.00000  Uiso   1.00
H1167  H     0.53676   0.04297   0.76889   0.00000  Uiso   1.00
H1168  H     0.58701   0.14301   0.97921   0.00000  Uiso   1.00
H1169  H     0.63603   0.11849   0.95941   0.00000  Uiso   1.00
H1170  H     0.59137   0.11449   0.92094   0.00000  Uiso   1.00
H1171  H     0.63494   0.20530   0.95189   0.00000  Uiso   1.00
H1172  H     0.59039   0.20419   0.91746   0.00000  Uiso   1.00
H1173  H     0.64868   0.07410   0.73045   0.00000  Uiso   1.00
H1174  H     0.60513   0.07527   0.77181   0.00000  Uiso   1.00
H1175  H     0.59741   0.08232   0.70721   0.00000  Uiso   1.00
H1176  H     0.59079   0.15936   0.74335   0.00000  Uiso   1.00
H1177  H     0.63703   0.15914   0.71042   0.00000  Uiso   1.00
H1178  H     0.46324   0.29037   0.89778   0.00000  Uiso   1.00
H1179  H     0.40254   0.25104   0.95949   0.00000  Uiso   1.00
H1180  H     0.35128   0.25924   0.93617   0.00000  Uiso   1.00
H1181  H     0.39488   0.25808   0.89487   0.00000  Uiso   1.00
H1182  H     0.36298   0.17419   0.95624   0.00000  Uiso   1.00
H1183  H     0.40921   0.17400   0.92331   0.00000  Uiso   1.00
H1184  H     0.46274   0.04368   0.89743   0.00000  Uiso   1.00
H1185  H     0.53726   0.28966   0.76923   0.00000  Uiso   1.00
H1186  H     0.36398   0.21482   0.70725   0.00000  Uiso   1.00
H1187  H     0.40865   0.21881   0.74571   0.00000  Uiso   1.00
H1188  H     0.41298   0.19029   0.68743   0.00000  Uiso   1.00
H1189  H     0.40961   0.12912   0.74921   0.00000  Uiso   1.00
H1190  H     0.36506   0.12801   0.71479   0.00000  Uiso   1.00
N1191  N     0.50000   0.28402   0.83333   0.00000  Uiso   1.00
N1192  N     0.50000   0.04931   0.83333   0.00000  Uiso   1.00
O1193  O     0.43988   0.20625   0.83333   0.00000  Uiso   1.00
O1194  O     0.56012   0.12709   0.83334   0.00000  Uiso   1.00
O1195  O     0.56012   0.20625   0.83334   0.00000  Uiso   1.00
O1196  O     0.43988   0.12709   0.83333   0.00000  Uiso   1.00
O1197  O     0.50000   0.20625   0.76280   0.00000  Uiso   1.00
O1198  O     0.50000   0.12708   0.90387   0.00000  Uiso   1.00
O1199  O     0.50000   0.20625   0.90387   0.00000  Uiso   1.00
O1200  O     0.50000   0.12708   0.76280   0.00000  Uiso   1.00
C1201  C     0.75421   0.16682   0.83336   0.00000  Uiso   1.00
C1202  C     0.68771   0.17742   0.87724   0.00000  Uiso   1.00
C1203  C     0.95717   0.16626   0.83331   0.00000  Uiso   1.00
C1204  C     0.70950   0.16708   0.83336   0.00000  Uiso   1.00
C1205  C     0.85385   0.02458   0.79767   0.00000  Uiso   1.00
C1206  C     0.81281   0.30876   0.86900   0.00000  Uiso   1.00
C1207  C     0.81271   0.02496   0.86893   0.00000  Uiso   1.00
C1208  C     0.85396   0.30837   0.79774   0.00000  Uiso   1.00
C1209  C     0.71435   0.14938   0.74227   0.00000  Uiso   1.00
C1210  C     0.72559   0.19629   0.71940   0.00000  Uiso   1.00
C1211  C     0.95231   0.18393   0.92440   0.00000  Uiso   1.00
C1212  C     0.91246   0.16651   0.83330   0.00000  Uiso   1.00
C1213  C     0.94108   0.13701   0.94726   0.00000  Uiso   1.00
C1214  C     0.95549   0.14367   0.74325   0.00000  Uiso   1.00
C1215  C     0.95155   0.09068   0.73784   0.00000  Uiso   1.00
C1216  C     0.71117   0.18967   0.92342   0.00000  Uiso   1.00
C1217  C     0.71510   0.24266   0.92882   0.00000  Uiso   1.00
C1218  C     0.83342   0.16665   0.74019   0.00000  Uiso   1.00
C1219  C     0.83324   0.16668   0.92648   0.00000  Uiso   1.00
C1220  C     0.83340   0.16664   0.68848   0.00000  Uiso   1.00
C1221  C     0.83327   0.16669   0.97818   0.00000  Uiso   1.00
C1222  C     0.68912   0.15660   0.78937   0.00000  Uiso   1.00
C1223  C     0.97754   0.17673   0.87730   0.00000  Uiso   1.00
C1224  C     0.97895   0.15591   0.78943   0.00000  Uiso   1.00
Cu1225 Cu    0.83333   0.21355   0.83333   0.00000  Uiso   1.00
Cu1226 Cu    0.83333   0.11978   0.83333   0.00000  Uiso   1.00
H1227  H     0.87009   0.04297   0.76889   0.00000  Uiso   1.00
H1228  H     0.92034   0.14301   0.97921   0.00000  Uiso   1.00
H1229  H     0.96936   0.11849   0.95941   0.00000  Uiso   1.00
H1230  H     0.92470   0.11449   0.92094   0.00000  Uiso   1.00
H1231  H     0.96827   0.20530   0.95189   0.00000  Uiso   1.00
H1232  H     0.92373   0.20419   0.91746   0.00000  Uiso   1.00
H1233  H     0.98202   0.07410   0.73045   0.00000  Uiso   1.00
H1234  H     0.93846   0.07527   0.77181   0.00000  Uiso   1.00
H1235  H     0.93074   0.08232   0.70721   0.00000  Uiso   1.00
H1236  H     0.92412   0.15936   0.74335   0.00000  Uiso   1.00
H1237  H     0.97036   0.15914   0.71042   0.00000  Uiso   1.00
H1238  H     0.79657   0.29037   0.89778   0.00000  Uiso   1.00
H1239  H     0.73587   0.25104   0.95949   0.00000  Uiso   1.00
H1240  H     0.68462   0.25924   0.93617   0.00000  Uiso   1.00
H1241  H     0.72821   0.25808   0.89487   0.00000  Uiso   1.00
H1242  H     0.69631   0.17419   0.95624   0.00000  Uiso   1.00
H1243  H     0.74255   0.17400   0.92331   0.00000  Uiso   1.00
H1244  H     0.79607   0.04368   0.89743   0.00000  Uiso   1.00
H1245  H     0.87060   0.28966   0.76923   0.00000  Uiso   1.00
H1246  H     0.69731   0.21482   0.70725   0.00000  Uiso   1.00
H1247  H     0.74199   0.21881   0.74571   0.00000  Uiso   1.00
H1248  H     0.74632   0.19029   0.68743   0.00000  Uiso   1.00
H1249  H     0.74294   0.12912   0.74921   0.00000  Uiso   1.00
H1250  H     0.69839   0.12801   0.71479   0.00000  Uiso   1.00
N1251  N     0.83333   0.28402   0.83333   0.00000  Uiso   1.00
N1252  N     0.83333   0.04931   0.83333   0.00000  Uiso   1.00
O1253  O     0.77321   0.20625   0.83333   0.00000  Uiso   1.00
O1254  O     0.89345   0.12709   0.83334   0.00000  Uiso   1.00
O1255  O     0.89345   0.20625   0.83334   0.00000  Uiso   1.00
O1256  O     0.77321   0.12709   0.83333   0.00000  Uiso   1.00
O1257  O     0.83333   0.20625   0.76280   0.00000  Uiso   1.00
O1258  O     0.83333   0.12708   0.90387   0.00000  Uiso   1.00
O1259  O     0.83333   0.20625   0.90387   0.00000  Uiso   1.00
O1260  O     0.83333   0.12708   0.76280   0.00000  Uiso   1.00
C1261  C     0.08754   0.50016   0.83336   0.00000  Uiso   1.00
C1262  C     0.02105   0.51075   0.87724   0.00000  Uiso   1.00
C1263  C     0.29050   0.49959   0.83331   0.00000  Uiso   1.00
C1264  C     0.04283   0.50041   0.83336   0.00000  Uiso   1.00
C1265  C     0.18719   0.35791   0.79767   0.00000  Uiso   1.00
C1266  C     0.14615   0.64209   0.86900   0.00000  Uiso   1.00
C1267  C     0.14604   0.35829   0.86893   0.00000  Uiso   1.00
C1268  C     0.18729   0.64171   0.79774   0.00000  Uiso   1.00
C1269  C     0.04769   0.48272   0.74227   0.00000  Uiso   1.00
C1270  C     0.05892   0.52963   0.71940   0.00000  Uiso   1.00
C1271  C     0.28565   0.51726   0.92440   0.00000  Uiso   1.00
C1272  C     0.24579   0.49984   0.83330   0.00000  Uiso   1.00
C1273  C     0.27441   0.47035   0.94726   0.00000  Uiso   1.00
C1274  C     0.28882   0.47700   0.74325   0.00000  Uiso   1.00
C1275  C     0.28488   0.42401   0.73784   0.00000  Uiso   1.00
C1276  C     0.04451   0.52301   0.92342   0.00000  Uiso   1.00
C1277  C     0.04843   0.57600   0.92882   0.00000  Uiso   1.00
C1278  C     0.16676   0.49998   0.74019   0.00000  Uiso   1.00
C1279  C     0.16658   0.50002   0.92648   0.00000  Uiso   1.00
C1280  C     0.16673   0.49997   0.68848   0.00000  Uiso   1.00
C1281  C     0.16660   0.50003   0.97818   0.00000  Uiso   1.00
C1282  C     0.02246   0.48993   0.78937   0.00000  Uiso   1.00
C1283  C     0.31088   0.51006   0.87730   0.00000  Uiso   1.00
C1284  C     0.31229   0.48925   0.78943   0.00000  Uiso   1.00
Cu1285 Cu    0.16667   0.54689   0.83333   0.00000  Uiso   1.00
Cu1286 Cu    0.16667   0.45311   0.83333   0.00000  Uiso   1.00
H1287  H     0.20343   0.37630   0.76889   0.00000  Uiso   1.00
H1288  H     0.25368   0.47634   0.97921   0.00000  Uiso   1.00
H1289  H     0.30269   0.45183   0.95941   0.00000  Uiso   1.00
H1290  H     0.25804   0.44783   0.92094   0.00000  Uiso   1.00
H1291  H     0.30161   0.53863   0.95189   0.00000  Uiso   1.00
H1292  H     0.25706   0.53752   0.91746   0.00000  Uiso   1.00
H1293  H     0.31535   0.40743   0.73045   0.00000  Uiso   1.00
H1294  H     0.27180   0.40860   0.77181   0.00000  Uiso   1.00
H1295  H     0.26407   0.41565   0.70721   0.00000  Uiso   1.00
H1296  H     0.25746   0.49269   0.74335   0.00000  Uiso   1.00
H1297  H     0.30370   0.49248   0.71042   0.00000  Uiso   1.00
H1298  H     0.12991   0.62370   0.89778   0.00000  Uiso   1.00
H1299  H     0.06921   0.58437   0.95949   0.00000  Uiso   1.00
H1300  H     0.01795   0.59257   0.93617   0.00000  Uiso   1.00
H1301  H     0.06154   0.59141   0.89487   0.00000  Uiso   1.00
H1302  H     0.02964   0.50753   0.95624   0.00000  Uiso   1.00
H1303  H     0.07588   0.50734   0.92331   0.00000  Uiso   1.00
H1304  H     0.12940   0.37701   0.89743   0.00000  Uiso   1.00
H1305  H     0.20393   0.62299   0.76923   0.00000  Uiso   1.00
H1306  H     0.03065   0.54815   0.70725   0.00000  Uiso   1.00
H1307  H     0.07532   0.55215   0.74571   0.00000  Uiso   1.00
H1308  H     0.07965   0.52362   0.68743   0.00000  Uiso   1.00
H1309  H     0.07627   0.46245   0.74921   0.00000  Uiso   1.00
H1310  H     0.03172   0.46134   0.71479   0.00000  Uiso   1.00
N1311  N     0.16667   0.61736   0.83333   0.00000  Uiso   1.00
N1312  N     0.16667   0.38264   0.83333   0.00000  Uiso   1.00
O1313  O     0.10655   0.53958   0.83333   0.00000  Uiso   1.00
O1314  O     0.22679   0.46042   0.83334   0.00000  Uiso   1.00
O1315  O     0.22679   0.53958   0.83334   0.00000  Uiso   1.00
O1316  O     0.10655   0.46042   0.83333   0.00000  Uiso   1.00
O1317  O     0.16667   0.53959   0.76280   0.00000  Uiso   1.00
O1318  O     0.16667   0.46041   0.90387   0.00000  Uiso   1.00
O1319  O     0.16667   0.53959   0.90387   0.00000  Uiso   1.00
O1320  O     0.16667   0.46041   0.76280   0.00000  Uiso   1.00
C1321  C     0.42087   0.50016   0.83336   0.00000  Uiso   1.00
C1322  C     0.35438   0.51075   0.87724   0.00000  Uiso   1.00
C1323  C     0.62384   0.49959   0.83331   0.00000  Uiso   1.00
C1324  C     0.37616   0.50041   0.83336   0.00000  Uiso   1.00
C1325  C     0.52052   0.35791   0.79767   0.00000  Uiso   1.00
C1326  C     0.47948   0.64209   0.86900   0.00000  Uiso   1.00
C1327  C     0.47937   0.35829   0.86893   0.00000  Uiso   1.00
C1328  C     0.52063   0.64171   0.79774   0.00000  Uiso   1.00
C1329  C     0.38102   0.48272   0.74227   0.00000  Uiso   1.00
C1330  C     0.39226   0.52963   0.71940   0.00000  Uiso   1.00
C1331  C     0.61898   0.51726   0.92440   0.00000  Uiso   1.00
C1332  C     0.57912   0.49984   0.83330   0.00000  Uiso   1.00
C1333  C     0.60775   0.47035   0.94726   0.00000  Uiso   1.00
C1334  C     0.62216   0.47700   0.74325   0.00000  Uiso   1.00
C1335  C     0.61821   0.42401   0.73784   0.00000  Uiso   1.00
C1336  C     0.37784   0.52301   0.92342   0.00000  Uiso   1.00
C1337  C     0.38177   0.57600   0.92882   0.00000  Uiso   1.00
C1338  C     0.50009   0.49998   0.74019   0.00000  Uiso   1.00
C1339  C     0.49991   0.50002   0.92648   0.00000  Uiso   1.00
C1340  C     0.50007   0.49997   0.68848   0.00000  Uiso   1.00
C1341  C     0.49994   0.50003   0.97818   0.00000  Uiso   1.00
C1342  C     0.35579   0.48993   0.78937   0.00000  Uiso   1.00
C1343  C     0.64421   0.51006   0.87730   0.00000  Uiso   1.00
C1344  C     0.64562   0.48925   0.78943   0.00000  Uiso   1.00
Cu1345 Cu    0.50000   0.54689   0.83333   0.00000  Uiso   1.00
Cu1346 Cu    0.50000   0.45311   0.83333   0.00000  Uiso   1.00
H1347  H     0.53676   0.37630   0.76889   0.00000  Uiso   1.00
H1348  H     0.58701   0.47634   0.97921   0.00000  Uiso   1.00
H1349  H     0.63603   0.45183   0.95941   0.00000  Uiso   1.00
H1350  H     0.59137   0.44783   0.92094   0.00000  Uiso   1.00
H1351  H     0.63494   0.53863   0.95189   0.00000  Uiso   1.00
H1352  H     0.59039   0.53752   0.91746   0.00000  Uiso   1.00
H1353  H     0.64868   0.40743   0.73045   0.00000  Uiso   1.00
H1354  H     0.60513   0.40860   0.77181   0.00000  Uiso   1.00
H1355  H     0.59741   0.41565   0.70721   0.00000  Uiso   1.00
H1356  H     0.59079   0.49269   0.74335   0.00000  Uiso   1.00
H1357  H     0.63703   0.49248   0.71042   0.00000  Uiso   1.00
H1358  H     0.46324   0.62370   0.89778   0.00000  Uiso   1.00
H1359  H     0.40254   0.58437   0.95949   0.00000  Uiso   1.00
H1360  H     0.35128   0.59257   0.93617   0.00000  Uiso   1.00
H1361  H     0.39488   0.59141   0.89487   0.00000  Uiso   1.00
H1362  H     0.36298   0.50753   0.95624   0.00000  Uiso   1.00
H1363  H     0.40921   0.50734   0.92331   0.00000  Uiso   1.00
H1364  H     0.46274   0.37701   0.89743   0.00000  Uiso   1.00
H1365  H     0.53726   0.62299   0.76923   0.00000  Uiso   1.00
H1366  H     0.36398   0.54815   0.70725   0.00000  Uiso   1.00
H1367  H     0.40865   0.55215   0.74571   0.00000  Uiso   1.00
H1368  H     0.41298   0.52362   0.68743   0.00000  Uiso   1.00
H1369  H     0.40961   0.46245   0.74921   0.00000  Uiso   1.00
H1370  H     0.36506   0.46134   0.71479   0.00000  Uiso   1.00
N1371  N     0.50000   0.61736   0.83333   0.00000  Uiso   1.00
N1372  N     0.50000   0.38264   0.83333   0.00000  Uiso   1.00
O1373  O     0.43988   0.53958   0.83333   0.00000  Uiso   1.00
O1374  O     0.56012   0.46042   0.83334   0.00000  Uiso   1.00
O1375  O     0.56012   0.53958   0.83334   0.00000  Uiso   1.00
O1376  O     0.43988   0.46042   0.83333   0.00000  Uiso   1.00
O1377  O     0.50000   0.53959   0.76280   0.00000  Uiso   1.00
O1378  O     0.50000   0.46041   0.90387   0.00000  Uiso   1.00
O1379  O     0.50000   0.53959   0.90387   0.00000  Uiso   1.00
O1380  O     0.50000   0.46041   0.76280   0.00000  Uiso   1.00
C1381  C     0.75421   0.50016   0.83336   0.00000  Uiso   1.00
C1382  C     0.68771   0.51075   0.87724   0.00000  Uiso   1.00
C1383  C     0.95717   0.49959   0.83331   0.00000  Uiso   1.00
C1384  C     0.70950   0.50041   0.83336   0.00000  Uiso   1.00
C1385  C     0.85385   0.35791   0.79767   0.00000  Uiso   1.00
C1386  C     0.81281   0.64209   0.86900   0.00000  Uiso   1.00
C1387  C     0.81271   0.35829   0.86893   0.00000  Uiso   1.00
C1388  C     0.85396   0.64171   0.79774   0.00000  Uiso   1.00
C1389  C     0.71435   0.48272   0.74227   0.00000  Uiso   1.00
C1390  C     0.72559   0.52963   0.71940   0.00000  Uiso   1.00
C1391  C     0.95231   0.51726   0.92440   0.00000  Uiso   1.00
C1392  C     0.91246   0.49984   0.83330   0.00000  Uiso   1.00
C1393  C     0.94108   0.47035   0.94726   0.00000  Uiso   1.00
C1394  C     0.95549   0.47700   0.74325   0.00000  Uiso   1.00
C1395  C     0.95155   0.42401   0.73784   0.00000  Uiso   1.00
C1396  C     0.71117   0.52301   0.92342   0.00000  Uiso   1.00
C1397  C     0.71510   0.57600   0.92882   0.00000  Uiso   1.00
C1398  C     0.83342   0.49998   0.74019   0.00000  Uiso   1.00
C1399  C     0.83324   0.50002   0.92648   0.00000  Uiso   1.00
C1400  C     0.83340   0.49997   0.68848   0.00000  Uiso   1.00
C1401  C     0.83327   0.50003   0.97818   0.00000  Uiso   1.00
C1402  C     0.68912   0.48993   0.78937   0.00000  Uiso   1.00
C1403  C     0.97754   0.51006   0.87730   0.00000  Uiso   1.00
C1404  C     0.97895   0.48925   0.78943   0.00000  Uiso   1.00
Cu1405 Cu    0.83333   0.54689   0.83333   0.00000  Uiso   1.00
Cu1406 Cu    0.83333   0.45311   0.83333   0.00000  Uiso   1.00
H1407  H     0.87009   0.37630   0.76889   0.00000  Uiso   1.00
H1408  H     0.92034   0.47634   0.97921   0.00000  Uiso   1.00
H1409  H     0.96936   0.45183   0.95941   0.00000  Uiso   1.00
H1410  H     0.92470   0.44783   0.92094   0.00000  Uiso   1.00
H1411  H     0.96827   0.53863   0.95189   0.00000  Uiso   1.00
H1412  H     0.92373   0.53752   0.91746   0.00000  Uiso   1.00
H1413  H     0.98202   0.40743   0.73045   0.00000  Uiso   1.00
H1414  H     0.93846   0.40860   0.77181   0.00000  Uiso   1.00
H1415  H     0.93074   0.41565   0.70721   0.00000  Uiso   1.00
H1416  H     0.92412   0.49269   0.74335   0.00000  Uiso   1.00
H1417  H     0.97036   0.49248   0.71042   0.00000  Uiso   1.00
H1418  H     0.79657   0.62370   0.89778   0.00000  Uiso   1.00
H1419  H     0.73587   0.58437   0.95949   0.00000  Uiso   1.00
H1420  H     0.68462   0.59257   0.93617   0.00000  Uiso   1.00
H1421  H     0.72821   0.59141   0.89487   0.00000  Uiso   1.00
H1422  H     0.69631   0.50753   0.95624   0.00000  Uiso   1.00
H1423  H     0.74255   0.50734   0.92331   0.00000  Uiso   1.00
H1424  H     0.79607   0.37701   0.89743   0.00000  Uiso   1.00
H1425  H     0.87060   0.62299   0.76923   0.00000  Uiso   1.00
H1426  H     0.69731   0.54815   0.70725   0.00000  Uiso   1.00
H1427  H     0.74199   0.55215   0.74571   0.00000  Uiso   1.00
H1428  H     0.74632   0.52362   0.68743   0.00000  Uiso   1.00
H1429  H     0.74294   0.46245   0.74921   0.00000  Uiso   1.00
H1430  H     0.69839   0.46134   0.71479   0.00000  Uiso   1.00
N1431  N     0.83333   0.61736   0.83333   0.00000  Uiso   1.00
N1432  N     0.83333   0.38264   0.83333   0.00000  Uiso   1.00
O1433  O     0.77321   0.53958   0.83333   0.00000  Uiso   1.00
O1434  O     0.89345   0.46042   0.83334   0.00000  Uiso   1.00
O1435  O     0.89345   0.53958   0.83334   0.00000  Uiso   1.00
O1436  O     0.77321   0.46042   0.83333   0.00000  Uiso   1.00
O1437  O     0.83333   0.53959   0.76280   0.00000  Uiso   1.00
O1438  O     0.83333   0.46041   0.90387   0.00000  Uiso   1.00
O1439  O     0.83333   0.53959   0.90387   0.00000  Uiso   1.00
O1440  O     0.83333   0.46041   0.76280   0.00000  Uiso   1.00
C1441  C     0.08754   0.83349   0.83336   0.00000  Uiso   1.00
C1442  C     0.02105   0.84409   0.87724   0.00000  Uiso   1.00
C1443  C     0.29050   0.83292   0.83331   0.00000  Uiso   1.00
C1444  C     0.04283   0.83374   0.83336   0.00000  Uiso   1.00
C1445  C     0.18719   0.69124   0.79767   0.00000  Uiso   1.00
C1446  C     0.14615   0.97542   0.86900   0.00000  Uiso   1.00
C1447  C     0.14604   0.69163   0.86893   0.00000  Uiso   1.00
C1448  C     0.18729   0.97504   0.79774   0.00000  Uiso   1.00
C1449  C     0.04769   0.81605   0.74227   0.00000  Uiso   1.00
C1450  C     0.05892   0.86296   0.71940   0.00000  Uiso   1.00
C1451  C     0.28565   0.85060   0.92440   0.00000  Uiso   1.00
C1452  C     0.24579   0.83318   0.83330   0.00000  Uiso   1.00
C1453  C     0.27441   0.80368   0.94726   0.00000  Uiso   1.00
C1454  C     0.28882   0.81034   0.74325   0.00000  Uiso   1.00
C1455  C     0.28488   0.75735   0.73784   0.00000  Uiso   1.00
C1456  C     0.04451   0.85634   0.92342   0.00000  Uiso   1.00
C1457  C     0.04843   0.90933   0.92882   0.00000  Uiso   1.00
C1458  C     0.16676   0.83332   0.74019   0.00000  Uiso   1.00
C1459  C     0.16658   0.83335   0.92648   0.00000  Uiso   1.00
C1460  C     0.16673   0.83331   0.68848   0.00000  Uiso   1.00
C1461  C     0.16660   0.83336   0.97818   0.00000  Uiso   1.00
C1462  C     0.02246   0.82327   0.78937   0.00000  Uiso   1.00
C1463  C     0.31088   0.84339   0.87730   0.00000  Uiso   1.00
C1464  C     0.31229   0.82258   0.78943   0.00000  Uiso   1.00
Cu1465 Cu    0.16667   0.88022   0.83333   0.00000  Uiso   1.00
Cu1466 Cu    0.16667   0.78645   0.83333   0.00000  Uiso   1.00
H1467  H     0.20343   0.70963   0.76889   0.00000  Uiso   1.00
H1468  H     0.25368   0.80967   0.97921   0.00000  Uiso   1.00
H1469  H     0.30269   0.78516   0.95941   0.00000  Uiso   1.00
H1470  H     0.25804   0.78116   0.92094   0.00000  Uiso   1.00
H1471  H     0.30161   0.87197   0.95189   0.00000  Uiso   1.00
H1472  H     0.25706   0.87086   0.91746   0.00000  Uiso   1.00
H1473  H     0.31535   0.74076   0.73045   0.00000  Uiso   1.00
H1474  H     0.27180   0.74193   0.77181   0.00000  Uiso   1.00
H1475  H     0.26407   0.74898   0.70721   0.00000  Uiso   1.00
H1476  H     0.25746   0.82602   0.74335   0.00000  Uiso   1.00
H1477  H     0.30370   0.82581   0.71042   0.00000  Uiso   1.00
H1478  H     0.12991   0.95703   0.89778   0.00000  Uiso   1.00
H1479  H     0.06921   0.91771   0.95949   0.00000  Uiso   1.00
H1480  H     0.01795   0.92591   0.93617   0.00000  Uiso   1.00
H1481  H     0.06154   0.92474   0.89487   0.00000  Uiso   1.00
H1482  H     0.02964   0.84086   0.95624   0.00000  Uiso   1.00
H1483  H     0.07588   0.84067   0.92331   0.00000  Uiso   1.00
H1484  H     0.12940   0.71034   0.89743   0.00000  Uiso   1.00
H1485  H     0.20393   0.95632   0.76923   0.00000  Uiso   1.00
H1486  H     0.03065   0.88149   0.70725   0.00000  Uiso   1.00
H1487  H     0.07532   0.88548   0.74571   0.00000  Uiso   1.00
H1488  H     0.07965   0.85695   0.68743   0.00000  Uiso   1.00
H1489  H     0.07627   0.79579   0.74921   0.00000  Uiso   1.00
H1490  H     0.03172   0.79467   0.71479   0.00000  Uiso   1.00
N1491  N     0.16667   0.95069   0.83333   0.00000  Uiso   1.00
N1492  N     0.16667   0.71598   0.83333   0.00000  Uiso   1.00
O1493  O     0.10655   0.87291   0.83333   0.00000  Uiso   1.00
O1494  O     0.22679   0.79375   0.83334   0.00000  Uiso   1.00
O1495  O     0.22679   0.87291   0.83334   0.00000  Uiso   1.00
O1496  O     0.10655   0.79375   0.83333   0.00000  Uiso   1.00
O1497  O     0.16667   0.87292   0.76280   0.00000  Uiso   1.00
O1498  O     0.16667   0.79375   0.90387   0.00000  Uiso   1.00
O1499  O     0.16667   0.87292   0.90387   0.00000  Uiso   1.00
O1500  O     0.16667   0.79375   0.76280   0.00000  Uiso   1.00
C1501  C     0.42087   0.83349   0.83336   0.00000  Uiso   1.00
C1502  C     0.35438   0.84409   0.87724   0.00000  Uiso   1.00
C1503  C     0.62384   0.83292   0.83331   0.00000  Uiso   1.00
C1504  C     0.37616   0.83374   0.83336   0.00000  Uiso   1.00
C1505  C     0.52052   0.69124   0.79767   0.00000  Uiso   1.00
C1506  C     0.47948   0.97542   0.86900   0.00000  Uiso   1.00
C1507  C     0.47937   0.69163   0.86893   0.00000  Uiso   1.00
C1508  C     0.52063   0.97504   0.79774   0.00000  Uiso   1.00
C1509  C     0.38102   0.81605   0.74227   0.00000  Uiso   1.00
C1510  C     0.39226   0.86296   0.71940   0.00000  Uiso   1.00
C1511  C     0.61898   0.85060   0.92440   0.00000  Uiso   1.00
C1512  C     0.57912   0.83318   0.83330   0.00000  Uiso   1.00
C1513  C     0.60775   0.80368   0.94726   0.00000  Uiso   1.00
C1514  C     0.62216   0.81034   0.74325   0.00000  Uiso   1.00
C1515  C     0.61821   0.75735   0.73784   0.00000  Uiso   1.00
C1516  C     0.37784   0.85634   0.92342   0.00000  Uiso   1.00
C1517  C     0.38177   0.90933   0.92882   0.00000  Uiso   1.00
C1518  C     0.50009   0.83332   0.74019   0.00000  Uiso   1.00
C1519  C     0.49991   0.83335   0.92648   0.00000  Uiso   1.00
C1520  C     0.50007   0.83331   0.68848   0.00000  Uiso   1.00
C1521  C     0.49994   0.83336   0.97818   0.00000  Uiso   1.00
C1522  C     0.35579   0.82327   0.78937   0.00000  Uiso   1.00
C1523  C     0.64421   0.84339   0.87730   0.00000  Uiso   1.00
C1524  C     0.64562   0.82258   0.78943   0.00000  Uiso   1.00
Cu1525 Cu    0.50000   0.88022   0.83333   0.00000  Uiso   1.00
Cu1526 Cu    0.50000   0.78645   0.83333   0.00000  Uiso   1.00
H1527  H     0.53676   0.70963   0.76889   0.00000  Uiso   1.00
H1528  H     0.58701   0.80967   0.97921   0.00000  Uiso   1.00
H1529  H     0.63603   0.78516   0.95941   0.00000  Uiso   1.00
H1530  H     0.59137   0.78116   0.92094   0.00000  Uiso   1.00
H1531  H     0.63494   0.87197   0.95189   0.00000  Uiso   1.00
H1532  H     0.59039   0.87086   0.91746   0.00000  Uiso   1.00
H1533  H     0.64868   0.74076   0.73045   0.00000  Uiso   1.00
H1534  H     0.60513   0.74193   0.77181   0.00000  Uiso   1.00
H1535  H     0.59741   0.74898   0.70721   0.00000  Uiso   1.00
H1536  H     0.59079   0.82602   0.74335   0.00000  Uiso   1.00
H1537  H     0.63703   0.82581   0.71042   0.00000  Uiso   1.00
H1538  H     0.46324   0.95703   0.89778   0.00000  Uiso   1.00
H1539  H     0.40254   0.91771   0.95949   0.00000  Uiso   1.00
H1540  H     0.35128   0.92591   0.93617   0.00000  Uiso   1.00
H1541  H     0.39488   0.92474   0.89487   0.00000  Uiso   1.00
H1542  H     0.36298   0.84086   0.95624   0.00000  Uiso   1.00
H1543  H     0.40921   0.84067   0.92331   0.00000  Uiso   1.00
H1544  H     0.46274   0.71034   0.89743   0.00000  Uiso   1.00
H1545  H     0.53726   0.95632   0.76923   0.00000  Uiso   1.00
H1546  H     0.36398   0.88149   0.70725   0.00000  Uiso   1.00
H1547  H     0.40865   0.88548   0.74571   0.00000  Uiso   1.00
H1548  H     0.41298   0.85695   0.68743   0.00000  Uiso   1.00
H1549  H     0.40961   0.79579   0.74921   0.00000  Uiso   1.00
H1550  H     0.36506   0.79467   0.71479   0.00000  Uiso   1.00
N1551  N     0.50000   0.95069   0.83333   0.00000  Uiso   1.00
N1552  N     0.50000   0.71598   0.83333   0.00000  Uiso   1.00
O1553  O     0.43988   0.87291   0.83333   0.00000  Uiso   1.00
O1554  O     0.56012   0.79375   0.83334   0.00000  Uiso   1.00
O1555  O     0.56012   0.87291   0.83334   0.00000  Uiso   1.00
O1556  O     0.43988   0.79375   0.83333   0.00000  Uiso   1.00
O1557  O     0.50000   0.87292   0.76280   0.00000  Uiso   1.00
O1558  O     0.50000   0.79375   0.90387   0.00000  Uiso   1.00
O1559  O     0.50000   0.87292   0.90387   0.00000  Uiso   1.00
O1560  O     0.50000   0.79375   0.76280   0.00000  Uiso   1.00
C1561  C     0.75421   0.83349   0.83336   0.00000  Uiso   1.00
C1562  C     0.68771   0.84409   0.87724   0.00000  Uiso   1.00
C1563  C     0.95717   0.83292   0.83331   0.00000  Uiso   1.00
C1564  C     0.70950   0.83374   0.83336   0.00000  Uiso   1.00
C1565  C     0.85385   0.69124   0.79767   0.00000  Uiso   1.00
C1566  C     0.81281   0.97542   0.86900   0.00000  Uiso   1.00
C1567  C     0.81271   0.69163   0.86893   0.00000  Uiso   1.00
C1568  C     0.85396   0.97504   0.79774   0.00000  Uiso   1.00
C1569  C     0.71435   0.81605   0.74227   0.00000  Uiso   1.00
C1570  C     0.72559   0.86296   0.71940   0.00000  Uiso   1.00
C1571  C     0.95231   0.85060   0.92440   0.00000  Uiso   1.00
C1572  C     0.91246   0.83318   0.83330   0.00000  Uiso   1.00
C1573  C     0.94108   0.80368   0.94726   0.00000  Uiso   1.00
C1574  C     0.95549   0.81034   0.74325   0.00000  Uiso   1.00
C1575  C     0.95155   0.75735   0.73784   0.00000  Uiso   1.00
C1576  C     0.71117   0.85634   0.92342   0.00000  Uiso   1.00
C1577  C     0.71510   0.90933   0.92882   0.00000  Uiso   1.00
C1578  C     0.83342   0.83332   0.74019   0.00000  Uiso   1.00
C1579  C     0.83324   0.83335   0.92648   0.00000  Uiso   1.00
C1580  C     0.83340   0.83331   0.68848   0.00000  Uiso   1.00
C1581  C     0.83327   0.83336   0.97818   0.00000  Uiso   1.00
C1582  C     0.68912   0.82327   0.78937   0.00000  Uiso   1.00
C1583  C     0.97754   0.84339   0.87730   0.00000  Uiso   1.00
C1584  C     0.97895   0.82258   0.78943   0.00000  Uiso   1.00
Cu1585 Cu    0.83333   0.88022   0.83333   0.00000  Uiso   1.00
Cu1586 Cu    0.83333   0.78645   0.83333   0.00000  Uiso   1.00
H1587  H     0.87009   0.70963   0.76889   0.00000  Uiso   1.00
H1588  H     0.92034   0.80967   0.97921   0.00000  Uiso   1.00
H1589  H     0.96936   0.78516   0.95941   0.00000  Uiso   1.00
H1590  H     0.92470   0.78116   0.92094   0.00000  Uiso   1.00
H1591  H     0.96827   0.87197   0.95189   0.00000  Uiso   1.00
H1592  H     0.92373   0.87086   0.91746   0.00000  Uiso   1.00
H1593  H     0.98202   0.74076   0.73045   0.00000  Uiso   1.00
H1594  H     0.93846   0.74193   0.77181   0.00000  Uiso   1.00
H1595  H     0.93074   0.74898   0.70721   0.00000  Uiso   1.00
H1596  H     0.92412   0.82602   0.74335   0.00000  Uiso   1.00
H1597  H     0.97036   0.82581   0.71042   0.00000  Uiso   1.00
H1598  H     0.79657   0.95703   0.89778   0.00000  Uiso   1.00
H1599  H     0.73587   0.91771   0.95949   0.00000  Uiso   1.00
H1600  H     0.68462   0.92591   0.93617   0.00000  Uiso   1.00
H1601  H     0.72821   0.92474   0.89487   0.00000  Uiso   1.00
H1602  H     0.69631   0.84086   0.95624   0.00000  Uiso   1.00
H1603  H     0.74255   0.84067   0.92331   0.00000  Uiso   1.00
H1604  H     0.79607   0.71034   0.89743   0.00000  Uiso   1.00
H1605  H     0.87060   0.95632   0.76923   0.00000  Uiso   1.00
H1606  H     0.69731   0.88149   0.70725   0.00000  Uiso   1.00
H1607  H     0.74199   0.88548   0.74571   0.00000  Uiso   1.00
H1608  H     0.74632   0.85695   0.68743   0.00000  Uiso   1.00
H1609  H     0.74294   0.79579   0.74921   0.00000  Uiso   1.00
H1610  H     0.69839   0.79467   0.71479   0.00000  Uiso   1.00
N1611  N     0.83333   0.95069   0.83333   0.00000  Uiso   1.00
N1612  N     0.83333   0.71598   0.83333   0.00000  Uiso   1.00
O1613  O     0.77321   0.87291   0.83333   0.00000  Uiso   1.00
O1614  O     0.89345   0.79375   0.83334   0.00000  Uiso   1.00
O1615  O     0.89345   0.87291   0.83334   0.00000  Uiso   1.00
O1616  O     0.77321   0.79375   0.83333   0.00000  Uiso   1.00
O1617  O     0.83333   0.87292   0.76280   0.00000  Uiso   1.00
O1618  O     0.83333   0.79375   0.90387   0.00000  Uiso   1.00
O1619  O     0.83333   0.87292   0.90387   0.00000  Uiso   1.00
O1620  O     0.83333   0.79375   0.76280   0.00000  Uiso   1.00
loop_
_geom_bond_atom_site_label_1
_geom_bond_atom_site_label_2
_geom_bond_distance
_geom_bond_site_symmetry_2
_ccdc_geom_bond_type
C1     C4      1.449   .     S
C1     O56     1.290   .     A
C1     O53     1.289   .     A
C2     C4      1.414   .     A
C2     C16     1.525   .     S
C2     C143    1.410   1_455 S
C3     C23     1.413   .     A
C3     C24     1.414   .     A
C3     C12     1.449   .     S
C4     C22     1.413   .     A
C5     N52     1.367   .     A
C5     H27     1.080   .     S
C5     C368    1.417   1_545 S
C6     N51     1.367   .     A
C6     H38     1.080   .     S
C6     C187    1.417   .     S
C7     N52     1.367   .     A
C7     H44     1.082   .     S
C7     C366    1.417   1_545 S
C8     N51     1.367   .     A
C8     H45     1.082   .     S
C8     C185    1.417   .     S
C9     C10     1.526   .     S
C9     C22     1.529   .     S
C9     H49     1.108   .     S
C9     H50     1.105   .     S
C10    H46     1.110   .     S
C10    H48     1.108   .     S
C10    H47     1.109   .     S
C11    H31     1.105   .     S
C11    C13     1.526   .     S
C11    H32     1.108   .     S
C11    C23     1.529   .     S
C12    O55     1.290   .     A
C12    O54     1.289   .     A
C13    H28     1.108   .     S
C13    H30     1.109   .     S
C13    H29     1.110   .     S
C14    H37     1.107   .     S
C14    H36     1.108   .     S
C14    C24     1.525   .     S
C14    C15     1.530   .     S
C15    H34     1.109   .     S
C15    H35     1.109   .     S
C15    H33     1.109   .     S
C16    H43     1.108   .     S
C16    H42     1.107   .     S
C16    C17     1.530   .     S
C17    H39     1.110   .     S
C17    H41     1.109   .     S
C17    H40     1.109   .     S
C18    O57     1.291   .     A
C18    O60     1.291   .     A
C18    C20     1.414   .     S
C19    C21     1.414   .     S
C19    O58     1.291   .     A
C19    O59     1.291   .     A
C20    C1101   1.194   1_554 S
C21    C560    1.194   .     S
C22    C144    1.410   1_455 S
C23    C62     1.410   .     S
C24    C82     1.410   .     S
Cu25   N51     2.016   .     S
Cu25   O57     1.941   .     S
Cu25   O53     1.960   .     S
Cu25   O55     1.958   .     S
Cu25   O59     1.941   .     S
Cu25   Cu26    2.683   .     S
Cu26   N52     2.016   .     S
Cu26   O54     1.960   .     S
Cu26   O60     1.941   .     S
Cu26   O58     1.941   .     S
Cu26   O56     1.958   .     S
C61    C64     1.449   .     S
C61    O116    1.290   .     A
C61    O113    1.289   .     A
C62    C64     1.414   .     A
C62    C76     1.525   .     S
C63    C83     1.413   .     A
C63    C84     1.414   .     A
C63    C72     1.449   .     S
C64    C82     1.413   .     A
C65    N112    1.367   .     A
C65    H87     1.080   .     S
C65    C428    1.417   1_545 S
C66    N111    1.367   .     A
C66    H98     1.080   .     S
C66    C247    1.417   .     S
C67    N112    1.367   .     A
C67    H104    1.082   .     S
C67    C426    1.417   1_545 S
C68    N111    1.367   .     A
C68    H105    1.082   .     S
C68    C245    1.417   .     S
C69    C70     1.526   .     S
C69    C82     1.529   .     S
C69    H109    1.108   .     S
C69    H110    1.105   .     S
C70    H106    1.110   .     S
C70    H108    1.108   .     S
C70    H107    1.109   .     S
C71    H91     1.105   .     S
C71    C73     1.526   .     S
C71    H92     1.108   .     S
C71    C83     1.529   .     S
C72    O115    1.290   .     A
C72    O114    1.289   .     A
C73    H88     1.108   .     S
C73    H90     1.109   .     S
C73    H89     1.110   .     S
C74    H97     1.107   .     S
C74    H96     1.108   .     S
C74    C84     1.525   .     S
C74    C75     1.530   .     S
C75    H94     1.109   .     S
C75    H95     1.109   .     S
C75    H93     1.109   .     S
C76    H103    1.108   .     S
C76    H102    1.107   .     S
C76    C77     1.530   .     S
C77    H99     1.110   .     S
C77    H101    1.109   .     S
C77    H100    1.109   .     S
C78    O117    1.291   .     A
C78    O120    1.291   .     A
C78    C80     1.414   .     S
C79    C81     1.414   .     S
C79    O118    1.291   .     A
C79    O119    1.291   .     A
C80    C1161   1.194   1_554 S
C81    C620    1.194   .     S
C83    C122    1.410   .     S
C84    C142    1.410   .     S
Cu85   N111    2.016   .     S
Cu85   O117    1.941   .     S
Cu85   O113    1.960   .     S
Cu85   O115    1.958   .     S
Cu85   O119    1.941   .     S
Cu85   Cu86    2.683   .     S
Cu86   N112    2.016   .     S
Cu86   O114    1.960   .     S
Cu86   O120    1.941   .     S
Cu86   O118    1.941   .     S
Cu86   O116    1.958   .     S
C121   C124    1.449   .     S
C121   O176    1.290   .     A
C121   O173    1.289   .     A
C122   C124    1.414   .     A
C122   C136    1.525   .     S
C123   C143    1.413   .     A
C123   C144    1.414   .     A
C123   C132    1.449   .     S
C124   C142    1.413   .     A
C125   N172    1.367   .     A
C125   H147    1.080   .     S
C125   C488    1.417   1_545 S
C126   N171    1.367   .     A
C126   H158    1.080   .     S
C126   C307    1.417   .     S
C127   N172    1.367   .     A
C127   H164    1.082   .     S
C127   C486    1.417   1_545 S
C128   N171    1.367   .     A
C128   H165    1.082   .     S
C128   C305    1.417   .     S
C129   C130    1.526   .     S
C129   C142    1.529   .     S
C129   H169    1.108   .     S
C129   H170    1.105   .     S
C130   H166    1.110   .     S
C130   H168    1.108   .     S
C130   H167    1.109   .     S
C131   H151    1.105   .     S
C131   C133    1.526   .     S
C131   H152    1.108   .     S
C131   C143    1.529   .     S
C132   O175    1.290   .     A
C132   O174    1.289   .     A
C133   H148    1.108   .     S
C133   H150    1.109   .     S
C133   H149    1.110   .     S
C134   H157    1.107   .     S
C134   H156    1.108   .     S
C134   C144    1.525   .     S
C134   C135    1.530   .     S
C135   H154    1.109   .     S
C135   H155    1.109   .     S
C135   H153    1.109   .     S
C136   H163    1.108   .     S
C136   H162    1.107   .     S
C136   C137    1.530   .     S
C137   H159    1.110   .     S
C137   H161    1.109   .     S
C137   H160    1.109   .     S
C138   O177    1.291   .     A
C138   O180    1.291   .     A
C138   C140    1.414   .     S
C139   C141    1.414   .     S
C139   O178    1.291   .     A
C139   O179    1.291   .     A
C140   C1221   1.194   1_554 S
C141   C680    1.194   .     S
C143   C2      1.410   1_655 S
C144   C22     1.410   1_655 S
Cu145  N171    2.016   .     S
Cu145  O177    1.941   .     S
Cu145  O173    1.960   .     S
Cu145  O175    1.958   .     S
Cu145  O179    1.941   .     S
Cu145  Cu146   2.683   .     S
Cu146  N172    2.016   .     S
Cu146  O174    1.960   .     S
Cu146  O180    1.941   .     S
Cu146  O178    1.941   .     S
Cu146  O176    1.958   .     S
C181   C184    1.449   .     S
C181   O236    1.290   .     A
C181   O233    1.289   .     A
C182   C184    1.414   .     A
C182   C196    1.525   .     S
C182   C323    1.410   1_455 S
C183   C203    1.413   .     A
C183   C204    1.414   .     A
C183   C192    1.449   .     S
C184   C202    1.413   .     A
C185   N232    1.367   .     A
C185   H207    1.080   .     S
C186   N231    1.367   .     A
C186   H218    1.080   .     S
C186   C367    1.417   .     S
C187   N232    1.367   .     A
C187   H224    1.082   .     S
C188   N231    1.367   .     A
C188   H225    1.082   .     S
C188   C365    1.417   .     S
C189   C190    1.526   .     S
C189   C202    1.529   .     S
C189   H229    1.108   .     S
C189   H230    1.105   .     S
C190   H226    1.110   .     S
C190   H228    1.108   .     S
C190   H227    1.109   .     S
C191   H211    1.105   .     S
C191   C193    1.526   .     S
C191   H212    1.108   .     S
C191   C203    1.529   .     S
C192   O235    1.290   .     A
C192   O234    1.289   .     A
C193   H208    1.108   .     S
C193   H210    1.109   .     S
C193   H209    1.110   .     S
C194   H217    1.107   .     S
C194   H216    1.108   .     S
C194   C204    1.525   .     S
C194   C195    1.530   .     S
C195   H214    1.109   .     S
C195   H215    1.109   .     S
C195   H213    1.109   .     S
C196   H223    1.108   .     S
C196   H222    1.107   .     S
C196   C197    1.530   .     S
C197   H219    1.110   .     S
C197   H221    1.109   .     S
C197   H220    1.109   .     S
C198   O237    1.291   .     A
C198   O240    1.291   .     A
C198   C200    1.414   .     S
C199   C201    1.414   .     S
C199   O238    1.291   .     A
C199   O239    1.291   .     A
C200   C1281   1.194   1_554 S
C201   C740    1.194   .     S
C202   C324    1.410   1_455 S
C203   C242    1.410   .     S
C204   C262    1.410   .     S
Cu205  N231    2.016   .     S
Cu205  O237    1.941   .     S
Cu205  O233    1.960   .     S
Cu205  O235    1.958   .     S
Cu205  O239    1.941   .     S
Cu205  Cu206   2.683   .     S
Cu206  N232    2.016   .     S
Cu206  O234    1.960   .     S
Cu206  O240    1.941   .     S
Cu206  O238    1.941   .     S
Cu206  O236    1.958   .     S
C241   C244    1.449   .     S
C241   O296    1.290   .     A
C241   O293    1.289   .     A
C242   C244    1.414   .     A
C242   C256    1.525   .     S
C243   C263    1.413   .     A
C243   C264    1.414   .     A
C243   C252    1.449   .     S
C244   C262    1.413   .     A
C245   N292    1.367   .     A
C245   H267    1.080   .     S
C246   N291    1.367   .     A
C246   H278    1.080   .     S
C246   C427    1.417   .     S
C247   N292    1.367   .     A
C247   H284    1.082   .     S
C248   N291    1.367   .     A
C248   H285    1.082   .     S
C248   C425    1.417   .     S
C249   C250    1.526   .     S
C249   C262    1.529   .     S
C249   H289    1.108   .     S
C249   H290    1.105   .     S
C250   H286    1.110   .     S
C250   H288    1.108   .     S
C250   H287    1.109   .     S
C251   H271    1.105   .     S
C251   C253    1.526   .     S
C251   H272    1.108   .     S
C251   C263    1.529   .     S
C252   O295    1.290   .     A
C252   O294    1.289   .     A
C253   H268    1.108   .     S
C253   H270    1.109   .     S
C253   H269    1.110   .     S
C254   H277    1.107   .     S
C254   H276    1.108   .     S
C254   C264    1.525   .     S
C254   C255    1.530   .     S
C255   H274    1.109   .     S
C255   H275    1.109   .     S
C255   H273    1.109   .     S
C256   H283    1.108   .     S
C256   H282    1.107   .     S
C256   C257    1.530   .     S
C257   H279    1.110   .     S
C257   H281    1.109   .     S
C257   H280    1.109   .     S
C258   O297    1.291   .     A
C258   O300    1.291   .     A
C258   C260    1.414   .     S
C259   C261    1.414   .     S
C259   O298    1.291   .     A
C259   O299    1.291   .     A
C260   C1341   1.194   1_554 S
C261   C800    1.194   .     S
C263   C302    1.410   .     S
C264   C322    1.410   .     S
Cu265  N291    2.016   .     S
Cu265  O297    1.941   .     S
Cu265  O293    1.960   .     S
Cu265  O295    1.958   .     S
Cu265  O299    1.941   .     S
Cu265  Cu266   2.683   .     S
Cu266  N292    2.016   .     S
Cu266  O294    1.960   .     S
Cu266  O300    1.941   .     S
Cu266  O298    1.941   .     S
Cu266  O296    1.958   .     S
C301   C304    1.449   .     S
C301   O356    1.290   .     A
C301   O353    1.289   .     A
C302   C304    1.414   .     A
C302   C316    1.525   .     S
C303   C323    1.413   .     A
C303   C324    1.414   .     A
C303   C312    1.449   .     S
C304   C322    1.413   .     A
C305   N352    1.367   .     A
C305   H327    1.080   .     S
C306   N351    1.367   .     A
C306   H338    1.080   .     S
C306   C487    1.417   .     S
C307   N352    1.367   .     A
C307   H344    1.082   .     S
C308   N351    1.367   .     A
C308   H345    1.082   .     S
C308   C485    1.417   .     S
C309   C310    1.526   .     S
C309   C322    1.529   .     S
C309   H349    1.108   .     S
C309   H350    1.105   .     S
C310   H346    1.110   .     S
C310   H348    1.108   .     S
C310   H347    1.109   .     S
C311   H331    1.105   .     S
C311   C313    1.526   .     S
C311   H332    1.108   .     S
C311   C323    1.529   .     S
C312   O355    1.290   .     A
C312   O354    1.289   .     A
C313   H328    1.108   .     S
C313   H330    1.109   .     S
C313   H329    1.110   .     S
C314   H337    1.107   .     S
C314   H336    1.108   .     S
C314   C324    1.525   .     S
C314   C315    1.530   .     S
C315   H334    1.109   .     S
C315   H335    1.109   .     S
C315   H333    1.109   .     S
C316   H343    1.108   .     S
C316   H342    1.107   .     S
C316   C317    1.530   .     S
C317   H339    1.110   .     S
C317   H341    1.109   .     S
C317   H340    1.109   .     S
C318   O357    1.291   .     A
C318   O360    1.291   .     A
C318   C320    1.414   .     S
C319   C321    1.414   .     S
C319   O358    1.291   .     A
C319   O359    1.291   .     A
C320   C1401   1.194   1_554 S
C321   C860    1.194   .     S
C323   C182    1.410   1_655 S
C324   C202    1.410   1_655 S
Cu325  N351    2.016   .     S
Cu325  O357    1.941   .     S
Cu325  O353    1.960   .     S
Cu325  O355    1.958   .     S
Cu325  O359    1.941   .     S
Cu325  Cu326   2.683   .     S
Cu326  N352    2.016   .     S
Cu326  O354    1.960   .     S
Cu326  O360    1.941   .     S
Cu326  O358    1.941   .     S
Cu326  O356    1.958   .     S
C361   C364    1.449   .     S
C361   O416    1.290   .     A
C361   O413    1.289   .     A
C362   C364    1.414   .     A
C362   C376    1.525   .     S
C362   C503    1.410   1_455 S
C363   C383    1.413   .     A
C363   C384    1.414   .     A
C363   C372    1.449   .     S
C364   C382    1.413   .     A
C365   N412    1.367   .     A
C365   H387    1.080   .     S
C366   N411    1.367   .     A
C366   H398    1.080   .     S
C366   C7      1.417   1_565 S
C367   N412    1.367   .     A
C367   H404    1.082   .     S
C368   N411    1.367   .     A
C368   H405    1.082   .     S
C368   C5      1.417   1_565 S
C369   C370    1.526   .     S
C369   C382    1.529   .     S
C369   H409    1.108   .     S
C369   H410    1.105   .     S
C370   H406    1.110   .     S
C370   H408    1.108   .     S
C370   H407    1.109   .     S
C371   H391    1.105   .     S
C371   C373    1.526   .     S
C371   H392    1.108   .     S
C371   C383    1.529   .     S
C372   O415    1.290   .     A
C372   O414    1.289   .     A
C373   H388    1.108   .     S
C373   H390    1.109   .     S
C373   H389    1.110   .     S
C374   H397    1.107   .     S
C374   H396    1.108   .     S
C374   C384    1.525   .     S
C374   C375    1.530   .     S
C375   H394    1.109   .     S
C375   H395    1.109   .     S
C375   H393    1.109   .     S
C376   H403    1.108   .     S
C376   H402    1.107   .     S
C376   C377    1.530   .     S
C377   H399    1.110   .     S
C377   H401    1.109   .     S
C377   H400    1.109   .     S
C378   O417    1.291   .     A
C378   O420    1.291   .     A
C378   C380    1.414   .     S
C379   C381    1.414   .     S
C379   O418    1.291   .     A
C379   O419    1.291   .     A
C380   C1461   1.194   1_554 S
C381   C920    1.194   .     S
C382   C504    1.410   1_455 S
C383   C422    1.410   .     S
C384   C442    1.410   .     S
Cu385  N411    2.016   .     S
Cu385  O417    1.941   .     S
Cu385  O413    1.960   .     S
Cu385  O415    1.958   .     S
Cu385  O419    1.941   .     S
Cu385  Cu386   2.683   .     S
Cu386  N412    2.016   .     S
Cu386  O414    1.960   .     S
Cu386  O420    1.941   .     S
Cu386  O418    1.941   .     S
Cu386  O416    1.958   .     S
C421   C424    1.449   .     S
C421   O476    1.290   .     A
C421   O473    1.289   .     A
C422   C424    1.414   .     A
C422   C436    1.525   .     S
C423   C443    1.413   .     A
C423   C444    1.414   .     A
C423   C432    1.449   .     S
C424   C442    1.413   .     A
C425   N472    1.367   .     A
C425   H447    1.080   .     S
C426   N471    1.367   .     A
C426   H458    1.080   .     S
C426   C67     1.417   1_565 S
C427   N472    1.367   .     A
C427   H464    1.082   .     S
C428   N471    1.367   .     A
C428   H465    1.082   .     S
C428   C65     1.417   1_565 S
C429   C430    1.526   .     S
C429   C442    1.529   .     S
C429   H469    1.108   .     S
C429   H470    1.105   .     S
C430   H466    1.110   .     S
C430   H468    1.108   .     S
C430   H467    1.109   .     S
C431   H451    1.105   .     S
C431   C433    1.526   .     S
C431   H452    1.108   .     S
C431   C443    1.529   .     S
C432   O475    1.290   .     A
C432   O474    1.289   .     A
C433   H448    1.108   .     S
C433   H450    1.109   .     S
C433   H449    1.110   .     S
C434   H457    1.107   .     S
C434   H456    1.108   .     S
C434   C444    1.525   .     S
C434   C435    1.530   .     S
C435   H454    1.109   .     S
C435   H455    1.109   .     S
C435   H453    1.109   .     S
C436   H463    1.108   .     S
C436   H462    1.107   .     S
C436   C437    1.530   .     S
C437   H459    1.110   .     S
C437   H461    1.109   .     S
C437   H460    1.109   .     S
C438   O477    1.291   .     A
C438   O480    1.291   .     A
C438   C440    1.414   .     S
C439   C441    1.414   .     S
C439   O478    1.291   .     A
C439   O479    1.291   .     A
C440   C1521   1.194   1_554 S
C441   C980    1.194   .     S
C443   C482    1.410   .     S
C444   C502    1.410   .     S
Cu445  N471    2.016   .     S
Cu445  O477    1.941   .     S
Cu445  O473    1.960   .     S
Cu445  O475    1.958   .     S
Cu445  O479    1.941   .     S
Cu445  Cu446   2.683   .     S
Cu446  N472    2.016   .     S
Cu446  O474    1.960   .     S
Cu446  O480    1.941   .     S
Cu446  O478    1.941   .     S
Cu446  O476    1.958   .     S
C481   C484    1.449   .     S
C481   O536    1.290   .     A
C481   O533    1.289   .     A
C482   C484    1.414   .     A
C482   C496    1.525   .     S
C483   C503    1.413   .     A
C483   C504    1.414   .     A
C483   C492    1.449   .     S
C484   C502    1.413   .     A
C485   N532    1.367   .     A
C485   H507    1.080   .     S
C486   N531    1.367   .     A
C486   H518    1.080   .     S
C486   C127    1.417   1_565 S
C487   N532    1.367   .     A
C487   H524    1.082   .     S
C488   N531    1.367   .     A
C488   H525    1.082   .     S
C488   C125    1.417   1_565 S
C489   C490    1.526   .     S
C489   C502    1.529   .     S
C489   H529    1.108   .     S
C489   H530    1.105   .     S
C490   H526    1.110   .     S
C490   H528    1.108   .     S
C490   H527    1.109   .     S
C491   H511    1.105   .     S
C491   C493    1.526   .     S
C491   H512    1.108   .     S
C491   C503    1.529   .     S
C492   O535    1.290   .     A
C492   O534    1.289   .     A
C493   H508    1.108   .     S
C493   H510    1.109   .     S
C493   H509    1.110   .     S
C494   H517    1.107   .     S
C494   H516    1.108   .     S
C494   C504    1.525   .     S
C494   C495    1.530   .     S
C495   H514    1.109   .     S
C495   H515    1.109   .     S
C495   H513    1.109   .     S
C496   H523    1.108   .     S
C496   H522    1.107   .     S
C496   C497    1.530   .     S
C497   H519    1.110   .     S
C497   H521    1.109   .     S
C497   H520    1.109   .     S
C498   O537    1.291   .     A
C498   O540    1.291   .     A
C498   C500    1.414   .     S
C499   C501    1.414   .     S
C499   O538    1.291   .     A
C499   O539    1.291   .     A
C500   C1581   1.194   1_554 S
C501   C1040   1.194   .     S
C503   C362    1.410   1_655 S
C504   C382    1.410   1_655 S
Cu505  N531    2.016   .     S
Cu505  O537    1.941   .     S
Cu505  O533    1.960   .     S
Cu505  O535    1.958   .     S
Cu505  O539    1.941   .     S
Cu505  Cu506   2.683   .     S
Cu506  N532    2.016   .     S
Cu506  O534    1.960   .     S
Cu506  O540    1.941   .     S
Cu506  O538    1.941   .     S
Cu506  O536    1.958   .     S
C541   C544    1.449   .     S
C541   O596    1.290   .     A
C541   O593    1.289   .     A
C542   C544    1.414   .     A
C542   C556    1.525   .     S
C542   C683    1.410   1_455 S
C543   C563    1.413   .     A
C543   C564    1.414   .     A
C543   C552    1.449   .     S
C544   C562    1.413   .     A
C545   N592    1.367   .     A
C545   H567    1.080   .     S
C545   C908    1.417   1_545 S
C546   N591    1.367   .     A
C546   H578    1.080   .     S
C546   C727    1.417   .     S
C547   N592    1.367   .     A
C547   H584    1.082   .     S
C547   C906    1.417   1_545 S
C548   N591    1.367   .     A
C548   H585    1.082   .     S
C548   C725    1.417   .     S
C549   C550    1.526   .     S
C549   C562    1.529   .     S
C549   H589    1.108   .     S
C549   H590    1.105   .     S
C550   H586    1.110   .     S
C550   H588    1.108   .     S
C550   H587    1.109   .     S
C551   H571    1.105   .     S
C551   C553    1.526   .     S
C551   H572    1.108   .     S
C551   C563    1.529   .     S
C552   O595    1.290   .     A
C552   O594    1.289   .     A
C553   H568    1.108   .     S
C553   H570    1.109   .     S
C553   H569    1.110   .     S
C554   H577    1.107   .     S
C554   H576    1.108   .     S
C554   C564    1.525   .     S
C554   C555    1.530   .     S
C555   H574    1.109   .     S
C555   H575    1.109   .     S
C555   H573    1.109   .     S
C556   H583    1.108   .     S
C556   H582    1.107   .     S
C556   C557    1.530   .     S
C557   H579    1.110   .     S
C557   H581    1.109   .     S
C557   H580    1.109   .     S
C558   O597    1.291   .     A
C558   O600    1.291   .     A
C558   C560    1.414   .     S
C559   C561    1.414   .     S
C559   O598    1.291   .     A
C559   O599    1.291   .     A
C561   C1100   1.194   .     S
C562   C684    1.410   1_455 S
C563   C602    1.410   .     S
C564   C622    1.410   .     S
Cu565  N591    2.016   .     S
Cu565  O597    1.941   .     S
Cu565  O593    1.960   .     S
Cu565  O595    1.958   .     S
Cu565  O599    1.941   .     S
Cu565  Cu566   2.683   .     S
Cu566  N592    2.016   .     S
Cu566  O594    1.960   .     S
Cu566  O600    1.941   .     S
Cu566  O598    1.941   .     S
Cu566  O596    1.958   .     S
C601   C604    1.449   .     S
C601   O656    1.290   .     A
C601   O653    1.289   .     A
C602   C604    1.414   .     A
C602   C616    1.525   .     S
C603   C623    1.413   .     A
C603   C624    1.414   .     A
C603   C612    1.449   .     S
C604   C622    1.413   .     A
C605   N652    1.367   .     A
C605   H627    1.080   .     S
C605   C968    1.417   1_545 S
C606   N651    1.367   .     A
C606   H638    1.080   .     S
C606   C787    1.417   .     S
C607   N652    1.367   .     A
C607   H644    1.082   .     S
C607   C966    1.417   1_545 S
C608   N651    1.367   .     A
C608   H645    1.082   .     S
C608   C785    1.417   .     S
C609   C610    1.526   .     S
C609   C622    1.529   .     S
C609   H649    1.108   .     S
C609   H650    1.105   .     S
C610   H646    1.110   .     S
C610   H648    1.108   .     S
C610   H647    1.109   .     S
C611   H631    1.105   .     S
C611   C613    1.526   .     S
C611   H632    1.108   .     S
C611   C623    1.529   .     S
C612   O655    1.290   .     A
C612   O654    1.289   .     A
C613   H628    1.108   .     S
C613   H630    1.109   .     S
C613   H629    1.110   .     S
C614   H637    1.107   .     S
C614   H636    1.108   .     S
C614   C624    1.525   .     S
C614   C615    1.530   .     S
C615   H634    1.109   .     S
C615   H635    1.109   .     S
C615   H633    1.109   .     S
C616   H643    1.108   .     S
C616   H642    1.107   .     S
C616   C617    1.530   .     S
C617   H639    1.110   .     S
C617   H641    1.109   .     S
C617   H640    1.109   .     S
C618   O657    1.291   .     A
C618   O660    1.291   .     A
C618   C620    1.414   .     S
C619   C621    1.414   .     S
C619   O658    1.291   .     A
C619   O659    1.291   .     A
C621   C1160   1.194   .     S
C623   C662    1.410   .     S
C624   C682    1.410   .     S
Cu625  N651    2.016   .     S
Cu625  O657    1.941   .     S
Cu625  O653    1.960   .     S
Cu625  O655    1.958   .     S
Cu625  O659    1.941   .     S
Cu625  Cu626   2.683   .     S
Cu626  N652    2.016   .     S
Cu626  O654    1.960   .     S
Cu626  O660    1.941   .     S
Cu626  O658    1.941   .     S
Cu626  O656    1.958   .     S
C661   C664    1.449   .     S
C661   O716    1.290   .     A
C661   O713    1.289   .     A
C662   C664    1.414   .     A
C662   C676    1.525   .     S
C663   C683    1.413   .     A
C663   C684    1.414   .     A
C663   C672    1.449   .     S
C664   C682    1.413   .     A
C665   N712    1.367   .     A
C665   H687    1.080   .     S
C665   C1028   1.417   1_545 S
C666   N711    1.367   .     A
C666   H698    1.080   .     S
C666   C847    1.417   .     S
C667   N712    1.367   .     A
C667   H704    1.082   .     S
C667   C1026   1.417   1_545 S
C668   N711    1.367   .     A
C668   H705    1.082   .     S
C668   C845    1.417   .     S
C669   C670    1.526   .     S
C669   C682    1.529   .     S
C669   H709    1.108   .     S
C669   H710    1.105   .     S
C670   H706    1.110   .     S
C670   H708    1.108   .     S
C670   H707    1.109   .     S
C671   H691    1.105   .     S
C671   C673    1.526   .     S
C671   H692    1.108   .     S
C671   C683    1.529   .     S
C672   O715    1.290   .     A
C672   O714    1.289   .     A
C673   H688    1.108   .     S
C673   H690    1.109   .     S
C673   H689    1.110   .     S
C674   H697    1.107   .     S
C674   H696    1.108   .     S
C674   C684    1.525   .     S
C674   C675    1.530   .     S
C675   H694    1.109   .     S
C675   H695    1.109   .     S
C675   H693    1.109   .     S
C676   H703    1.108   .     S
C676   H702    1.107   .     S
C676   C677    1.530   .     S
C677   H699    1.110   .     S
C677   H701    1.109   .     S
C677   H700    1.109   .     S
C678   O717    1.291   .     A
C678   O720    1.291   .     A
C678   C680    1.414   .     S
C679   C681    1.414   .     S
C679   O718    1.291   .     A
C679   O719    1.291   .     A
C681   C1220   1.194   .     S
C683   C542    1.410   1_655 S
C684   C562    1.410   1_655 S
Cu685  N711    2.016   .     S
Cu685  O717    1.941   .     S
Cu685  O713    1.960   .     S
Cu685  O715    1.958   .     S
Cu685  O719    1.941   .     S
Cu685  Cu686   2.683   .     S
Cu686  N712    2.016   .     S
Cu686  O714    1.960   .     S
Cu686  O720    1.941   .     S
Cu686  O718    1.941   .     S
Cu686  O716    1.958   .     S
C721   C724    1.449   .     S
C721   O776    1.290   .     A
C721   O773    1.289   .     A
C722   C724    1.414   .     A
C722   C736    1.525   .     S
C722   C863    1.410   1_455 S
C723   C743    1.413   .     A
C723   C744    1.414   .     A
C723   C732    1.449   .     S
C724   C742    1.413   .     A
C725   N772    1.367   .     A
C725   H747    1.080   .     S
C726   N771    1.367   .     A
C726   H758    1.080   .     S
C726   C907    1.417   .     S
C727   N772    1.367   .     A
C727   H764    1.082   .     S
C728   N771    1.367   .     A
C728   H765    1.082   .     S
C728   C905    1.417   .     S
C729   C730    1.526   .     S
C729   C742    1.529   .     S
C729   H769    1.108   .     S
C729   H770    1.105   .     S
C730   H766    1.110   .     S
C730   H768    1.108   .     S
C730   H767    1.109   .     S
C731   H751    1.105   .     S
C731   C733    1.526   .     S
C731   H752    1.108   .     S
C731   C743    1.529   .     S
C732   O775    1.290   .     A
C732   O774    1.289   .     A
C733   H748    1.108   .     S
C733   H750    1.109   .     S
C733   H749    1.110   .     S
C734   H757    1.107   .     S
C734   H756    1.108   .     S
C734   C744    1.525   .     S
C734   C735    1.530   .     S
C735   H754    1.109   .     S
C735   H755    1.109   .     S
C735   H753    1.109   .     S
C736   H763    1.108   .     S
C736   H762    1.107   .     S
C736   C737    1.530   .     S
C737   H759    1.110   .     S
C737   H761    1.109   .     S
C737   H760    1.109   .     S
C738   O777    1.291   .     A
C738   O780    1.291   .     A
C738   C740    1.414   .     S
C739   C741    1.414   .     S
C739   O778    1.291   .     A
C739   O779    1.291   .     A
C741   C1280   1.194   .     S
C742   C864    1.410   1_455 S
C743   C782    1.410   .     S
C744   C802    1.410   .     S
Cu745  N771    2.016   .     S
Cu745  O777    1.941   .     S
Cu745  O773    1.960   .     S
Cu745  O775    1.958   .     S
Cu745  O779    1.941   .     S
Cu745  Cu746   2.683   .     S
Cu746  N772    2.016   .     S
Cu746  O774    1.960   .     S
Cu746  O780    1.941   .     S
Cu746  O778    1.941   .     S
Cu746  O776    1.958   .     S
C781   C784    1.449   .     S
C781   O836    1.290   .     A
C781   O833    1.289   .     A
C782   C784    1.414   .     A
C782   C796    1.525   .     S
C783   C803    1.413   .     A
C783   C804    1.414   .     A
C783   C792    1.449   .     S
C784   C802    1.413   .     A
C785   N832    1.367   .     A
C785   H807    1.080   .     S
C786   N831    1.367   .     A
C786   H818    1.080   .     S
C786   C967    1.417   .     S
C787   N832    1.367   .     A
C787   H824    1.082   .     S
C788   N831    1.367   .     A
C788   H825    1.082   .     S
C788   C965    1.417   .     S
C789   C790    1.526   .     S
C789   C802    1.529   .     S
C789   H829    1.108   .     S
C789   H830    1.105   .     S
C790   H826    1.110   .     S
C790   H828    1.108   .     S
C790   H827    1.109   .     S
C791   H811    1.105   .     S
C791   C793    1.526   .     S
C791   H812    1.108   .     S
C791   C803    1.529   .     S
C792   O835    1.290   .     A
C792   O834    1.289   .     A
C793   H808    1.108   .     S
C793   H810    1.109   .     S
C793   H809    1.110   .     S
C794   H817    1.107   .     S
C794   H816    1.108   .     S
C794   C804    1.525   .     S
C794   C795    1.530   .     S
C795   H814    1.109   .     S
C795   H815    1.109   .     S
C795   H813    1.109   .     S
C796   H823    1.108   .     S
C796   H822    1.107   .     S
C796   C797    1.530   .     S
C797   H819    1.110   .     S
C797   H821    1.109   .     S
C797   H820    1.109   .     S
C798   O837    1.291   .     A
C798   O840    1.291   .     A
C798   C800    1.414   .     S
C799   C801    1.414   .     S
C799   O838    1.291   .     A
C799   O839    1.291   .     A
C801   C1340   1.194   .     S
C803   C842    1.410   .     S
C804   C862    1.410   .     S
Cu805  N831    2.016   .     S
Cu805  O837    1.941   .     S
Cu805  O833    1.960   .     S
Cu805  O835    1.958   .     S
Cu805  O839    1.941   .     S
Cu805  Cu806   2.683   .     S
Cu806  N832    2.016   .     S
Cu806  O834    1.960   .     S
Cu806  O840    1.941   .     S
Cu806  O838    1.941   .     S
Cu806  O836    1.958   .     S
C841   C844    1.449   .     S
C841   O896    1.290   .     A
C841   O893    1.289   .     A
C842   C844    1.414   .     A
C842   C856    1.525   .     S
C843   C863    1.413   .     A
C843   C864    1.414   .     A
C843   C852    1.449   .     S
C844   C862    1.413   .     A
C845   N892    1.367   .     A
C845   H867    1.080   .     S
C846   N891    1.367   .     A
C846   H878    1.080   .     S
C846   C1027   1.417   .     S
C847   N892    1.367   .     A
C847   H884    1.082   .     S
C848   N891    1.367   .     A
C848   H885    1.082   .     S
C848   C1025   1.417   .     S
C849   C850    1.526   .     S
C849   C862    1.529   .     S
C849   H889    1.108   .     S
C849   H890    1.105   .     S
C850   H886    1.110   .     S
C850   H888    1.108   .     S
C850   H887    1.109   .     S
C851   H871    1.105   .     S
C851   C853    1.526   .     S
C851   H872    1.108   .     S
C851   C863    1.529   .     S
C852   O895    1.290   .     A
C852   O894    1.289   .     A
C853   H868    1.108   .     S
C853   H870    1.109   .     S
C853   H869    1.110   .     S
C854   H877    1.107   .     S
C854   H876    1.108   .     S
C854   C864    1.525   .     S
C854   C855    1.530   .     S
C855   H874    1.109   .     S
C855   H875    1.109   .     S
C855   H873    1.109   .     S
C856   H883    1.108   .     S
C856   H882    1.107   .     S
C856   C857    1.530   .     S
C857   H879    1.110   .     S
C857   H881    1.109   .     S
C857   H880    1.109   .     S
C858   O897    1.291   .     A
C858   O900    1.291   .     A
C858   C860    1.414   .     S
C859   C861    1.414   .     S
C859   O898    1.291   .     A
C859   O899    1.291   .     A
C861   C1400   1.194   .     S
C863   C722    1.410   1_655 S
C864   C742    1.410   1_655 S
Cu865  N891    2.016   .     S
Cu865  O897    1.941   .     S
Cu865  O893    1.960   .     S
Cu865  O895    1.958   .     S
Cu865  O899    1.941   .     S
Cu865  Cu866   2.683   .     S
Cu866  N892    2.016   .     S
Cu866  O894    1.960   .     S
Cu866  O900    1.941   .     S
Cu866  O898    1.941   .     S
Cu866  O896    1.958   .     S
C901   C904    1.449   .     S
C901   O956    1.290   .     A
C901   O953    1.289   .     A
C902   C904    1.414   .     A
C902   C916    1.525   .     S
C902   C1043   1.410   1_455 S
C903   C923    1.413   .     A
C903   C924    1.414   .     A
C903   C912    1.449   .     S
C904   C922    1.413   .     A
C905   N952    1.367   .     A
C905   H927    1.080   .     S
C906   N951    1.367   .     A
C906   H938    1.080   .     S
C906   C547    1.417   1_565 S
C907   N952    1.367   .     A
C907   H944    1.082   .     S
C908   N951    1.367   .     A
C908   H945    1.082   .     S
C908   C545    1.417   1_565 S
C909   C910    1.526   .     S
C909   C922    1.529   .     S
C909   H949    1.108   .     S
C909   H950    1.105   .     S
C910   H946    1.110   .     S
C910   H948    1.108   .     S
C910   H947    1.109   .     S
C911   H931    1.105   .     S
C911   C913    1.526   .     S
C911   H932    1.108   .     S
C911   C923    1.529   .     S
C912   O955    1.290   .     A
C912   O954    1.289   .     A
C913   H928    1.108   .     S
C913   H930    1.109   .     S
C913   H929    1.110   .     S
C914   H937    1.107   .     S
C914   H936    1.108   .     S
C914   C924    1.525   .     S
C914   C915    1.530   .     S
C915   H934    1.109   .     S
C915   H935    1.109   .     S
C915   H933    1.109   .     S
C916   H943    1.108   .     S
C916   H942    1.107   .     S
C916   C917    1.530   .     S
C917   H939    1.110   .     S
C917   H941    1.109   .     S
C917   H940    1.109   .     S
C918   O957    1.291   .     A
C918   O960    1.291   .     A
C918   C920    1.414   .     S
C919   C921    1.414   .     S
C919   O958    1.291   .     A
C919   O959    1.291   .     A
C921   C1460   1.194   .     S
C922   C1044   1.410   1_455 S
C923   C962    1.410   .     S
C924   C982    1.410   .     S
Cu925  N951    2.016   .     S
Cu925  O957    1.941   .     S
Cu925  O953    1.960   .     S
Cu925  O955    1.958   .     S
Cu925  O959    1.941   .     S
Cu925  Cu926   2.683   .     S
Cu926  N952    2.016   .     S
Cu926  O954    1.960   .     S
Cu926  O960    1.941   .     S
Cu926  O958    1.941   .     S
Cu926  O956    1.958   .     S
C961   C964    1.449   .     S
C961   O1016   1.290   .     A
C961   O1013   1.289   .     A
C962   C964    1.414   .     A
C962   C976    1.525   .     S
C963   C983    1.413   .     A
C963   C984    1.414   .     A
C963   C972    1.449   .     S
C964   C982    1.413   .     A
C965   N1012   1.367   .     A
C965   H987    1.080   .     S
C966   N1011   1.367   .     A
C966   H998    1.080   .     S
C966   C607    1.417   1_565 S
C967   N1012   1.367   .     A
C967   H1004   1.082   .     S
C968   N1011   1.367   .     A
C968   H1005   1.082   .     S
C968   C605    1.417   1_565 S
C969   C970    1.526   .     S
C969   C982    1.529   .     S
C969   H1009   1.108   .     S
C969   H1010   1.105   .     S
C970   H1006   1.110   .     S
C970   H1008   1.108   .     S
C970   H1007   1.109   .     S
C971   H991    1.105   .     S
C971   C973    1.526   .     S
C971   H992    1.108   .     S
C971   C983    1.529   .     S
C972   O1015   1.290   .     A
C972   O1014   1.289   .     A
C973   H988    1.108   .     S
C973   H990    1.109   .     S
C973   H989    1.110   .     S
C974   H997    1.107   .     S
C974   H996    1.108   .     S
C974   C984    1.525   .     S
C974   C975    1.530   .     S
C975   H994    1.109   .     S
C975   H995    1.109   .     S
C975   H993    1.109   .     S
C976   H1003   1.108   .     S
C976   H1002   1.107   .     S
C976   C977    1.530   .     S
C977   H999    1.110   .     S
C977   H1001   1.109   .     S
C977   H1000   1.109   .     S
C978   O1017   1.291   .     A
C978   O1020   1.291   .     A
C978   C980    1.414   .     S
C979   C981    1.414   .     S
C979   O1018   1.291   .     A
C979   O1019   1.291   .     A
C981   C1520   1.194   .     S
C983   C1022   1.410   .     S
C984   C1042   1.410   .     S
Cu985  N1011   2.016   .     S
Cu985  O1017   1.941   .     S
Cu985  O1013   1.960   .     S
Cu985  O1015   1.958   .     S
Cu985  O1019   1.941   .     S
Cu985  Cu986   2.683   .     S
Cu986  N1012   2.016   .     S
Cu986  O1014   1.960   .     S
Cu986  O1020   1.941   .     S
Cu986  O1018   1.941   .     S
Cu986  O1016   1.958   .     S
C1021  C1024   1.449   .     S
C1021  O1076   1.290   .     A
C1021  O1073   1.289   .     A
C1022  C1024   1.414   .     A
C1022  C1036   1.525   .     S
C1023  C1043   1.413   .     A
C1023  C1044   1.414   .     A
C1023  C1032   1.449   .     S
C1024  C1042   1.413   .     A
C1025  N1072   1.367   .     A
C1025  H1047   1.080   .     S
C1026  N1071   1.367   .     A
C1026  H1058   1.080   .     S
C1026  C667    1.417   1_565 S
C1027  N1072   1.367   .     A
C1027  H1064   1.082   .     S
C1028  N1071   1.367   .     A
C1028  H1065   1.082   .     S
C1028  C665    1.417   1_565 S
C1029  C1030   1.526   .     S
C1029  C1042   1.529   .     S
C1029  H1069   1.108   .     S
C1029  H1070   1.105   .     S
C1030  H1066   1.110   .     S
C1030  H1068   1.108   .     S
C1030  H1067   1.109   .     S
C1031  H1051   1.105   .     S
C1031  C1033   1.526   .     S
C1031  H1052   1.108   .     S
C1031  C1043   1.529   .     S
C1032  O1075   1.290   .     A
C1032  O1074   1.289   .     A
C1033  H1048   1.108   .     S
C1033  H1050   1.109   .     S
C1033  H1049   1.110   .     S
C1034  H1057   1.107   .     S
C1034  H1056   1.108   .     S
C1034  C1044   1.525   .     S
C1034  C1035   1.530   .     S
C1035  H1054   1.109   .     S
C1035  H1055   1.109   .     S
C1035  H1053   1.109   .     S
C1036  H1063   1.108   .     S
C1036  H1062   1.107   .     S
C1036  C1037   1.530   .     S
C1037  H1059   1.110   .     S
C1037  H1061   1.109   .     S
C1037  H1060   1.109   .     S
C1038  O1077   1.291   .     A
C1038  O1080   1.291   .     A
C1038  C1040   1.414   .     S
C1039  C1041   1.414   .     S
C1039  O1078   1.291   .     A
C1039  O1079   1.291   .     A
C1041  C1580   1.194   .     S
C1043  C902    1.410   1_655 S
C1044  C922    1.410   1_655 S
Cu1045 N1071   2.016   .     S
Cu1045 O1077   1.941   .     S
Cu1045 O1073   1.960   .     S
Cu1045 O1075   1.958   .     S
Cu1045 O1079   1.941   .     S
Cu1045 Cu1046  2.683   .     S
Cu1046 N1072   2.016   .     S
Cu1046 O1074   1.960   .     S
Cu1046 O1080   1.941   .     S
Cu1046 O1078   1.941   .     S
Cu1046 O1076   1.958   .     S
C1081  C1084   1.449   .     S
C1081  O1136   1.290   .     A
C1081  O1133   1.289   .     A
C1082  C1084   1.414   .     A
C1082  C1096   1.525   .     S
C1082  C1223   1.410   1_455 S
C1083  C1103   1.413   .     A
C1083  C1104   1.414   .     A
C1083  C1092   1.449   .     S
C1084  C1102   1.413   .     A
C1085  N1132   1.367   .     A
C1085  H1107   1.080   .     S
C1085  C1448   1.417   1_545 S
C1086  N1131   1.367   .     A
C1086  H1118   1.080   .     S
C1086  C1267   1.417   .     S
C1087  N1132   1.367   .     A
C1087  H1124   1.082   .     S
C1087  C1446   1.417   1_545 S
C1088  N1131   1.367   .     A
C1088  H1125   1.082   .     S
C1088  C1265   1.417   .     S
C1089  C1090   1.526   .     S
C1089  C1102   1.529   .     S
C1089  H1129   1.108   .     S
C1089  H1130   1.105   .     S
C1090  H1126   1.110   .     S
C1090  H1128   1.108   .     S
C1090  H1127   1.109   .     S
C1091  H1111   1.105   .     S
C1091  C1093   1.526   .     S
C1091  H1112   1.108   .     S
C1091  C1103   1.529   .     S
C1092  O1135   1.290   .     A
C1092  O1134   1.289   .     A
C1093  H1108   1.108   .     S
C1093  H1110   1.109   .     S
C1093  H1109   1.110   .     S
C1094  H1117   1.107   .     S
C1094  H1116   1.108   .     S
C1094  C1104   1.525   .     S
C1094  C1095   1.530   .     S
C1095  H1114   1.109   .     S
C1095  H1115   1.109   .     S
C1095  H1113   1.109   .     S
C1096  H1123   1.108   .     S
C1096  H1122   1.107   .     S
C1096  C1097   1.530   .     S
C1097  H1119   1.110   .     S
C1097  H1121   1.109   .     S
C1097  H1120   1.109   .     S
C1098  O1137   1.291   .     A
C1098  O1140   1.291   .     A
C1098  C1100   1.414   .     S
C1099  C1101   1.414   .     S
C1099  O1138   1.291   .     A
C1099  O1139   1.291   .     A
C1101  C20     1.194   1_556 S
C1102  C1224   1.410   1_455 S
C1103  C1142   1.410   .     S
C1104  C1162   1.410   .     S
Cu1105 N1131   2.016   .     S
Cu1105 O1137   1.941   .     S
Cu1105 O1133   1.960   .     S
Cu1105 O1135   1.958   .     S
Cu1105 O1139   1.941   .     S
Cu1105 Cu1106  2.683   .     S
Cu1106 N1132   2.016   .     S
Cu1106 O1134   1.960   .     S
Cu1106 O1140   1.941   .     S
Cu1106 O1138   1.941   .     S
Cu1106 O1136   1.958   .     S
C1141  C1144   1.449   .     S
C1141  O1196   1.290   .     A
C1141  O1193   1.289   .     A
C1142  C1144   1.414   .     A
C1142  C1156   1.525   .     S
C1143  C1163   1.413   .     A
C1143  C1164   1.414   .     A
C1143  C1152   1.449   .     S
C1144  C1162   1.413   .     A
C1145  N1192   1.367   .     A
C1145  H1167   1.080   .     S
C1145  C1508   1.417   1_545 S
C1146  N1191   1.367   .     A
C1146  H1178   1.080   .     S
C1146  C1327   1.417   .     S
C1147  N1192   1.367   .     A
C1147  H1184   1.082   .     S
C1147  C1506   1.417   1_545 S
C1148  N1191   1.367   .     A
C1148  H1185   1.082   .     S
C1148  C1325   1.417   .     S
C1149  C1150   1.526   .     S
C1149  C1162   1.529   .     S
C1149  H1189   1.108   .     S
C1149  H1190   1.105   .     S
C1150  H1186   1.110   .     S
C1150  H1188   1.108   .     S
C1150  H1187   1.109   .     S
C1151  H1171   1.105   .     S
C1151  C1153   1.526   .     S
C1151  H1172   1.108   .     S
C1151  C1163   1.529   .     S
C1152  O1195   1.290   .     A
C1152  O1194   1.289   .     A
C1153  H1168   1.108   .     S
C1153  H1170   1.109   .     S
C1153  H1169   1.110   .     S
C1154  H1177   1.107   .     S
C1154  H1176   1.108   .     S
C1154  C1164   1.525   .     S
C1154  C1155   1.530   .     S
C1155  H1174   1.109   .     S
C1155  H1175   1.109   .     S
C1155  H1173   1.109   .     S
C1156  H1183   1.108   .     S
C1156  H1182   1.107   .     S
C1156  C1157   1.530   .     S
C1157  H1179   1.110   .     S
C1157  H1181   1.109   .     S
C1157  H1180   1.109   .     S
C1158  O1197   1.291   .     A
C1158  O1200   1.291   .     A
C1158  C1160   1.414   .     S
C1159  C1161   1.414   .     S
C1159  O1198   1.291   .     A
C1159  O1199   1.291   .     A
C1161  C80     1.194   1_556 S
C1163  C1202   1.410   .     S
C1164  C1222   1.410   .     S
Cu1165 N1191   2.016   .     S
Cu1165 O1197   1.941   .     S
Cu1165 O1193   1.960   .     S
Cu1165 O1195   1.958   .     S
Cu1165 O1199   1.941   .     S
Cu1165 Cu1166  2.683   .     S
Cu1166 N1192   2.016   .     S
Cu1166 O1194   1.960   .     S
Cu1166 O1200   1.941   .     S
Cu1166 O1198   1.941   .     S
Cu1166 O1196   1.958   .     S
C1201  C1204   1.449   .     S
C1201  O1256   1.290   .     A
C1201  O1253   1.289   .     A
C1202  C1204   1.414   .     A
C1202  C1216   1.525   .     S
C1203  C1223   1.413   .     A
C1203  C1224   1.414   .     A
C1203  C1212   1.449   .     S
C1204  C1222   1.413   .     A
C1205  N1252   1.367   .     A
C1205  H1227   1.080   .     S
C1205  C1568   1.417   1_545 S
C1206  N1251   1.367   .     A
C1206  H1238   1.080   .     S
C1206  C1387   1.417   .     S
C1207  N1252   1.367   .     A
C1207  H1244   1.082   .     S
C1207  C1566   1.417   1_545 S
C1208  N1251   1.367   .     A
C1208  H1245   1.082   .     S
C1208  C1385   1.417   .     S
C1209  C1210   1.526   .     S
C1209  C1222   1.529   .     S
C1209  H1249   1.108   .     S
C1209  H1250   1.105   .     S
C1210  H1246   1.110   .     S
C1210  H1248   1.108   .     S
C1210  H1247   1.109   .     S
C1211  H1231   1.105   .     S
C1211  C1213   1.526   .     S
C1211  H1232   1.108   .     S
C1211  C1223   1.529   .     S
C1212  O1255   1.290   .     A
C1212  O1254   1.289   .     A
C1213  H1228   1.108   .     S
C1213  H1230   1.109   .     S
C1213  H1229   1.110   .     S
C1214  H1237   1.107   .     S
C1214  H1236   1.108   .     S
C1214  C1224   1.525   .     S
C1214  C1215   1.530   .     S
C1215  H1234   1.109   .     S
C1215  H1235   1.109   .     S
C1215  H1233   1.109   .     S
C1216  H1243   1.108   .     S
C1216  H1242   1.107   .     S
C1216  C1217   1.530   .     S
C1217  H1239   1.110   .     S
C1217  H1241   1.109   .     S
C1217  H1240   1.109   .     S
C1218  O1257   1.291   .     A
C1218  O1260   1.291   .     A
C1218  C1220   1.414   .     S
C1219  C1221   1.414   .     S
C1219  O1258   1.291   .     A
C1219  O1259   1.291   .     A
C1221  C140    1.194   1_556 S
C1223  C1082   1.410   1_655 S
C1224  C1102   1.410   1_655 S
Cu1225 N1251   2.016   .     S
Cu1225 O1257   1.941   .     S
Cu1225 O1253   1.960   .     S
Cu1225 O1255   1.958   .     S
Cu1225 O1259   1.941   .     S
Cu1225 Cu1226  2.683   .     S
Cu1226 N1252   2.016   .     S
Cu1226 O1254   1.960   .     S
Cu1226 O1260   1.941   .     S
Cu1226 O1258   1.941   .     S
Cu1226 O1256   1.958   .     S
C1261  C1264   1.449   .     S
C1261  O1316   1.290   .     A
C1261  O1313   1.289   .     A
C1262  C1264   1.414   .     A
C1262  C1276   1.525   .     S
C1262  C1403   1.410   1_455 S
C1263  C1283   1.413   .     A
C1263  C1284   1.414   .     A
C1263  C1272   1.449   .     S
C1264  C1282   1.413   .     A
C1265  N1312   1.367   .     A
C1265  H1287   1.080   .     S
C1266  N1311   1.367   .     A
C1266  H1298   1.080   .     S
C1266  C1447   1.417   .     S
C1267  N1312   1.367   .     A
C1267  H1304   1.082   .     S
C1268  N1311   1.367   .     A
C1268  H1305   1.082   .     S
C1268  C1445   1.417   .     S
C1269  C1270   1.526   .     S
C1269  C1282   1.529   .     S
C1269  H1309   1.108   .     S
C1269  H1310   1.105   .     S
C1270  H1306   1.110   .     S
C1270  H1308   1.108   .     S
C1270  H1307   1.109   .     S
C1271  H1291   1.105   .     S
C1271  C1273   1.526   .     S
C1271  H1292   1.108   .     S
C1271  C1283   1.529   .     S
C1272  O1315   1.290   .     A
C1272  O1314   1.289   .     A
C1273  H1288   1.108   .     S
C1273  H1290   1.109   .     S
C1273  H1289   1.110   .     S
C1274  H1297   1.107   .     S
C1274  H1296   1.108   .     S
C1274  C1284   1.525   .     S
C1274  C1275   1.530   .     S
C1275  H1294   1.109   .     S
C1275  H1295   1.109   .     S
C1275  H1293   1.109   .     S
C1276  H1303   1.108   .     S
C1276  H1302   1.107   .     S
C1276  C1277   1.530   .     S
C1277  H1299   1.110   .     S
C1277  H1301   1.109   .     S
C1277  H1300   1.109   .     S
C1278  O1317   1.291   .     A
C1278  O1320   1.291   .     A
C1278  C1280   1.414   .     S
C1279  C1281   1.414   .     S
C1279  O1318   1.291   .     A
C1279  O1319   1.291   .     A
C1281  C200    1.194   1_556 S
C1282  C1404   1.410   1_455 S
C1283  C1322   1.410   .     S
C1284  C1342   1.410   .     S
Cu1285 N1311   2.016   .     S
Cu1285 O1317   1.941   .     S
Cu1285 O1313   1.960   .     S
Cu1285 O1315   1.958   .     S
Cu1285 O1319   1.941   .     S
Cu1285 Cu1286  2.683   .     S
Cu1286 N1312   2.016   .     S
Cu1286 O1314   1.960   .     S
Cu1286 O1320   1.941   .     S
Cu1286 O1318   1.941   .     S
Cu1286 O1316   1.958   .     S
C1321  C1324   1.449   .     S
C1321  O1376   1.290   .     A
C1321  O1373   1.289   .     A
C1322  C1324   1.414   .     A
C1322  C1336   1.525   .     S
C1323  C1343   1.413   .     A
C1323  C1344   1.414   .     A
C1323  C1332   1.449   .     S
C1324  C1342   1.413   .     A
C1325  N1372   1.367   .     A
C1325  H1347   1.080   .     S
C1326  N1371   1.367   .     A
C1326  H1358   1.080   .     S
C1326  C1507   1.417   .     S
C1327  N1372   1.367   .     A
C1327  H1364   1.082   .     S
C1328  N1371   1.367   .     A
C1328  H1365   1.082   .     S
C1328  C1505   1.417   .     S
C1329  C1330   1.526   .     S
C1329  C1342   1.529   .     S
C1329  H1369   1.108   .     S
C1329  H1370   1.105   .     S
C1330  H1366   1.110   .     S
C1330  H1368   1.108   .     S
C1330  H1367   1.109   .     S
C1331  H1351   1.105   .     S
C1331  C1333   1.526   .     S
C1331  H1352   1.108   .     S
C1331  C1343   1.529   .     S
C1332  O1375   1.290   .     A
C1332  O1374   1.289   .     A
C1333  H1348   1.108   .     S
C1333  H1350   1.109   .     S
C1333  H1349   1.110   .     S
C1334  H1357   1.107   .     S
C1334  H1356   1.108   .     S
C1334  C1344   1.525   .     S
C1334  C1335   1.530   .     S
C1335  H1354   1.109   .     S
C1335  H1355   1.109   .     S
C1335  H1353   1.109   .     S
C1336  H1363   1.108   .     S
C1336  H1362   1.107   .     S
C1336  C1337   1.530   .     S
C1337  H1359   1.110   .     S
C1337  H1361   1.109   .     S
C1337  H1360   1.109   .     S
C1338  O1377   1.291   .     A
C1338  O1380   1.291   .     A
C1338  C1340   1.414   .     S
C1339  C1341   1.414   .     S
C1339  O1378   1.291   .     A
C1339  O1379   1.291   .     A
C1341  C260    1.194   1_556 S
C1343  C1382   1.410   .     S
C1344  C1402   1.410   .     S
Cu1345 N1371   2.016   .     S
Cu1345 O1377   1.941   .     S
Cu1345 O1373   1.960   .     S
Cu1345 O1375   1.958   .     S
Cu1345 O1379   1.941   .     S
Cu1345 Cu1346  2.683   .     S
Cu1346 N1372   2.016   .     S
Cu1346 O1374   1.960   .     S
Cu1346 O1380   1.941   .     S
Cu1346 O1378   1.941   .     S
Cu1346 O1376   1.958   .     S
C1381  C1384   1.449   .     S
C1381  O1436   1.290   .     A
C1381  O1433   1.289   .     A
C1382  C1384   1.414   .     A
C1382  C1396   1.525   .     S
C1383  C1403   1.413   .     A
C1383  C1404   1.414   .     A
C1383  C1392   1.449   .     S
C1384  C1402   1.413   .     A
C1385  N1432   1.367   .     A
C1385  H1407   1.080   .     S
C1386  N1431   1.367   .     A
C1386  H1418   1.080   .     S
C1386  C1567   1.417   .     S
C1387  N1432   1.367   .     A
C1387  H1424   1.082   .     S
C1388  N1431   1.367   .     A
C1388  H1425   1.082   .     S
C1388  C1565   1.417   .     S
C1389  C1390   1.526   .     S
C1389  C1402   1.529   .     S
C1389  H1429   1.108   .     S
C1389  H1430   1.105   .     S
C1390  H1426   1.110   .     S
C1390  H1428   1.108   .     S
C1390  H1427   1.109   .     S
C1391  H1411   1.105   .     S
C1391  C1393   1.526   .     S
C1391  H1412   1.108   .     S
C1391  C1403   1.529   .     S
C1392  O1435   1.290   .     A
C1392  O1434   1.289   .     A
C1393  H1408   1.108   .     S
C1393  H1410   1.109   .     S
C1393  H1409   1.110   .     S
C1394  H1417   1.107   .     S
C1394  H1416   1.108   .     S
C1394  C1404   1.525   .     S
C1394  C1395   1.530   .     S
C1395  H1414   1.109   .     S
C1395  H1415   1.109   .     S
C1395  H1413   1.109   .     S
C1396  H1423   1.108   .     S
C1396  H1422   1.107   .     S
C1396  C1397   1.530   .     S
C1397  H1419   1.110   .     S
C1397  H1421   1.109   .     S
C1397  H1420   1.109   .     S
C1398  O1437   1.291   .     A
C1398  O1440   1.291   .     A
C1398  C1400   1.414   .     S
C1399  C1401   1.414   .     S
C1399  O1438   1.291   .     A
C1399  O1439   1.291   .     A
C1401  C320    1.194   1_556 S
C1403  C1262   1.410   1_655 S
C1404  C1282   1.410   1_655 S
Cu1405 N1431   2.016   .     S
Cu1405 O1437   1.941   .     S
Cu1405 O1433   1.960   .     S
Cu1405 O1435   1.958   .     S
Cu1405 O1439   1.941   .     S
Cu1405 Cu1406  2.683   .     S
Cu1406 N1432   2.016   .     S
Cu1406 O1434   1.960   .     S
Cu1406 O1440   1.941   .     S
Cu1406 O1438   1.941   .     S
Cu1406 O1436   1.958   .     S
C1441  C1444   1.449   .     S
C1441  O1496   1.290   .     A
C1441  O1493   1.289   .     A
C1442  C1444   1.414   .     A
C1442  C1456   1.525   .     S
C1442  C1583   1.410   1_455 S
C1443  C1463   1.413   .     A
C1443  C1464   1.414   .     A
C1443  C1452   1.449   .     S
C1444  C1462   1.413   .     A
C1445  N1492   1.367   .     A
C1445  H1467   1.080   .     S
C1446  N1491   1.367   .     A
C1446  H1478   1.080   .     S
C1446  C1087   1.417   1_565 S
C1447  N1492   1.367   .     A
C1447  H1484   1.082   .     S
C1448  N1491   1.367   .     A
C1448  H1485   1.082   .     S
C1448  C1085   1.417   1_565 S
C1449  C1450   1.526   .     S
C1449  C1462   1.529   .     S
C1449  H1489   1.108   .     S
C1449  H1490   1.105   .     S
C1450  H1486   1.110   .     S
C1450  H1488   1.108   .     S
C1450  H1487   1.109   .     S
C1451  H1471   1.105   .     S
C1451  C1453   1.526   .     S
C1451  H1472   1.108   .     S
C1451  C1463   1.529   .     S
C1452  O1495   1.290   .     A
C1452  O1494   1.289   .     A
C1453  H1468   1.108   .     S
C1453  H1470   1.109   .     S
C1453  H1469   1.110   .     S
C1454  H1477   1.107   .     S
C1454  H1476   1.108   .     S
C1454  C1464   1.525   .     S
C1454  C1455   1.530   .     S
C1455  H1474   1.109   .     S
C1455  H1475   1.109   .     S
C1455  H1473   1.109   .     S
C1456  H1483   1.108   .     S
C1456  H1482   1.107   .     S
C1456  C1457   1.530   .     S
C1457  H1479   1.110   .     S
C1457  H1481   1.109   .     S
C1457  H1480   1.109   .     S
C1458  O1497   1.291   .     A
C1458  O1500   1.291   .     A
C1458  C1460   1.414   .     S
C1459  C1461   1.414   .     S
C1459  O1498   1.291   .     A
C1459  O1499   1.291   .     A
C1461  C380    1.194   1_556 S
C1462  C1584   1.410   1_455 S
C1463  C1502   1.410   .     S
C1464  C1522   1.410   .     S
Cu1465 N1491   2.016   .     S
Cu1465 O1497   1.941   .     S
Cu1465 O1493   1.960   .     S
Cu1465 O1495   1.958   .     S
Cu1465 O1499   1.941   .     S
Cu1465 Cu1466  2.683   .     S
Cu1466 N1492   2.016   .     S
Cu1466 O1494   1.960   .     S
Cu1466 O1500   1.941   .     S
Cu1466 O1498   1.941   .     S
Cu1466 O1496   1.958   .     S
C1501  C1504   1.449   .     S
C1501  O1556   1.290   .     A
C1501  O1553   1.289   .     A
C1502  C1504   1.414   .     A
C1502  C1516   1.525   .     S
C1503  C1523   1.413   .     A
C1503  C1524   1.414   .     A
C1503  C1512   1.449   .     S
C1504  C1522   1.413   .     A
C1505  N1552   1.367   .     A
C1505  H1527   1.080   .     S
C1506  N1551   1.367   .     A
C1506  H1538   1.080   .     S
C1506  C1147   1.417   1_565 S
C1507  N1552   1.367   .     A
C1507  H1544   1.082   .     S
C1508  N1551   1.367   .     A
C1508  H1545   1.082   .     S
C1508  C1145   1.417   1_565 S
C1509  C1510   1.526   .     S
C1509  C1522   1.529   .     S
C1509  H1549   1.108   .     S
C1509  H1550   1.105   .     S
C1510  H1546   1.110   .     S
C1510  H1548   1.108   .     S
C1510  H1547   1.109   .     S
C1511  H1531   1.105   .     S
C1511  C1513   1.526   .     S
C1511  H1532   1.108   .     S
C1511  C1523   1.529   .     S
C1512  O1555   1.290   .     A
C1512  O1554   1.289   .     A
C1513  H1528   1.108   .     S
C1513  H1530   1.109   .     S
C1513  H1529   1.110   .     S
C1514  H1537   1.107   .     S
C1514  H1536   1.108   .     S
C1514  C1524   1.525   .     S
C1514  C1515   1.530   .     S
C1515  H1534   1.109   .     S
C1515  H1535   1.109   .     S
C1515  H1533   1.109   .     S
C1516  H1543   1.108   .     S
C1516  H1542   1.107   .     S
C1516  C1517   1.530   .     S
C1517  H1539   1.110   .     S
C1517  H1541   1.109   .     S
C1517  H1540   1.109   .     S
C1518  O1557   1.291   .     A
C1518  O1560   1.291   .     A
C1518  C1520   1.414   .     S
C1519  C1521   1.414   .     S
C1519  O1558   1.291   .     A
C1519  O1559   1.291   .     A
C1521  C440    1.194   1_556 S
C1523  C1562   1.410   .     S
C1524  C1582   1.410   .     S
Cu1525 N1551   2.016   .     S
Cu1525 O1557   1.941   .     S
Cu1525 O1553   1.960   .     S
Cu1525 O1555   1.958   .     S
Cu1525 O1559   1.941   .     S
Cu1525 Cu1526  2.683   .     S
Cu1526 N1552   2.016   .     S
Cu1526 O1554   1.960   .     S
Cu1526 O1560   1.941   .     S
Cu1526 O1558   1.941   .     S
Cu1526 O1556   1.958   .     S
C1561  C1564   1.449   .     S
C1561  O1616   1.290   .     A
C1561  O1613   1.289   .     A
C1562  C1564   1.414   .     A
C1562  C1576   1.525   .     S
C1563  C1583   1.413   .     A
C1563  C1584   1.414   .     A
C1563  C1572   1.449   .     S
C1564  C1582   1.413   .     A
C1565  N1612   1.367   .     A
C1565  H1587   1.080   .     S
C1566  N1611   1.367   .     A
C1566  H1598   1.080   .     S
C1566  C1207   1.417   1_565 S
C1567  N1612   1.367   .     A
C1567  H1604   1.082   .     S
C1568  N1611   1.367   .     A
C1568  H1605   1.082   .     S
C1568  C1205   1.417   1_565 S
C1569  C1570   1.526   .     S
C1569  C1582   1.529   .     S
C1569  H1609   1.108   .     S
C1569  H1610   1.105   .     S
C1570  H1606   1.110   .     S
C1570  H1608   1.108   .     S
C1570  H1607   1.109   .     S
C1571  H1591   1.105   .     S
C1571  C1573   1.526   .     S
C1571  H1592   1.108   .     S
C1571  C1583   1.529   .     S
C1572  O1615   1.290   .     A
C1572  O1614   1.289   .     A
C1573  H1588   1.108   .     S
C1573  H1590   1.109   .     S
C1573  H1589   1.110   .     S
C1574  H1597   1.107   .     S
C1574  H1596   1.108   .     S
C1574  C1584   1.525   .     S
C1574  C1575   1.530   .     S
C1575  H1594   1.109   .     S
C1575  H1595   1.109   .     S
C1575  H1593   1.109   .     S
C1576  H1603   1.108   .     S
C1576  H1602   1.107   .     S
C1576  C1577   1.530   .     S
C1577  H1599   1.110   .     S
C1577  H1601   1.109   .     S
C1577  H1600   1.109   .     S
C1578  O1617   1.291   .     A
C1578  O1620   1.291   .     A
C1578  C1580   1.414   .     S
C1579  C1581   1.414   .     S
C1579  O1618   1.291   .     A
C1579  O1619   1.291   .     A
C1581  C500    1.194   1_556 S
C1583  C1442   1.410   1_655 S
C1584  C1462   1.410   1_655 S
Cu1585 N1611   2.016   .     S
Cu1585 O1617   1.941   .     S
Cu1585 O1613   1.960   .     S
Cu1585 O1615   1.958   .     S
Cu1585 O1619   1.941   .     S
Cu1585 Cu1586  2.683   .     S
Cu1586 N1612   2.016   .     S
Cu1586 O1614   1.960   .     S
Cu1586 O1620   1.941   .     S
Cu1586 O1618   1.941   .     S
Cu1586 O1616   1.958   .     S
