data_str_m2_o5_o17_pcu_sym.33
_audit_creation_date              2020-01-03
_audit_creation_method            'Materials Studio'
_symmetry_space_group_name_H-M    'P1'
_symmetry_Int_Tables_number       1
_symmetry_cell_setting            triclinic
loop_
_symmetry_equiv_pos_as_xyz
  x,y,z
_cell_length_a                    30.2609
_cell_length_b                    27.7527
_cell_length_c                    23.3234
_cell_angle_alpha                 90.0423
_cell_angle_beta                  90.3479
_cell_angle_gamma                 90.2818
loop_
_atom_site_label
_atom_site_type_symbol
_atom_site_fract_x
_atom_site_fract_y
_atom_site_fract_z
_atom_site_U_iso_or_equiv
_atom_site_adp_type
_atom_site_occupancy
C1     C     0.25030   0.07325   0.16668   0.00000  Uiso   1.00
C2     C     0.11620   0.16565   0.16567   0.00000  Uiso   1.00
C3     C     0.45287   0.12266   0.16486   0.00000  Uiso   1.00
C4     C     0.04702   0.21015   0.16487   0.00000  Uiso   1.00
C5     C     0.45358   0.21062   0.17313   0.00000  Uiso   1.00
C6     C     0.04633   0.12225   0.17255   0.00000  Uiso   1.00
C7     C     0.47648   0.16654   0.16937   0.00000  Uiso   1.00
C8     C     0.02344   0.16635   0.16931   0.00000  Uiso   1.00
C9     C     0.47710   0.07968   0.16075   0.00000  Uiso   1.00
C10    C     0.02274   0.25315   0.16089   0.00000  Uiso   1.00
C11    C     0.47859   0.25338   0.17748   0.00000  Uiso   1.00
C12    C     0.24998   0.26008   0.16669   0.00000  Uiso   1.00
C13    C     0.02133   0.07953   0.17738   0.00000  Uiso   1.00
C14    C     0.25006   0.02168   0.16673   0.00000  Uiso   1.00
C15    C     0.24998   0.31165   0.16673   0.00000  Uiso   1.00
C16    C     0.45767   0.04190   0.07829   0.00000  Uiso   1.00
C17    C     0.04194   0.29131   0.07891   0.00000  Uiso   1.00
C18    C     0.45916   0.29224   0.25878   0.00000  Uiso   1.00
C19    C     0.04442   0.04200   0.25836   0.00000  Uiso   1.00
C20    C     0.38153   0.25640   0.16866   0.00000  Uiso   1.00
C21    C     0.11555   0.07436   0.16012   0.00000  Uiso   1.00
C22    C     0.38021   0.07740   0.16704   0.00000  Uiso   1.00
C23    C     0.16436   0.16607   0.16644   0.00000  Uiso   1.00
C24    C     0.11967   0.25540   0.16801   0.00000  Uiso   1.00
C25    C     0.33560   0.16697   0.16686   0.00000  Uiso   1.00
C26    C     0.40686   0.21082   0.17106   0.00000  Uiso   1.00
C27    C     0.09285   0.12153   0.16752   0.00000  Uiso   1.00
C28    C     0.40619   0.12283   0.16522   0.00000  Uiso   1.00
C29    C     0.09373   0.20987   0.16520   0.00000  Uiso   1.00
C30    C     0.38376   0.16690   0.16750   0.00000  Uiso   1.00
Cu31   Cu    0.25000   0.16667   0.22303   0.00000  Uiso   1.00
Cu32   Cu    0.25000   0.16667   0.11031   0.00000  Uiso   1.00
H33    H     0.49133   0.04764   0.06053   0.00000  Uiso   1.00
H34    H     0.01240   0.04999   0.27955   0.00000  Uiso   1.00
H35    H     0.06927   0.07012   0.26976   0.00000  Uiso   1.00
H36    H     0.05667   0.00731   0.27566   0.00000  Uiso   1.00
H37    H     0.33824   0.30039   0.20760   0.00000  Uiso   1.00
H38    H     0.00626   0.14507   0.03907   0.00000  Uiso   1.00
H39    H     0.33764   0.03286   0.12628   0.00000  Uiso   1.00
H40    H     0.16107   0.30108   0.12782   0.00000  Uiso   1.00
H41    H     0.43547   0.07138   0.06385   0.00000  Uiso   1.00
H42    H     0.44440   0.00778   0.06022   0.00000  Uiso   1.00
H43    H     0.00820   0.28579   0.06075   0.00000  Uiso   1.00
H44    H     0.06399   0.26182   0.06442   0.00000  Uiso   1.00
H45    H     0.05529   0.32550   0.06135   0.00000  Uiso   1.00
H46    H     0.49245   0.28564   0.27768   0.00000  Uiso   1.00
H47    H     0.43580   0.26363   0.27291   0.00000  Uiso   1.00
H48    H     0.44700   0.32698   0.27594   0.00000  Uiso   1.00
N49    N     0.25000   0.16667   0.02561   0.00000  Uiso   1.00
N50    N     0.25000   0.16667   0.30773   0.00000  Uiso   1.00
O51    O     0.25000   0.09613   0.21425   0.00000  Uiso   1.00
O52    O     0.04105   0.29486   0.13930   0.00000  Uiso   1.00
O53    O     0.46085   0.29544   0.19840   0.00000  Uiso   1.00
O54    O     0.03927   0.03749   0.19835   0.00000  Uiso   1.00
O55    O     0.38572   0.28342   0.12768   0.00000  Uiso   1.00
O56    O     0.35298   0.26807   0.21337   0.00000  Uiso   1.00
O57    O     0.15312   0.07046   0.14226   0.00000  Uiso   1.00
O58    O    -0.00397   0.17526   0.01873   0.00000  Uiso   1.00
O59    O     0.38343   0.05067   0.20848   0.00000  Uiso   1.00
O60    O     0.35245   0.06534   0.12110   0.00000  Uiso   1.00
O61    O     0.11671   0.28166   0.20991   0.00000  Uiso   1.00
O62    O     0.25000   0.23720   0.11908   0.00000  Uiso   1.00
O63    O     0.14687   0.26827   0.12227   0.00000  Uiso   1.00
O64    O     0.25000   0.23720   0.21425   0.00000  Uiso   1.00
O65    O     0.25000   0.09613   0.11908   0.00000  Uiso   1.00
O66    O     0.18513   0.16667   0.21427   0.00000  Uiso   1.00
O67    O     0.31487   0.16667   0.11907   0.00000  Uiso   1.00
O68    O     0.31487   0.16667   0.21427   0.00000  Uiso   1.00
O69    O     0.18513   0.16667   0.11907   0.00000  Uiso   1.00
O70    O     0.45874   0.03804   0.13867   0.00000  Uiso   1.00
C71    C     0.75030   0.07325   0.16668   0.00000  Uiso   1.00
C72    C     0.61620   0.16565   0.16567   0.00000  Uiso   1.00
C73    C     0.95287   0.12266   0.16486   0.00000  Uiso   1.00
C74    C     0.54702   0.21015   0.16487   0.00000  Uiso   1.00
C75    C     0.95358   0.21062   0.17313   0.00000  Uiso   1.00
C76    C     0.54633   0.12225   0.17255   0.00000  Uiso   1.00
C77    C     0.97648   0.16654   0.16937   0.00000  Uiso   1.00
C78    C     0.52344   0.16635   0.16931   0.00000  Uiso   1.00
C79    C     0.97710   0.07968   0.16075   0.00000  Uiso   1.00
C80    C     0.52274   0.25315   0.16089   0.00000  Uiso   1.00
C81    C     0.97859   0.25338   0.17748   0.00000  Uiso   1.00
C82    C     0.74998   0.26008   0.16669   0.00000  Uiso   1.00
C83    C     0.52133   0.07953   0.17738   0.00000  Uiso   1.00
C84    C     0.75006   0.02168   0.16673   0.00000  Uiso   1.00
C85    C     0.74998   0.31165   0.16673   0.00000  Uiso   1.00
C86    C     0.95767   0.04190   0.07829   0.00000  Uiso   1.00
C87    C     0.54194   0.29131   0.07891   0.00000  Uiso   1.00
C88    C     0.95916   0.29224   0.25878   0.00000  Uiso   1.00
C89    C     0.54442   0.04200   0.25836   0.00000  Uiso   1.00
C90    C     0.88153   0.25640   0.16866   0.00000  Uiso   1.00
C91    C     0.61555   0.07436   0.16012   0.00000  Uiso   1.00
C92    C     0.88021   0.07740   0.16704   0.00000  Uiso   1.00
C93    C     0.66436   0.16607   0.16644   0.00000  Uiso   1.00
C94    C     0.61967   0.25540   0.16801   0.00000  Uiso   1.00
C95    C     0.83560   0.16697   0.16686   0.00000  Uiso   1.00
C96    C     0.90686   0.21082   0.17106   0.00000  Uiso   1.00
C97    C     0.59285   0.12153   0.16752   0.00000  Uiso   1.00
C98    C     0.90619   0.12283   0.16522   0.00000  Uiso   1.00
C99    C     0.59373   0.20987   0.16520   0.00000  Uiso   1.00
C100   C     0.88376   0.16690   0.16750   0.00000  Uiso   1.00
Cu101  Cu    0.75000   0.16667   0.22303   0.00000  Uiso   1.00
Cu102  Cu    0.75000   0.16667   0.11031   0.00000  Uiso   1.00
H103   H     0.99133   0.04764   0.06053   0.00000  Uiso   1.00
H104   H     0.51240   0.04999   0.27955   0.00000  Uiso   1.00
H105   H     0.56927   0.07012   0.26976   0.00000  Uiso   1.00
H106   H     0.55667   0.00731   0.27566   0.00000  Uiso   1.00
H107   H     0.83824   0.30039   0.20760   0.00000  Uiso   1.00
H108   H     0.50626   0.14507   0.03907   0.00000  Uiso   1.00
H109   H     0.83764   0.03286   0.12628   0.00000  Uiso   1.00
H110   H     0.66107   0.30108   0.12782   0.00000  Uiso   1.00
H111   H     0.93547   0.07138   0.06385   0.00000  Uiso   1.00
H112   H     0.94440   0.00778   0.06022   0.00000  Uiso   1.00
H113   H     0.50820   0.28579   0.06075   0.00000  Uiso   1.00
H114   H     0.56399   0.26182   0.06442   0.00000  Uiso   1.00
H115   H     0.55529   0.32550   0.06135   0.00000  Uiso   1.00
H116   H     0.99245   0.28564   0.27768   0.00000  Uiso   1.00
H117   H     0.93580   0.26363   0.27291   0.00000  Uiso   1.00
H118   H     0.94700   0.32698   0.27594   0.00000  Uiso   1.00
N119   N     0.75000   0.16667   0.02561   0.00000  Uiso   1.00
N120   N     0.75000   0.16667   0.30773   0.00000  Uiso   1.00
O121   O     0.75000   0.09613   0.21425   0.00000  Uiso   1.00
O122   O     0.54105   0.29486   0.13930   0.00000  Uiso   1.00
O123   O     0.96085   0.29544   0.19840   0.00000  Uiso   1.00
O124   O     0.53927   0.03749   0.19835   0.00000  Uiso   1.00
O125   O     0.88572   0.28342   0.12768   0.00000  Uiso   1.00
O126   O     0.85298   0.26807   0.21337   0.00000  Uiso   1.00
O127   O     0.65312   0.07046   0.14226   0.00000  Uiso   1.00
O128   O     0.49603   0.17526   0.01873   0.00000  Uiso   1.00
O129   O     0.88343   0.05067   0.20848   0.00000  Uiso   1.00
O130   O     0.85245   0.06534   0.12110   0.00000  Uiso   1.00
O131   O     0.61671   0.28166   0.20991   0.00000  Uiso   1.00
O132   O     0.75000   0.23720   0.11908   0.00000  Uiso   1.00
O133   O     0.64687   0.26827   0.12227   0.00000  Uiso   1.00
O134   O     0.75000   0.23720   0.21425   0.00000  Uiso   1.00
O135   O     0.75000   0.09613   0.11908   0.00000  Uiso   1.00
O136   O     0.68513   0.16667   0.21427   0.00000  Uiso   1.00
O137   O     0.81487   0.16667   0.11907   0.00000  Uiso   1.00
O138   O     0.81487   0.16667   0.21427   0.00000  Uiso   1.00
O139   O     0.68513   0.16667   0.11907   0.00000  Uiso   1.00
O140   O     0.95874   0.03804   0.13867   0.00000  Uiso   1.00
C141   C     0.25030   0.40658   0.16668   0.00000  Uiso   1.00
C142   C     0.11620   0.49898   0.16567   0.00000  Uiso   1.00
C143   C     0.45287   0.45599   0.16486   0.00000  Uiso   1.00
C144   C     0.04702   0.54348   0.16487   0.00000  Uiso   1.00
C145   C     0.45358   0.54396   0.17313   0.00000  Uiso   1.00
C146   C     0.04633   0.45558   0.17255   0.00000  Uiso   1.00
C147   C     0.47648   0.49987   0.16937   0.00000  Uiso   1.00
C148   C     0.02344   0.49968   0.16931   0.00000  Uiso   1.00
C149   C     0.47710   0.41301   0.16075   0.00000  Uiso   1.00
C150   C     0.02274   0.58649   0.16089   0.00000  Uiso   1.00
C151   C     0.47859   0.58671   0.17748   0.00000  Uiso   1.00
C152   C     0.24998   0.59342   0.16669   0.00000  Uiso   1.00
C153   C     0.02133   0.41286   0.17738   0.00000  Uiso   1.00
C154   C     0.25006   0.35501   0.16673   0.00000  Uiso   1.00
C155   C     0.24998   0.64499   0.16673   0.00000  Uiso   1.00
C156   C     0.45767   0.37523   0.07829   0.00000  Uiso   1.00
C157   C     0.04194   0.62465   0.07891   0.00000  Uiso   1.00
C158   C     0.45916   0.62558   0.25878   0.00000  Uiso   1.00
C159   C     0.04442   0.37533   0.25836   0.00000  Uiso   1.00
C160   C     0.38153   0.58973   0.16866   0.00000  Uiso   1.00
C161   C     0.11555   0.40769   0.16012   0.00000  Uiso   1.00
C162   C     0.38021   0.41073   0.16704   0.00000  Uiso   1.00
C163   C     0.16436   0.49940   0.16644   0.00000  Uiso   1.00
C164   C     0.11967   0.58873   0.16801   0.00000  Uiso   1.00
C165   C     0.33560   0.50030   0.16686   0.00000  Uiso   1.00
C166   C     0.40686   0.54415   0.17106   0.00000  Uiso   1.00
C167   C     0.09285   0.45487   0.16752   0.00000  Uiso   1.00
C168   C     0.40619   0.45616   0.16522   0.00000  Uiso   1.00
C169   C     0.09373   0.54320   0.16520   0.00000  Uiso   1.00
C170   C     0.38376   0.50023   0.16750   0.00000  Uiso   1.00
Cu171  Cu    0.25000   0.50000   0.22303   0.00000  Uiso   1.00
Cu172  Cu    0.25000   0.50000   0.11031   0.00000  Uiso   1.00
H173   H     0.49133   0.38097   0.06053   0.00000  Uiso   1.00
H174   H     0.01240   0.38333   0.27955   0.00000  Uiso   1.00
H175   H     0.06927   0.40345   0.26976   0.00000  Uiso   1.00
H176   H     0.05667   0.34064   0.27566   0.00000  Uiso   1.00
H177   H     0.33824   0.63372   0.20760   0.00000  Uiso   1.00
H178   H     0.00626   0.47840   0.03907   0.00000  Uiso   1.00
H179   H     0.33764   0.36619   0.12628   0.00000  Uiso   1.00
H180   H     0.16107   0.63441   0.12782   0.00000  Uiso   1.00
H181   H     0.43547   0.40472   0.06385   0.00000  Uiso   1.00
H182   H     0.44440   0.34111   0.06022   0.00000  Uiso   1.00
H183   H     0.00820   0.61912   0.06075   0.00000  Uiso   1.00
H184   H     0.06399   0.59515   0.06442   0.00000  Uiso   1.00
H185   H     0.05529   0.65883   0.06135   0.00000  Uiso   1.00
H186   H     0.49245   0.61898   0.27768   0.00000  Uiso   1.00
H187   H     0.43580   0.59696   0.27291   0.00000  Uiso   1.00
H188   H     0.44700   0.66031   0.27594   0.00000  Uiso   1.00
N189   N     0.25000   0.50000   0.02561   0.00000  Uiso   1.00
N190   N     0.25000   0.50000   0.30773   0.00000  Uiso   1.00
O191   O     0.25000   0.42946   0.21425   0.00000  Uiso   1.00
O192   O     0.04105   0.62820   0.13930   0.00000  Uiso   1.00
O193   O     0.46085   0.62877   0.19840   0.00000  Uiso   1.00
O194   O     0.03927   0.37082   0.19835   0.00000  Uiso   1.00
O195   O     0.38572   0.61676   0.12768   0.00000  Uiso   1.00
O196   O     0.35298   0.60140   0.21337   0.00000  Uiso   1.00
O197   O     0.15312   0.40379   0.14226   0.00000  Uiso   1.00
O198   O    -0.00397   0.50860   0.01873   0.00000  Uiso   1.00
O199   O     0.38343   0.38401   0.20848   0.00000  Uiso   1.00
O200   O     0.35245   0.39868   0.12110   0.00000  Uiso   1.00
O201   O     0.11671   0.61500   0.20991   0.00000  Uiso   1.00
O202   O     0.25000   0.57054   0.11908   0.00000  Uiso   1.00
O203   O     0.14687   0.60160   0.12227   0.00000  Uiso   1.00
O204   O     0.25000   0.57054   0.21425   0.00000  Uiso   1.00
O205   O     0.25000   0.42946   0.11908   0.00000  Uiso   1.00
O206   O     0.18513   0.50000   0.21427   0.00000  Uiso   1.00
O207   O     0.31487   0.50000   0.11907   0.00000  Uiso   1.00
O208   O     0.31487   0.50000   0.21427   0.00000  Uiso   1.00
O209   O     0.18513   0.50000   0.11907   0.00000  Uiso   1.00
O210   O     0.45874   0.37137   0.13867   0.00000  Uiso   1.00
C211   C     0.75030   0.40658   0.16668   0.00000  Uiso   1.00
C212   C     0.61620   0.49898   0.16567   0.00000  Uiso   1.00
C213   C     0.95287   0.45599   0.16486   0.00000  Uiso   1.00
C214   C     0.54702   0.54348   0.16487   0.00000  Uiso   1.00
C215   C     0.95358   0.54396   0.17313   0.00000  Uiso   1.00
C216   C     0.54633   0.45558   0.17255   0.00000  Uiso   1.00
C217   C     0.97648   0.49987   0.16937   0.00000  Uiso   1.00
C218   C     0.52344   0.49968   0.16931   0.00000  Uiso   1.00
C219   C     0.97710   0.41301   0.16075   0.00000  Uiso   1.00
C220   C     0.52274   0.58649   0.16089   0.00000  Uiso   1.00
C221   C     0.97859   0.58671   0.17748   0.00000  Uiso   1.00
C222   C     0.74998   0.59342   0.16669   0.00000  Uiso   1.00
C223   C     0.52133   0.41286   0.17738   0.00000  Uiso   1.00
C224   C     0.75006   0.35501   0.16673   0.00000  Uiso   1.00
C225   C     0.74998   0.64499   0.16673   0.00000  Uiso   1.00
C226   C     0.95767   0.37523   0.07829   0.00000  Uiso   1.00
C227   C     0.54194   0.62465   0.07891   0.00000  Uiso   1.00
C228   C     0.95916   0.62558   0.25878   0.00000  Uiso   1.00
C229   C     0.54442   0.37533   0.25836   0.00000  Uiso   1.00
C230   C     0.88153   0.58973   0.16866   0.00000  Uiso   1.00
C231   C     0.61555   0.40769   0.16012   0.00000  Uiso   1.00
C232   C     0.88021   0.41073   0.16704   0.00000  Uiso   1.00
C233   C     0.66436   0.49940   0.16644   0.00000  Uiso   1.00
C234   C     0.61967   0.58873   0.16801   0.00000  Uiso   1.00
C235   C     0.83560   0.50030   0.16686   0.00000  Uiso   1.00
C236   C     0.90686   0.54415   0.17106   0.00000  Uiso   1.00
C237   C     0.59285   0.45487   0.16752   0.00000  Uiso   1.00
C238   C     0.90619   0.45616   0.16522   0.00000  Uiso   1.00
C239   C     0.59373   0.54320   0.16520   0.00000  Uiso   1.00
C240   C     0.88376   0.50023   0.16750   0.00000  Uiso   1.00
Cu241  Cu    0.75000   0.50000   0.22303   0.00000  Uiso   1.00
Cu242  Cu    0.75000   0.50000   0.11031   0.00000  Uiso   1.00
H243   H     0.99133   0.38097   0.06053   0.00000  Uiso   1.00
H244   H     0.51240   0.38333   0.27955   0.00000  Uiso   1.00
H245   H     0.56927   0.40345   0.26976   0.00000  Uiso   1.00
H246   H     0.55667   0.34064   0.27566   0.00000  Uiso   1.00
H247   H     0.83824   0.63372   0.20760   0.00000  Uiso   1.00
H248   H     0.50626   0.47840   0.03907   0.00000  Uiso   1.00
H249   H     0.83764   0.36619   0.12628   0.00000  Uiso   1.00
H250   H     0.66107   0.63441   0.12782   0.00000  Uiso   1.00
H251   H     0.93547   0.40472   0.06385   0.00000  Uiso   1.00
H252   H     0.94440   0.34111   0.06022   0.00000  Uiso   1.00
H253   H     0.50820   0.61912   0.06075   0.00000  Uiso   1.00
H254   H     0.56399   0.59515   0.06442   0.00000  Uiso   1.00
H255   H     0.55529   0.65883   0.06135   0.00000  Uiso   1.00
H256   H     0.99245   0.61898   0.27768   0.00000  Uiso   1.00
H257   H     0.93580   0.59696   0.27291   0.00000  Uiso   1.00
H258   H     0.94700   0.66031   0.27594   0.00000  Uiso   1.00
N259   N     0.75000   0.50000   0.02561   0.00000  Uiso   1.00
N260   N     0.75000   0.50000   0.30773   0.00000  Uiso   1.00
O261   O     0.75000   0.42946   0.21425   0.00000  Uiso   1.00
O262   O     0.54105   0.62820   0.13930   0.00000  Uiso   1.00
O263   O     0.96085   0.62877   0.19840   0.00000  Uiso   1.00
O264   O     0.53927   0.37082   0.19835   0.00000  Uiso   1.00
O265   O     0.88572   0.61676   0.12768   0.00000  Uiso   1.00
O266   O     0.85298   0.60140   0.21337   0.00000  Uiso   1.00
O267   O     0.65312   0.40379   0.14226   0.00000  Uiso   1.00
O268   O     0.49603   0.50860   0.01873   0.00000  Uiso   1.00
O269   O     0.88343   0.38401   0.20848   0.00000  Uiso   1.00
O270   O     0.85245   0.39868   0.12110   0.00000  Uiso   1.00
O271   O     0.61671   0.61500   0.20991   0.00000  Uiso   1.00
O272   O     0.75000   0.57054   0.11908   0.00000  Uiso   1.00
O273   O     0.64687   0.60160   0.12227   0.00000  Uiso   1.00
O274   O     0.75000   0.57054   0.21425   0.00000  Uiso   1.00
O275   O     0.75000   0.42946   0.11908   0.00000  Uiso   1.00
O276   O     0.68513   0.50000   0.21427   0.00000  Uiso   1.00
O277   O     0.81487   0.50000   0.11907   0.00000  Uiso   1.00
O278   O     0.81487   0.50000   0.21427   0.00000  Uiso   1.00
O279   O     0.68513   0.50000   0.11907   0.00000  Uiso   1.00
O280   O     0.95874   0.37137   0.13867   0.00000  Uiso   1.00
C281   C     0.25030   0.73991   0.16668   0.00000  Uiso   1.00
C282   C     0.11620   0.83231   0.16567   0.00000  Uiso   1.00
C283   C     0.45287   0.78933   0.16486   0.00000  Uiso   1.00
C284   C     0.04702   0.87681   0.16487   0.00000  Uiso   1.00
C285   C     0.45358   0.87729   0.17313   0.00000  Uiso   1.00
C286   C     0.04633   0.78892   0.17255   0.00000  Uiso   1.00
C287   C     0.47648   0.83321   0.16937   0.00000  Uiso   1.00
C288   C     0.02344   0.83301   0.16931   0.00000  Uiso   1.00
C289   C     0.47710   0.74635   0.16075   0.00000  Uiso   1.00
C290   C     0.02274   0.91982   0.16089   0.00000  Uiso   1.00
C291   C     0.47859   0.92005   0.17748   0.00000  Uiso   1.00
C292   C     0.24998   0.92675   0.16669   0.00000  Uiso   1.00
C293   C     0.02133   0.74620   0.17738   0.00000  Uiso   1.00
C294   C     0.25006   0.68834   0.16673   0.00000  Uiso   1.00
C295   C     0.24998   0.97832   0.16673   0.00000  Uiso   1.00
C296   C     0.45767   0.70857   0.07829   0.00000  Uiso   1.00
C297   C     0.04194   0.95798   0.07891   0.00000  Uiso   1.00
C298   C     0.45916   0.95891   0.25878   0.00000  Uiso   1.00
C299   C     0.04442   0.70866   0.25836   0.00000  Uiso   1.00
C300   C     0.38153   0.92306   0.16866   0.00000  Uiso   1.00
C301   C     0.11555   0.74103   0.16012   0.00000  Uiso   1.00
C302   C     0.38021   0.74407   0.16704   0.00000  Uiso   1.00
C303   C     0.16436   0.83274   0.16644   0.00000  Uiso   1.00
C304   C     0.11967   0.92206   0.16801   0.00000  Uiso   1.00
C305   C     0.33560   0.83364   0.16686   0.00000  Uiso   1.00
C306   C     0.40686   0.87748   0.17106   0.00000  Uiso   1.00
C307   C     0.09285   0.78820   0.16752   0.00000  Uiso   1.00
C308   C     0.40619   0.78950   0.16522   0.00000  Uiso   1.00
C309   C     0.09373   0.87654   0.16520   0.00000  Uiso   1.00
C310   C     0.38376   0.83357   0.16750   0.00000  Uiso   1.00
Cu311  Cu    0.25000   0.83333   0.22303   0.00000  Uiso   1.00
Cu312  Cu    0.25000   0.83333   0.11031   0.00000  Uiso   1.00
H313   H     0.49133   0.71430   0.06053   0.00000  Uiso   1.00
H314   H     0.01240   0.71666   0.27955   0.00000  Uiso   1.00
H315   H     0.06927   0.73678   0.26976   0.00000  Uiso   1.00
H316   H     0.05667   0.67398   0.27566   0.00000  Uiso   1.00
H317   H     0.33824   0.96706   0.20760   0.00000  Uiso   1.00
H318   H     0.00626   0.81173   0.03907   0.00000  Uiso   1.00
H319   H     0.33764   0.69952   0.12628   0.00000  Uiso   1.00
H320   H     0.16107   0.96775   0.12782   0.00000  Uiso   1.00
H321   H     0.43547   0.73805   0.06385   0.00000  Uiso   1.00
H322   H     0.44440   0.67445   0.06022   0.00000  Uiso   1.00
H323   H     0.00820   0.95245   0.06075   0.00000  Uiso   1.00
H324   H     0.06399   0.92849   0.06442   0.00000  Uiso   1.00
H325   H     0.05529   0.99216   0.06135   0.00000  Uiso   1.00
H326   H     0.49245   0.95231   0.27768   0.00000  Uiso   1.00
H327   H     0.43580   0.93029   0.27291   0.00000  Uiso   1.00
H328   H     0.44700   0.99364   0.27594   0.00000  Uiso   1.00
N329   N     0.25000   0.83333   0.02561   0.00000  Uiso   1.00
N330   N     0.25000   0.83333   0.30773   0.00000  Uiso   1.00
O331   O     0.25000   0.76280   0.21425   0.00000  Uiso   1.00
O332   O     0.04105   0.96153   0.13930   0.00000  Uiso   1.00
O333   O     0.46085   0.96211   0.19840   0.00000  Uiso   1.00
O334   O     0.03927   0.70415   0.19835   0.00000  Uiso   1.00
O335   O     0.38572   0.95009   0.12768   0.00000  Uiso   1.00
O336   O     0.35298   0.93473   0.21337   0.00000  Uiso   1.00
O337   O     0.15312   0.73713   0.14226   0.00000  Uiso   1.00
O338   O    -0.00397   0.84193   0.01873   0.00000  Uiso   1.00
O339   O     0.38343   0.71734   0.20848   0.00000  Uiso   1.00
O340   O     0.35245   0.73201   0.12110   0.00000  Uiso   1.00
O341   O     0.11671   0.94833   0.20991   0.00000  Uiso   1.00
O342   O     0.25000   0.90387   0.11908   0.00000  Uiso   1.00
O343   O     0.14687   0.93493   0.12227   0.00000  Uiso   1.00
O344   O     0.25000   0.90387   0.21425   0.00000  Uiso   1.00
O345   O     0.25000   0.76280   0.11908   0.00000  Uiso   1.00
O346   O     0.18513   0.83333   0.21427   0.00000  Uiso   1.00
O347   O     0.31487   0.83333   0.11907   0.00000  Uiso   1.00
O348   O     0.31487   0.83333   0.21427   0.00000  Uiso   1.00
O349   O     0.18513   0.83333   0.11907   0.00000  Uiso   1.00
O350   O     0.45874   0.70470   0.13867   0.00000  Uiso   1.00
C351   C     0.75030   0.73991   0.16668   0.00000  Uiso   1.00
C352   C     0.61620   0.83231   0.16567   0.00000  Uiso   1.00
C353   C     0.95287   0.78933   0.16486   0.00000  Uiso   1.00
C354   C     0.54702   0.87681   0.16487   0.00000  Uiso   1.00
C355   C     0.95358   0.87729   0.17313   0.00000  Uiso   1.00
C356   C     0.54633   0.78892   0.17255   0.00000  Uiso   1.00
C357   C     0.97648   0.83321   0.16937   0.00000  Uiso   1.00
C358   C     0.52344   0.83301   0.16931   0.00000  Uiso   1.00
C359   C     0.97710   0.74635   0.16075   0.00000  Uiso   1.00
C360   C     0.52274   0.91982   0.16089   0.00000  Uiso   1.00
C361   C     0.97859   0.92005   0.17748   0.00000  Uiso   1.00
C362   C     0.74998   0.92675   0.16669   0.00000  Uiso   1.00
C363   C     0.52133   0.74620   0.17738   0.00000  Uiso   1.00
C364   C     0.75006   0.68834   0.16673   0.00000  Uiso   1.00
C365   C     0.74998   0.97832   0.16673   0.00000  Uiso   1.00
C366   C     0.95767   0.70857   0.07829   0.00000  Uiso   1.00
C367   C     0.54194   0.95798   0.07891   0.00000  Uiso   1.00
C368   C     0.95916   0.95891   0.25878   0.00000  Uiso   1.00
C369   C     0.54442   0.70866   0.25836   0.00000  Uiso   1.00
C370   C     0.88153   0.92306   0.16866   0.00000  Uiso   1.00
C371   C     0.61555   0.74103   0.16012   0.00000  Uiso   1.00
C372   C     0.88021   0.74407   0.16704   0.00000  Uiso   1.00
C373   C     0.66436   0.83274   0.16644   0.00000  Uiso   1.00
C374   C     0.61967   0.92206   0.16801   0.00000  Uiso   1.00
C375   C     0.83560   0.83364   0.16686   0.00000  Uiso   1.00
C376   C     0.90686   0.87748   0.17106   0.00000  Uiso   1.00
C377   C     0.59285   0.78820   0.16752   0.00000  Uiso   1.00
C378   C     0.90619   0.78950   0.16522   0.00000  Uiso   1.00
C379   C     0.59373   0.87654   0.16520   0.00000  Uiso   1.00
C380   C     0.88376   0.83357   0.16750   0.00000  Uiso   1.00
Cu381  Cu    0.75000   0.83333   0.22303   0.00000  Uiso   1.00
Cu382  Cu    0.75000   0.83333   0.11031   0.00000  Uiso   1.00
H383   H     0.99133   0.71430   0.06053   0.00000  Uiso   1.00
H384   H     0.51240   0.71666   0.27955   0.00000  Uiso   1.00
H385   H     0.56927   0.73678   0.26976   0.00000  Uiso   1.00
H386   H     0.55667   0.67398   0.27566   0.00000  Uiso   1.00
H387   H     0.83824   0.96706   0.20760   0.00000  Uiso   1.00
H388   H     0.50626   0.81173   0.03907   0.00000  Uiso   1.00
H389   H     0.83764   0.69952   0.12628   0.00000  Uiso   1.00
H390   H     0.66107   0.96775   0.12782   0.00000  Uiso   1.00
H391   H     0.93547   0.73805   0.06385   0.00000  Uiso   1.00
H392   H     0.94440   0.67445   0.06022   0.00000  Uiso   1.00
H393   H     0.50820   0.95245   0.06075   0.00000  Uiso   1.00
H394   H     0.56399   0.92849   0.06442   0.00000  Uiso   1.00
H395   H     0.55529   0.99216   0.06135   0.00000  Uiso   1.00
H396   H     0.99245   0.95231   0.27768   0.00000  Uiso   1.00
H397   H     0.93580   0.93029   0.27291   0.00000  Uiso   1.00
H398   H     0.94700   0.99364   0.27594   0.00000  Uiso   1.00
N399   N     0.75000   0.83333   0.02561   0.00000  Uiso   1.00
N400   N     0.75000   0.83333   0.30773   0.00000  Uiso   1.00
O401   O     0.75000   0.76280   0.21425   0.00000  Uiso   1.00
O402   O     0.54105   0.96153   0.13930   0.00000  Uiso   1.00
O403   O     0.96085   0.96211   0.19840   0.00000  Uiso   1.00
O404   O     0.53927   0.70415   0.19835   0.00000  Uiso   1.00
O405   O     0.88572   0.95009   0.12768   0.00000  Uiso   1.00
O406   O     0.85298   0.93473   0.21337   0.00000  Uiso   1.00
O407   O     0.65312   0.73713   0.14226   0.00000  Uiso   1.00
O408   O     0.49603   0.84193   0.01873   0.00000  Uiso   1.00
O409   O     0.88343   0.71734   0.20848   0.00000  Uiso   1.00
O410   O     0.85245   0.73201   0.12110   0.00000  Uiso   1.00
O411   O     0.61671   0.94833   0.20991   0.00000  Uiso   1.00
O412   O     0.75000   0.90387   0.11908   0.00000  Uiso   1.00
O413   O     0.64687   0.93493   0.12227   0.00000  Uiso   1.00
O414   O     0.75000   0.90387   0.21425   0.00000  Uiso   1.00
O415   O     0.75000   0.76280   0.11908   0.00000  Uiso   1.00
O416   O     0.68513   0.83333   0.21427   0.00000  Uiso   1.00
O417   O     0.81487   0.83333   0.11907   0.00000  Uiso   1.00
O418   O     0.81487   0.83333   0.21427   0.00000  Uiso   1.00
O419   O     0.68513   0.83333   0.11907   0.00000  Uiso   1.00
O420   O     0.95874   0.70470   0.13867   0.00000  Uiso   1.00
C421   C     0.25030   0.07325   0.50002   0.00000  Uiso   1.00
C422   C     0.11620   0.16565   0.49900   0.00000  Uiso   1.00
C423   C     0.45287   0.12266   0.49819   0.00000  Uiso   1.00
C424   C     0.04702   0.21015   0.49821   0.00000  Uiso   1.00
C425   C     0.45358   0.21062   0.50646   0.00000  Uiso   1.00
C426   C     0.04633   0.12225   0.50588   0.00000  Uiso   1.00
C427   C     0.47648   0.16654   0.50271   0.00000  Uiso   1.00
C428   C     0.02344   0.16635   0.50265   0.00000  Uiso   1.00
C429   C     0.47710   0.07968   0.49408   0.00000  Uiso   1.00
C430   C     0.02274   0.25315   0.49422   0.00000  Uiso   1.00
C431   C     0.47859   0.25338   0.51081   0.00000  Uiso   1.00
C432   C     0.24998   0.26008   0.50002   0.00000  Uiso   1.00
C433   C     0.02133   0.07953   0.51072   0.00000  Uiso   1.00
C434   C     0.25006   0.02168   0.50007   0.00000  Uiso   1.00
C435   C     0.24998   0.31165   0.50006   0.00000  Uiso   1.00
C436   C     0.45767   0.04190   0.41163   0.00000  Uiso   1.00
C437   C     0.04194   0.29131   0.41225   0.00000  Uiso   1.00
C438   C     0.45916   0.29224   0.59211   0.00000  Uiso   1.00
C439   C     0.04442   0.04200   0.59169   0.00000  Uiso   1.00
C440   C     0.38153   0.25640   0.50200   0.00000  Uiso   1.00
C441   C     0.11555   0.07436   0.49346   0.00000  Uiso   1.00
C442   C     0.38021   0.07740   0.50037   0.00000  Uiso   1.00
C443   C     0.16436   0.16607   0.49978   0.00000  Uiso   1.00
C444   C     0.11967   0.25540   0.50135   0.00000  Uiso   1.00
C445   C     0.33560   0.16697   0.50019   0.00000  Uiso   1.00
C446   C     0.40686   0.21082   0.50440   0.00000  Uiso   1.00
C447   C     0.09285   0.12153   0.50086   0.00000  Uiso   1.00
C448   C     0.40619   0.12283   0.49856   0.00000  Uiso   1.00
C449   C     0.09373   0.20987   0.49854   0.00000  Uiso   1.00
C450   C     0.38376   0.16690   0.50083   0.00000  Uiso   1.00
Cu451  Cu    0.25000   0.16667   0.55636   0.00000  Uiso   1.00
Cu452  Cu    0.25000   0.16667   0.44364   0.00000  Uiso   1.00
H453   H     0.49133   0.04764   0.39386   0.00000  Uiso   1.00
H454   H     0.01240   0.04999   0.61288   0.00000  Uiso   1.00
H455   H     0.06927   0.07012   0.60310   0.00000  Uiso   1.00
H456   H     0.05667   0.00731   0.60899   0.00000  Uiso   1.00
H457   H     0.33824   0.30039   0.54093   0.00000  Uiso   1.00
H458   H     0.00626   0.14507   0.37241   0.00000  Uiso   1.00
H459   H     0.33764   0.03286   0.45961   0.00000  Uiso   1.00
H460   H     0.16107   0.30108   0.46115   0.00000  Uiso   1.00
H461   H     0.43547   0.07138   0.39719   0.00000  Uiso   1.00
H462   H     0.44440   0.00778   0.39355   0.00000  Uiso   1.00
H463   H     0.00820   0.28579   0.39408   0.00000  Uiso   1.00
H464   H     0.06399   0.26182   0.39776   0.00000  Uiso   1.00
H465   H     0.05529   0.32550   0.39468   0.00000  Uiso   1.00
H466   H     0.49245   0.28564   0.61101   0.00000  Uiso   1.00
H467   H     0.43580   0.26363   0.60624   0.00000  Uiso   1.00
H468   H     0.44700   0.32698   0.60927   0.00000  Uiso   1.00
N469   N     0.25000   0.16667   0.35894   0.00000  Uiso   1.00
N470   N     0.25000   0.16667   0.64106   0.00000  Uiso   1.00
O471   O     0.25000   0.09613   0.54759   0.00000  Uiso   1.00
O472   O     0.04105   0.29486   0.47263   0.00000  Uiso   1.00
O473   O     0.46085   0.29544   0.53174   0.00000  Uiso   1.00
O474   O     0.03927   0.03749   0.53169   0.00000  Uiso   1.00
O475   O     0.38572   0.28342   0.46101   0.00000  Uiso   1.00
O476   O     0.35298   0.26807   0.54670   0.00000  Uiso   1.00
O477   O     0.15312   0.07046   0.47559   0.00000  Uiso   1.00
O478   O    -0.00397   0.17526   0.35206   0.00000  Uiso   1.00
O479   O     0.38343   0.05067   0.54181   0.00000  Uiso   1.00
O480   O     0.35245   0.06534   0.45443   0.00000  Uiso   1.00
O481   O     0.11671   0.28166   0.54325   0.00000  Uiso   1.00
O482   O     0.25000   0.23720   0.45241   0.00000  Uiso   1.00
O483   O     0.14687   0.26827   0.45560   0.00000  Uiso   1.00
O484   O     0.25000   0.23720   0.54759   0.00000  Uiso   1.00
O485   O     0.25000   0.09613   0.45241   0.00000  Uiso   1.00
O486   O     0.18513   0.16667   0.54760   0.00000  Uiso   1.00
O487   O     0.31487   0.16667   0.45240   0.00000  Uiso   1.00
O488   O     0.31487   0.16667   0.54760   0.00000  Uiso   1.00
O489   O     0.18513   0.16667   0.45240   0.00000  Uiso   1.00
O490   O     0.45874   0.03804   0.47200   0.00000  Uiso   1.00
C491   C     0.75030   0.07325   0.50002   0.00000  Uiso   1.00
C492   C     0.61620   0.16565   0.49900   0.00000  Uiso   1.00
C493   C     0.95287   0.12266   0.49819   0.00000  Uiso   1.00
C494   C     0.54702   0.21015   0.49821   0.00000  Uiso   1.00
C495   C     0.95358   0.21062   0.50646   0.00000  Uiso   1.00
C496   C     0.54633   0.12225   0.50588   0.00000  Uiso   1.00
C497   C     0.97648   0.16654   0.50271   0.00000  Uiso   1.00
C498   C     0.52344   0.16635   0.50265   0.00000  Uiso   1.00
C499   C     0.97710   0.07968   0.49408   0.00000  Uiso   1.00
C500   C     0.52274   0.25315   0.49422   0.00000  Uiso   1.00
C501   C     0.97859   0.25338   0.51081   0.00000  Uiso   1.00
C502   C     0.74998   0.26008   0.50002   0.00000  Uiso   1.00
C503   C     0.52133   0.07953   0.51072   0.00000  Uiso   1.00
C504   C     0.75006   0.02168   0.50007   0.00000  Uiso   1.00
C505   C     0.74998   0.31165   0.50006   0.00000  Uiso   1.00
C506   C     0.95767   0.04190   0.41163   0.00000  Uiso   1.00
C507   C     0.54194   0.29131   0.41225   0.00000  Uiso   1.00
C508   C     0.95916   0.29224   0.59211   0.00000  Uiso   1.00
C509   C     0.54442   0.04200   0.59169   0.00000  Uiso   1.00
C510   C     0.88153   0.25640   0.50200   0.00000  Uiso   1.00
C511   C     0.61555   0.07436   0.49346   0.00000  Uiso   1.00
C512   C     0.88021   0.07740   0.50037   0.00000  Uiso   1.00
C513   C     0.66436   0.16607   0.49978   0.00000  Uiso   1.00
C514   C     0.61967   0.25540   0.50135   0.00000  Uiso   1.00
C515   C     0.83560   0.16697   0.50019   0.00000  Uiso   1.00
C516   C     0.90686   0.21082   0.50440   0.00000  Uiso   1.00
C517   C     0.59285   0.12153   0.50086   0.00000  Uiso   1.00
C518   C     0.90619   0.12283   0.49856   0.00000  Uiso   1.00
C519   C     0.59373   0.20987   0.49854   0.00000  Uiso   1.00
C520   C     0.88376   0.16690   0.50083   0.00000  Uiso   1.00
Cu521  Cu    0.75000   0.16667   0.55636   0.00000  Uiso   1.00
Cu522  Cu    0.75000   0.16667   0.44364   0.00000  Uiso   1.00
H523   H     0.99133   0.04764   0.39386   0.00000  Uiso   1.00
H524   H     0.51240   0.04999   0.61288   0.00000  Uiso   1.00
H525   H     0.56927   0.07012   0.60310   0.00000  Uiso   1.00
H526   H     0.55667   0.00731   0.60899   0.00000  Uiso   1.00
H527   H     0.83824   0.30039   0.54093   0.00000  Uiso   1.00
H528   H     0.50626   0.14507   0.37241   0.00000  Uiso   1.00
H529   H     0.83764   0.03286   0.45961   0.00000  Uiso   1.00
H530   H     0.66107   0.30108   0.46115   0.00000  Uiso   1.00
H531   H     0.93547   0.07138   0.39719   0.00000  Uiso   1.00
H532   H     0.94440   0.00778   0.39355   0.00000  Uiso   1.00
H533   H     0.50820   0.28579   0.39408   0.00000  Uiso   1.00
H534   H     0.56399   0.26182   0.39776   0.00000  Uiso   1.00
H535   H     0.55529   0.32550   0.39468   0.00000  Uiso   1.00
H536   H     0.99245   0.28564   0.61101   0.00000  Uiso   1.00
H537   H     0.93580   0.26363   0.60624   0.00000  Uiso   1.00
H538   H     0.94700   0.32698   0.60927   0.00000  Uiso   1.00
N539   N     0.75000   0.16667   0.35894   0.00000  Uiso   1.00
N540   N     0.75000   0.16667   0.64106   0.00000  Uiso   1.00
O541   O     0.75000   0.09613   0.54759   0.00000  Uiso   1.00
O542   O     0.54105   0.29486   0.47263   0.00000  Uiso   1.00
O543   O     0.96085   0.29544   0.53174   0.00000  Uiso   1.00
O544   O     0.53927   0.03749   0.53169   0.00000  Uiso   1.00
O545   O     0.88572   0.28342   0.46101   0.00000  Uiso   1.00
O546   O     0.85298   0.26807   0.54670   0.00000  Uiso   1.00
O547   O     0.65312   0.07046   0.47559   0.00000  Uiso   1.00
O548   O     0.49603   0.17526   0.35206   0.00000  Uiso   1.00
O549   O     0.88343   0.05067   0.54181   0.00000  Uiso   1.00
O550   O     0.85245   0.06534   0.45443   0.00000  Uiso   1.00
O551   O     0.61671   0.28166   0.54325   0.00000  Uiso   1.00
O552   O     0.75000   0.23720   0.45241   0.00000  Uiso   1.00
O553   O     0.64687   0.26827   0.45560   0.00000  Uiso   1.00
O554   O     0.75000   0.23720   0.54759   0.00000  Uiso   1.00
O555   O     0.75000   0.09613   0.45241   0.00000  Uiso   1.00
O556   O     0.68513   0.16667   0.54760   0.00000  Uiso   1.00
O557   O     0.81487   0.16667   0.45240   0.00000  Uiso   1.00
O558   O     0.81487   0.16667   0.54760   0.00000  Uiso   1.00
O559   O     0.68513   0.16667   0.45240   0.00000  Uiso   1.00
O560   O     0.95874   0.03804   0.47200   0.00000  Uiso   1.00
C561   C     0.25030   0.40658   0.50002   0.00000  Uiso   1.00
C562   C     0.11620   0.49898   0.49900   0.00000  Uiso   1.00
C563   C     0.45287   0.45599   0.49819   0.00000  Uiso   1.00
C564   C     0.04702   0.54348   0.49821   0.00000  Uiso   1.00
C565   C     0.45358   0.54396   0.50646   0.00000  Uiso   1.00
C566   C     0.04633   0.45558   0.50588   0.00000  Uiso   1.00
C567   C     0.47648   0.49987   0.50271   0.00000  Uiso   1.00
C568   C     0.02344   0.49968   0.50265   0.00000  Uiso   1.00
C569   C     0.47710   0.41301   0.49408   0.00000  Uiso   1.00
C570   C     0.02274   0.58649   0.49422   0.00000  Uiso   1.00
C571   C     0.47859   0.58671   0.51081   0.00000  Uiso   1.00
C572   C     0.24998   0.59342   0.50002   0.00000  Uiso   1.00
C573   C     0.02133   0.41286   0.51072   0.00000  Uiso   1.00
C574   C     0.25006   0.35501   0.50007   0.00000  Uiso   1.00
C575   C     0.24998   0.64499   0.50006   0.00000  Uiso   1.00
C576   C     0.45767   0.37523   0.41163   0.00000  Uiso   1.00
C577   C     0.04194   0.62465   0.41225   0.00000  Uiso   1.00
C578   C     0.45916   0.62558   0.59211   0.00000  Uiso   1.00
C579   C     0.04442   0.37533   0.59169   0.00000  Uiso   1.00
C580   C     0.38153   0.58973   0.50200   0.00000  Uiso   1.00
C581   C     0.11555   0.40769   0.49346   0.00000  Uiso   1.00
C582   C     0.38021   0.41073   0.50037   0.00000  Uiso   1.00
C583   C     0.16436   0.49940   0.49978   0.00000  Uiso   1.00
C584   C     0.11967   0.58873   0.50135   0.00000  Uiso   1.00
C585   C     0.33560   0.50030   0.50019   0.00000  Uiso   1.00
C586   C     0.40686   0.54415   0.50440   0.00000  Uiso   1.00
C587   C     0.09285   0.45487   0.50086   0.00000  Uiso   1.00
C588   C     0.40619   0.45616   0.49856   0.00000  Uiso   1.00
C589   C     0.09373   0.54320   0.49854   0.00000  Uiso   1.00
C590   C     0.38376   0.50023   0.50083   0.00000  Uiso   1.00
Cu591  Cu    0.25000   0.50000   0.55636   0.00000  Uiso   1.00
Cu592  Cu    0.25000   0.50000   0.44364   0.00000  Uiso   1.00
H593   H     0.49133   0.38097   0.39386   0.00000  Uiso   1.00
H594   H     0.01240   0.38333   0.61288   0.00000  Uiso   1.00
H595   H     0.06927   0.40345   0.60310   0.00000  Uiso   1.00
H596   H     0.05667   0.34064   0.60899   0.00000  Uiso   1.00
H597   H     0.33824   0.63372   0.54093   0.00000  Uiso   1.00
H598   H     0.00626   0.47840   0.37241   0.00000  Uiso   1.00
H599   H     0.33764   0.36619   0.45961   0.00000  Uiso   1.00
H600   H     0.16107   0.63441   0.46115   0.00000  Uiso   1.00
H601   H     0.43547   0.40472   0.39719   0.00000  Uiso   1.00
H602   H     0.44440   0.34111   0.39355   0.00000  Uiso   1.00
H603   H     0.00820   0.61912   0.39408   0.00000  Uiso   1.00
H604   H     0.06399   0.59515   0.39776   0.00000  Uiso   1.00
H605   H     0.05529   0.65883   0.39468   0.00000  Uiso   1.00
H606   H     0.49245   0.61898   0.61101   0.00000  Uiso   1.00
H607   H     0.43580   0.59696   0.60624   0.00000  Uiso   1.00
H608   H     0.44700   0.66031   0.60927   0.00000  Uiso   1.00
N609   N     0.25000   0.50000   0.35894   0.00000  Uiso   1.00
N610   N     0.25000   0.50000   0.64106   0.00000  Uiso   1.00
O611   O     0.25000   0.42946   0.54759   0.00000  Uiso   1.00
O612   O     0.04105   0.62820   0.47263   0.00000  Uiso   1.00
O613   O     0.46085   0.62877   0.53174   0.00000  Uiso   1.00
O614   O     0.03927   0.37082   0.53169   0.00000  Uiso   1.00
O615   O     0.38572   0.61676   0.46101   0.00000  Uiso   1.00
O616   O     0.35298   0.60140   0.54670   0.00000  Uiso   1.00
O617   O     0.15312   0.40379   0.47559   0.00000  Uiso   1.00
O618   O    -0.00397   0.50860   0.35206   0.00000  Uiso   1.00
O619   O     0.38343   0.38401   0.54181   0.00000  Uiso   1.00
O620   O     0.35245   0.39868   0.45443   0.00000  Uiso   1.00
O621   O     0.11671   0.61500   0.54325   0.00000  Uiso   1.00
O622   O     0.25000   0.57054   0.45241   0.00000  Uiso   1.00
O623   O     0.14687   0.60160   0.45560   0.00000  Uiso   1.00
O624   O     0.25000   0.57054   0.54759   0.00000  Uiso   1.00
O625   O     0.25000   0.42946   0.45241   0.00000  Uiso   1.00
O626   O     0.18513   0.50000   0.54760   0.00000  Uiso   1.00
O627   O     0.31487   0.50000   0.45240   0.00000  Uiso   1.00
O628   O     0.31487   0.50000   0.54760   0.00000  Uiso   1.00
O629   O     0.18513   0.50000   0.45240   0.00000  Uiso   1.00
O630   O     0.45874   0.37137   0.47200   0.00000  Uiso   1.00
C631   C     0.75030   0.40658   0.50002   0.00000  Uiso   1.00
C632   C     0.61620   0.49898   0.49900   0.00000  Uiso   1.00
C633   C     0.95287   0.45599   0.49819   0.00000  Uiso   1.00
C634   C     0.54702   0.54348   0.49821   0.00000  Uiso   1.00
C635   C     0.95358   0.54396   0.50646   0.00000  Uiso   1.00
C636   C     0.54633   0.45558   0.50588   0.00000  Uiso   1.00
C637   C     0.97648   0.49987   0.50271   0.00000  Uiso   1.00
C638   C     0.52344   0.49968   0.50265   0.00000  Uiso   1.00
C639   C     0.97710   0.41301   0.49408   0.00000  Uiso   1.00
C640   C     0.52274   0.58649   0.49422   0.00000  Uiso   1.00
C641   C     0.97859   0.58671   0.51081   0.00000  Uiso   1.00
C642   C     0.74998   0.59342   0.50002   0.00000  Uiso   1.00
C643   C     0.52133   0.41286   0.51072   0.00000  Uiso   1.00
C644   C     0.75006   0.35501   0.50007   0.00000  Uiso   1.00
C645   C     0.74998   0.64499   0.50006   0.00000  Uiso   1.00
C646   C     0.95767   0.37523   0.41163   0.00000  Uiso   1.00
C647   C     0.54194   0.62465   0.41225   0.00000  Uiso   1.00
C648   C     0.95916   0.62558   0.59211   0.00000  Uiso   1.00
C649   C     0.54442   0.37533   0.59169   0.00000  Uiso   1.00
C650   C     0.88153   0.58973   0.50200   0.00000  Uiso   1.00
C651   C     0.61555   0.40769   0.49346   0.00000  Uiso   1.00
C652   C     0.88021   0.41073   0.50037   0.00000  Uiso   1.00
C653   C     0.66436   0.49940   0.49978   0.00000  Uiso   1.00
C654   C     0.61967   0.58873   0.50135   0.00000  Uiso   1.00
C655   C     0.83560   0.50030   0.50019   0.00000  Uiso   1.00
C656   C     0.90686   0.54415   0.50440   0.00000  Uiso   1.00
C657   C     0.59285   0.45487   0.50086   0.00000  Uiso   1.00
C658   C     0.90619   0.45616   0.49856   0.00000  Uiso   1.00
C659   C     0.59373   0.54320   0.49854   0.00000  Uiso   1.00
C660   C     0.88376   0.50023   0.50083   0.00000  Uiso   1.00
Cu661  Cu    0.75000   0.50000   0.55636   0.00000  Uiso   1.00
Cu662  Cu    0.75000   0.50000   0.44364   0.00000  Uiso   1.00
H663   H     0.99133   0.38097   0.39386   0.00000  Uiso   1.00
H664   H     0.51240   0.38333   0.61288   0.00000  Uiso   1.00
H665   H     0.56927   0.40345   0.60310   0.00000  Uiso   1.00
H666   H     0.55667   0.34064   0.60899   0.00000  Uiso   1.00
H667   H     0.83824   0.63372   0.54093   0.00000  Uiso   1.00
H668   H     0.50626   0.47840   0.37241   0.00000  Uiso   1.00
H669   H     0.83764   0.36619   0.45961   0.00000  Uiso   1.00
H670   H     0.66107   0.63441   0.46115   0.00000  Uiso   1.00
H671   H     0.93547   0.40472   0.39719   0.00000  Uiso   1.00
H672   H     0.94440   0.34111   0.39355   0.00000  Uiso   1.00
H673   H     0.50820   0.61912   0.39408   0.00000  Uiso   1.00
H674   H     0.56399   0.59515   0.39776   0.00000  Uiso   1.00
H675   H     0.55529   0.65883   0.39468   0.00000  Uiso   1.00
H676   H     0.99245   0.61898   0.61101   0.00000  Uiso   1.00
H677   H     0.93580   0.59696   0.60624   0.00000  Uiso   1.00
H678   H     0.94700   0.66031   0.60927   0.00000  Uiso   1.00
N679   N     0.75000   0.50000   0.35894   0.00000  Uiso   1.00
N680   N     0.75000   0.50000   0.64106   0.00000  Uiso   1.00
O681   O     0.75000   0.42946   0.54759   0.00000  Uiso   1.00
O682   O     0.54105   0.62820   0.47263   0.00000  Uiso   1.00
O683   O     0.96085   0.62877   0.53174   0.00000  Uiso   1.00
O684   O     0.53927   0.37082   0.53169   0.00000  Uiso   1.00
O685   O     0.88572   0.61676   0.46101   0.00000  Uiso   1.00
O686   O     0.85298   0.60140   0.54670   0.00000  Uiso   1.00
O687   O     0.65312   0.40379   0.47559   0.00000  Uiso   1.00
O688   O     0.49603   0.50860   0.35206   0.00000  Uiso   1.00
O689   O     0.88343   0.38401   0.54181   0.00000  Uiso   1.00
O690   O     0.85245   0.39868   0.45443   0.00000  Uiso   1.00
O691   O     0.61671   0.61500   0.54325   0.00000  Uiso   1.00
O692   O     0.75000   0.57054   0.45241   0.00000  Uiso   1.00
O693   O     0.64687   0.60160   0.45560   0.00000  Uiso   1.00
O694   O     0.75000   0.57054   0.54759   0.00000  Uiso   1.00
O695   O     0.75000   0.42946   0.45241   0.00000  Uiso   1.00
O696   O     0.68513   0.50000   0.54760   0.00000  Uiso   1.00
O697   O     0.81487   0.50000   0.45240   0.00000  Uiso   1.00
O698   O     0.81487   0.50000   0.54760   0.00000  Uiso   1.00
O699   O     0.68513   0.50000   0.45240   0.00000  Uiso   1.00
O700   O     0.95874   0.37137   0.47200   0.00000  Uiso   1.00
C701   C     0.25030   0.73991   0.50002   0.00000  Uiso   1.00
C702   C     0.11620   0.83231   0.49900   0.00000  Uiso   1.00
C703   C     0.45287   0.78933   0.49819   0.00000  Uiso   1.00
C704   C     0.04702   0.87681   0.49821   0.00000  Uiso   1.00
C705   C     0.45358   0.87729   0.50646   0.00000  Uiso   1.00
C706   C     0.04633   0.78892   0.50588   0.00000  Uiso   1.00
C707   C     0.47648   0.83321   0.50271   0.00000  Uiso   1.00
C708   C     0.02344   0.83301   0.50265   0.00000  Uiso   1.00
C709   C     0.47710   0.74635   0.49408   0.00000  Uiso   1.00
C710   C     0.02274   0.91982   0.49422   0.00000  Uiso   1.00
C711   C     0.47859   0.92005   0.51081   0.00000  Uiso   1.00
C712   C     0.24998   0.92675   0.50002   0.00000  Uiso   1.00
C713   C     0.02133   0.74620   0.51072   0.00000  Uiso   1.00
C714   C     0.25006   0.68834   0.50007   0.00000  Uiso   1.00
C715   C     0.24998   0.97832   0.50006   0.00000  Uiso   1.00
C716   C     0.45767   0.70857   0.41163   0.00000  Uiso   1.00
C717   C     0.04194   0.95798   0.41225   0.00000  Uiso   1.00
C718   C     0.45916   0.95891   0.59211   0.00000  Uiso   1.00
C719   C     0.04442   0.70866   0.59169   0.00000  Uiso   1.00
C720   C     0.38153   0.92306   0.50200   0.00000  Uiso   1.00
C721   C     0.11555   0.74103   0.49346   0.00000  Uiso   1.00
C722   C     0.38021   0.74407   0.50037   0.00000  Uiso   1.00
C723   C     0.16436   0.83274   0.49978   0.00000  Uiso   1.00
C724   C     0.11967   0.92206   0.50135   0.00000  Uiso   1.00
C725   C     0.33560   0.83364   0.50019   0.00000  Uiso   1.00
C726   C     0.40686   0.87748   0.50440   0.00000  Uiso   1.00
C727   C     0.09285   0.78820   0.50086   0.00000  Uiso   1.00
C728   C     0.40619   0.78950   0.49856   0.00000  Uiso   1.00
C729   C     0.09373   0.87654   0.49854   0.00000  Uiso   1.00
C730   C     0.38376   0.83357   0.50083   0.00000  Uiso   1.00
Cu731  Cu    0.25000   0.83333   0.55636   0.00000  Uiso   1.00
Cu732  Cu    0.25000   0.83333   0.44364   0.00000  Uiso   1.00
H733   H     0.49133   0.71430   0.39386   0.00000  Uiso   1.00
H734   H     0.01240   0.71666   0.61288   0.00000  Uiso   1.00
H735   H     0.06927   0.73678   0.60310   0.00000  Uiso   1.00
H736   H     0.05667   0.67398   0.60899   0.00000  Uiso   1.00
H737   H     0.33824   0.96706   0.54093   0.00000  Uiso   1.00
H738   H     0.00626   0.81173   0.37241   0.00000  Uiso   1.00
H739   H     0.33764   0.69952   0.45961   0.00000  Uiso   1.00
H740   H     0.16107   0.96775   0.46115   0.00000  Uiso   1.00
H741   H     0.43547   0.73805   0.39719   0.00000  Uiso   1.00
H742   H     0.44440   0.67445   0.39355   0.00000  Uiso   1.00
H743   H     0.00820   0.95245   0.39408   0.00000  Uiso   1.00
H744   H     0.06399   0.92849   0.39776   0.00000  Uiso   1.00
H745   H     0.05529   0.99216   0.39468   0.00000  Uiso   1.00
H746   H     0.49245   0.95231   0.61101   0.00000  Uiso   1.00
H747   H     0.43580   0.93029   0.60624   0.00000  Uiso   1.00
H748   H     0.44700   0.99364   0.60927   0.00000  Uiso   1.00
N749   N     0.25000   0.83333   0.35894   0.00000  Uiso   1.00
N750   N     0.25000   0.83333   0.64106   0.00000  Uiso   1.00
O751   O     0.25000   0.76280   0.54759   0.00000  Uiso   1.00
O752   O     0.04105   0.96153   0.47263   0.00000  Uiso   1.00
O753   O     0.46085   0.96211   0.53174   0.00000  Uiso   1.00
O754   O     0.03927   0.70415   0.53169   0.00000  Uiso   1.00
O755   O     0.38572   0.95009   0.46101   0.00000  Uiso   1.00
O756   O     0.35298   0.93473   0.54670   0.00000  Uiso   1.00
O757   O     0.15312   0.73713   0.47559   0.00000  Uiso   1.00
O758   O    -0.00397   0.84193   0.35206   0.00000  Uiso   1.00
O759   O     0.38343   0.71734   0.54181   0.00000  Uiso   1.00
O760   O     0.35245   0.73201   0.45443   0.00000  Uiso   1.00
O761   O     0.11671   0.94833   0.54325   0.00000  Uiso   1.00
O762   O     0.25000   0.90387   0.45241   0.00000  Uiso   1.00
O763   O     0.14687   0.93493   0.45560   0.00000  Uiso   1.00
O764   O     0.25000   0.90387   0.54759   0.00000  Uiso   1.00
O765   O     0.25000   0.76280   0.45241   0.00000  Uiso   1.00
O766   O     0.18513   0.83333   0.54760   0.00000  Uiso   1.00
O767   O     0.31487   0.83333   0.45240   0.00000  Uiso   1.00
O768   O     0.31487   0.83333   0.54760   0.00000  Uiso   1.00
O769   O     0.18513   0.83333   0.45240   0.00000  Uiso   1.00
O770   O     0.45874   0.70470   0.47200   0.00000  Uiso   1.00
C771   C     0.75030   0.73991   0.50002   0.00000  Uiso   1.00
C772   C     0.61620   0.83231   0.49900   0.00000  Uiso   1.00
C773   C     0.95287   0.78933   0.49819   0.00000  Uiso   1.00
C774   C     0.54702   0.87681   0.49821   0.00000  Uiso   1.00
C775   C     0.95358   0.87729   0.50646   0.00000  Uiso   1.00
C776   C     0.54633   0.78892   0.50588   0.00000  Uiso   1.00
C777   C     0.97648   0.83321   0.50271   0.00000  Uiso   1.00
C778   C     0.52344   0.83301   0.50265   0.00000  Uiso   1.00
C779   C     0.97710   0.74635   0.49408   0.00000  Uiso   1.00
C780   C     0.52274   0.91982   0.49422   0.00000  Uiso   1.00
C781   C     0.97859   0.92005   0.51081   0.00000  Uiso   1.00
C782   C     0.74998   0.92675   0.50002   0.00000  Uiso   1.00
C783   C     0.52133   0.74620   0.51072   0.00000  Uiso   1.00
C784   C     0.75006   0.68834   0.50007   0.00000  Uiso   1.00
C785   C     0.74998   0.97832   0.50006   0.00000  Uiso   1.00
C786   C     0.95767   0.70857   0.41163   0.00000  Uiso   1.00
C787   C     0.54194   0.95798   0.41225   0.00000  Uiso   1.00
C788   C     0.95916   0.95891   0.59211   0.00000  Uiso   1.00
C789   C     0.54442   0.70866   0.59169   0.00000  Uiso   1.00
C790   C     0.88153   0.92306   0.50200   0.00000  Uiso   1.00
C791   C     0.61555   0.74103   0.49346   0.00000  Uiso   1.00
C792   C     0.88021   0.74407   0.50037   0.00000  Uiso   1.00
C793   C     0.66436   0.83274   0.49978   0.00000  Uiso   1.00
C794   C     0.61967   0.92206   0.50135   0.00000  Uiso   1.00
C795   C     0.83560   0.83364   0.50019   0.00000  Uiso   1.00
C796   C     0.90686   0.87748   0.50440   0.00000  Uiso   1.00
C797   C     0.59285   0.78820   0.50086   0.00000  Uiso   1.00
C798   C     0.90619   0.78950   0.49856   0.00000  Uiso   1.00
C799   C     0.59373   0.87654   0.49854   0.00000  Uiso   1.00
C800   C     0.88376   0.83357   0.50083   0.00000  Uiso   1.00
Cu801  Cu    0.75000   0.83333   0.55636   0.00000  Uiso   1.00
Cu802  Cu    0.75000   0.83333   0.44364   0.00000  Uiso   1.00
H803   H     0.99133   0.71430   0.39386   0.00000  Uiso   1.00
H804   H     0.51240   0.71666   0.61288   0.00000  Uiso   1.00
H805   H     0.56927   0.73678   0.60310   0.00000  Uiso   1.00
H806   H     0.55667   0.67398   0.60899   0.00000  Uiso   1.00
H807   H     0.83824   0.96706   0.54093   0.00000  Uiso   1.00
H808   H     0.50626   0.81173   0.37241   0.00000  Uiso   1.00
H809   H     0.83764   0.69952   0.45961   0.00000  Uiso   1.00
H810   H     0.66107   0.96775   0.46115   0.00000  Uiso   1.00
H811   H     0.93547   0.73805   0.39719   0.00000  Uiso   1.00
H812   H     0.94440   0.67445   0.39355   0.00000  Uiso   1.00
H813   H     0.50820   0.95245   0.39408   0.00000  Uiso   1.00
H814   H     0.56399   0.92849   0.39776   0.00000  Uiso   1.00
H815   H     0.55529   0.99216   0.39468   0.00000  Uiso   1.00
H816   H     0.99245   0.95231   0.61101   0.00000  Uiso   1.00
H817   H     0.93580   0.93029   0.60624   0.00000  Uiso   1.00
H818   H     0.94700   0.99364   0.60927   0.00000  Uiso   1.00
N819   N     0.75000   0.83333   0.35894   0.00000  Uiso   1.00
N820   N     0.75000   0.83333   0.64106   0.00000  Uiso   1.00
O821   O     0.75000   0.76280   0.54759   0.00000  Uiso   1.00
O822   O     0.54105   0.96153   0.47263   0.00000  Uiso   1.00
O823   O     0.96085   0.96211   0.53174   0.00000  Uiso   1.00
O824   O     0.53927   0.70415   0.53169   0.00000  Uiso   1.00
O825   O     0.88572   0.95009   0.46101   0.00000  Uiso   1.00
O826   O     0.85298   0.93473   0.54670   0.00000  Uiso   1.00
O827   O     0.65312   0.73713   0.47559   0.00000  Uiso   1.00
O828   O     0.49603   0.84193   0.35206   0.00000  Uiso   1.00
O829   O     0.88343   0.71734   0.54181   0.00000  Uiso   1.00
O830   O     0.85245   0.73201   0.45443   0.00000  Uiso   1.00
O831   O     0.61671   0.94833   0.54325   0.00000  Uiso   1.00
O832   O     0.75000   0.90387   0.45241   0.00000  Uiso   1.00
O833   O     0.64687   0.93493   0.45560   0.00000  Uiso   1.00
O834   O     0.75000   0.90387   0.54759   0.00000  Uiso   1.00
O835   O     0.75000   0.76280   0.45241   0.00000  Uiso   1.00
O836   O     0.68513   0.83333   0.54760   0.00000  Uiso   1.00
O837   O     0.81487   0.83333   0.45240   0.00000  Uiso   1.00
O838   O     0.81487   0.83333   0.54760   0.00000  Uiso   1.00
O839   O     0.68513   0.83333   0.45240   0.00000  Uiso   1.00
O840   O     0.95874   0.70470   0.47200   0.00000  Uiso   1.00
C841   C     0.25030   0.07325   0.83335   0.00000  Uiso   1.00
C842   C     0.11620   0.16565   0.83234   0.00000  Uiso   1.00
C843   C     0.45287   0.12266   0.83153   0.00000  Uiso   1.00
C844   C     0.04702   0.21015   0.83154   0.00000  Uiso   1.00
C845   C     0.45358   0.21062   0.83980   0.00000  Uiso   1.00
C846   C     0.04633   0.12225   0.83921   0.00000  Uiso   1.00
C847   C     0.47648   0.16654   0.83604   0.00000  Uiso   1.00
C848   C     0.02344   0.16635   0.83598   0.00000  Uiso   1.00
C849   C     0.47710   0.07968   0.82741   0.00000  Uiso   1.00
C850   C     0.02274   0.25315   0.82755   0.00000  Uiso   1.00
C851   C     0.47859   0.25338   0.84415   0.00000  Uiso   1.00
C852   C     0.24998   0.26008   0.83335   0.00000  Uiso   1.00
C853   C     0.02133   0.07953   0.84405   0.00000  Uiso   1.00
C854   C     0.25006   0.02168   0.83340   0.00000  Uiso   1.00
C855   C     0.24998   0.31165   0.83339   0.00000  Uiso   1.00
C856   C     0.45767   0.04190   0.74496   0.00000  Uiso   1.00
C857   C     0.04194   0.29131   0.74558   0.00000  Uiso   1.00
C858   C     0.45916   0.29224   0.92544   0.00000  Uiso   1.00
C859   C     0.04442   0.04200   0.92502   0.00000  Uiso   1.00
C860   C     0.38153   0.25640   0.83533   0.00000  Uiso   1.00
C861   C     0.11555   0.07436   0.82679   0.00000  Uiso   1.00
C862   C     0.38021   0.07740   0.83370   0.00000  Uiso   1.00
C863   C     0.16436   0.16607   0.83311   0.00000  Uiso   1.00
C864   C     0.11967   0.25540   0.83468   0.00000  Uiso   1.00
C865   C     0.33560   0.16697   0.83353   0.00000  Uiso   1.00
C866   C     0.40686   0.21082   0.83773   0.00000  Uiso   1.00
C867   C     0.09285   0.12153   0.83419   0.00000  Uiso   1.00
C868   C     0.40619   0.12283   0.83189   0.00000  Uiso   1.00
C869   C     0.09373   0.20987   0.83187   0.00000  Uiso   1.00
C870   C     0.38376   0.16690   0.83416   0.00000  Uiso   1.00
Cu871  Cu    0.25000   0.16667   0.88969   0.00000  Uiso   1.00
Cu872  Cu    0.25000   0.16667   0.77697   0.00000  Uiso   1.00
H873   H     0.49133   0.04764   0.72720   0.00000  Uiso   1.00
H874   H     0.01240   0.04999   0.94621   0.00000  Uiso   1.00
H875   H     0.06927   0.07012   0.93643   0.00000  Uiso   1.00
H876   H     0.05667   0.00731   0.94232   0.00000  Uiso   1.00
H877   H     0.33824   0.30039   0.87427   0.00000  Uiso   1.00
H878   H     0.00626   0.14507   0.70574   0.00000  Uiso   1.00
H879   H     0.33764   0.03286   0.79294   0.00000  Uiso   1.00
H880   H     0.16107   0.30108   0.79449   0.00000  Uiso   1.00
H881   H     0.43547   0.07138   0.73052   0.00000  Uiso   1.00
H882   H     0.44440   0.00778   0.72689   0.00000  Uiso   1.00
H883   H     0.00820   0.28579   0.72742   0.00000  Uiso   1.00
H884   H     0.06399   0.26182   0.73109   0.00000  Uiso   1.00
H885   H     0.05529   0.32550   0.72802   0.00000  Uiso   1.00
H886   H     0.49245   0.28564   0.94435   0.00000  Uiso   1.00
H887   H     0.43580   0.26363   0.93957   0.00000  Uiso   1.00
H888   H     0.44700   0.32698   0.94260   0.00000  Uiso   1.00
N889   N     0.25000   0.16667   0.69227   0.00000  Uiso   1.00
N890   N     0.25000   0.16667   0.97439   0.00000  Uiso   1.00
O891   O     0.25000   0.09613   0.88092   0.00000  Uiso   1.00
O892   O     0.04105   0.29486   0.80597   0.00000  Uiso   1.00
O893   O     0.46085   0.29544   0.86507   0.00000  Uiso   1.00
O894   O     0.03927   0.03749   0.86502   0.00000  Uiso   1.00
O895   O     0.38572   0.28342   0.79434   0.00000  Uiso   1.00
O896   O     0.35298   0.26807   0.88003   0.00000  Uiso   1.00
O897   O     0.15312   0.07046   0.80893   0.00000  Uiso   1.00
O898   O    -0.00397   0.17526   0.68540   0.00000  Uiso   1.00
O899   O     0.38343   0.05067   0.87514   0.00000  Uiso   1.00
O900   O     0.35245   0.06534   0.78776   0.00000  Uiso   1.00
O901   O     0.11671   0.28166   0.87658   0.00000  Uiso   1.00
O902   O     0.25000   0.23720   0.78575   0.00000  Uiso   1.00
O903   O     0.14687   0.26827   0.78893   0.00000  Uiso   1.00
O904   O     0.25000   0.23720   0.88092   0.00000  Uiso   1.00
O905   O     0.25000   0.09613   0.78575   0.00000  Uiso   1.00
O906   O     0.18513   0.16667   0.88093   0.00000  Uiso   1.00
O907   O     0.31487   0.16667   0.78573   0.00000  Uiso   1.00
O908   O     0.31487   0.16667   0.88093   0.00000  Uiso   1.00
O909   O     0.18513   0.16667   0.78573   0.00000  Uiso   1.00
O910   O     0.45874   0.03804   0.80534   0.00000  Uiso   1.00
C911   C     0.75030   0.07325   0.83335   0.00000  Uiso   1.00
C912   C     0.61620   0.16565   0.83234   0.00000  Uiso   1.00
C913   C     0.95287   0.12266   0.83153   0.00000  Uiso   1.00
C914   C     0.54702   0.21015   0.83154   0.00000  Uiso   1.00
C915   C     0.95358   0.21062   0.83980   0.00000  Uiso   1.00
C916   C     0.54633   0.12225   0.83921   0.00000  Uiso   1.00
C917   C     0.97648   0.16654   0.83604   0.00000  Uiso   1.00
C918   C     0.52344   0.16635   0.83598   0.00000  Uiso   1.00
C919   C     0.97710   0.07968   0.82741   0.00000  Uiso   1.00
C920   C     0.52274   0.25315   0.82755   0.00000  Uiso   1.00
C921   C     0.97859   0.25338   0.84415   0.00000  Uiso   1.00
C922   C     0.74998   0.26008   0.83335   0.00000  Uiso   1.00
C923   C     0.52133   0.07953   0.84405   0.00000  Uiso   1.00
C924   C     0.75006   0.02168   0.83340   0.00000  Uiso   1.00
C925   C     0.74998   0.31165   0.83339   0.00000  Uiso   1.00
C926   C     0.95767   0.04190   0.74496   0.00000  Uiso   1.00
C927   C     0.54194   0.29131   0.74558   0.00000  Uiso   1.00
C928   C     0.95916   0.29224   0.92544   0.00000  Uiso   1.00
C929   C     0.54442   0.04200   0.92502   0.00000  Uiso   1.00
C930   C     0.88153   0.25640   0.83533   0.00000  Uiso   1.00
C931   C     0.61555   0.07436   0.82679   0.00000  Uiso   1.00
C932   C     0.88021   0.07740   0.83370   0.00000  Uiso   1.00
C933   C     0.66436   0.16607   0.83311   0.00000  Uiso   1.00
C934   C     0.61967   0.25540   0.83468   0.00000  Uiso   1.00
C935   C     0.83560   0.16697   0.83353   0.00000  Uiso   1.00
C936   C     0.90686   0.21082   0.83773   0.00000  Uiso   1.00
C937   C     0.59285   0.12153   0.83419   0.00000  Uiso   1.00
C938   C     0.90619   0.12283   0.83189   0.00000  Uiso   1.00
C939   C     0.59373   0.20987   0.83187   0.00000  Uiso   1.00
C940   C     0.88376   0.16690   0.83416   0.00000  Uiso   1.00
Cu941  Cu    0.75000   0.16667   0.88969   0.00000  Uiso   1.00
Cu942  Cu    0.75000   0.16667   0.77697   0.00000  Uiso   1.00
H943   H     0.99133   0.04764   0.72720   0.00000  Uiso   1.00
H944   H     0.51240   0.04999   0.94621   0.00000  Uiso   1.00
H945   H     0.56927   0.07012   0.93643   0.00000  Uiso   1.00
H946   H     0.55667   0.00731   0.94232   0.00000  Uiso   1.00
H947   H     0.83824   0.30039   0.87427   0.00000  Uiso   1.00
H948   H     0.50626   0.14507   0.70574   0.00000  Uiso   1.00
H949   H     0.83764   0.03286   0.79294   0.00000  Uiso   1.00
H950   H     0.66107   0.30108   0.79449   0.00000  Uiso   1.00
H951   H     0.93547   0.07138   0.73052   0.00000  Uiso   1.00
H952   H     0.94440   0.00778   0.72689   0.00000  Uiso   1.00
H953   H     0.50820   0.28579   0.72742   0.00000  Uiso   1.00
H954   H     0.56399   0.26182   0.73109   0.00000  Uiso   1.00
H955   H     0.55529   0.32550   0.72802   0.00000  Uiso   1.00
H956   H     0.99245   0.28564   0.94435   0.00000  Uiso   1.00
H957   H     0.93580   0.26363   0.93957   0.00000  Uiso   1.00
H958   H     0.94700   0.32698   0.94260   0.00000  Uiso   1.00
N959   N     0.75000   0.16667   0.69227   0.00000  Uiso   1.00
N960   N     0.75000   0.16667   0.97439   0.00000  Uiso   1.00
O961   O     0.75000   0.09613   0.88092   0.00000  Uiso   1.00
O962   O     0.54105   0.29486   0.80597   0.00000  Uiso   1.00
O963   O     0.96085   0.29544   0.86507   0.00000  Uiso   1.00
O964   O     0.53927   0.03749   0.86502   0.00000  Uiso   1.00
O965   O     0.88572   0.28342   0.79434   0.00000  Uiso   1.00
O966   O     0.85298   0.26807   0.88003   0.00000  Uiso   1.00
O967   O     0.65312   0.07046   0.80893   0.00000  Uiso   1.00
O968   O     0.49603   0.17526   0.68540   0.00000  Uiso   1.00
O969   O     0.88343   0.05067   0.87514   0.00000  Uiso   1.00
O970   O     0.85245   0.06534   0.78776   0.00000  Uiso   1.00
O971   O     0.61671   0.28166   0.87658   0.00000  Uiso   1.00
O972   O     0.75000   0.23720   0.78575   0.00000  Uiso   1.00
O973   O     0.64687   0.26827   0.78893   0.00000  Uiso   1.00
O974   O     0.75000   0.23720   0.88092   0.00000  Uiso   1.00
O975   O     0.75000   0.09613   0.78575   0.00000  Uiso   1.00
O976   O     0.68513   0.16667   0.88093   0.00000  Uiso   1.00
O977   O     0.81487   0.16667   0.78573   0.00000  Uiso   1.00
O978   O     0.81487   0.16667   0.88093   0.00000  Uiso   1.00
O979   O     0.68513   0.16667   0.78573   0.00000  Uiso   1.00
O980   O     0.95874   0.03804   0.80534   0.00000  Uiso   1.00
C981   C     0.25030   0.40658   0.83335   0.00000  Uiso   1.00
C982   C     0.11620   0.49898   0.83234   0.00000  Uiso   1.00
C983   C     0.45287   0.45599   0.83153   0.00000  Uiso   1.00
C984   C     0.04702   0.54348   0.83154   0.00000  Uiso   1.00
C985   C     0.45358   0.54396   0.83980   0.00000  Uiso   1.00
C986   C     0.04633   0.45558   0.83921   0.00000  Uiso   1.00
C987   C     0.47648   0.49987   0.83604   0.00000  Uiso   1.00
C988   C     0.02344   0.49968   0.83598   0.00000  Uiso   1.00
C989   C     0.47710   0.41301   0.82741   0.00000  Uiso   1.00
C990   C     0.02274   0.58649   0.82755   0.00000  Uiso   1.00
C991   C     0.47859   0.58671   0.84415   0.00000  Uiso   1.00
C992   C     0.24998   0.59342   0.83335   0.00000  Uiso   1.00
C993   C     0.02133   0.41286   0.84405   0.00000  Uiso   1.00
C994   C     0.25006   0.35501   0.83340   0.00000  Uiso   1.00
C995   C     0.24998   0.64499   0.83339   0.00000  Uiso   1.00
C996   C     0.45767   0.37523   0.74496   0.00000  Uiso   1.00
C997   C     0.04194   0.62465   0.74558   0.00000  Uiso   1.00
C998   C     0.45916   0.62558   0.92544   0.00000  Uiso   1.00
C999   C     0.04442   0.37533   0.92502   0.00000  Uiso   1.00
C1000  C     0.38153   0.58973   0.83533   0.00000  Uiso   1.00
C1001  C     0.11555   0.40769   0.82679   0.00000  Uiso   1.00
C1002  C     0.38021   0.41073   0.83370   0.00000  Uiso   1.00
C1003  C     0.16436   0.49940   0.83311   0.00000  Uiso   1.00
C1004  C     0.11967   0.58873   0.83468   0.00000  Uiso   1.00
C1005  C     0.33560   0.50030   0.83353   0.00000  Uiso   1.00
C1006  C     0.40686   0.54415   0.83773   0.00000  Uiso   1.00
C1007  C     0.09285   0.45487   0.83419   0.00000  Uiso   1.00
C1008  C     0.40619   0.45616   0.83189   0.00000  Uiso   1.00
C1009  C     0.09373   0.54320   0.83187   0.00000  Uiso   1.00
C1010  C     0.38376   0.50023   0.83416   0.00000  Uiso   1.00
Cu1011 Cu    0.25000   0.50000   0.88969   0.00000  Uiso   1.00
Cu1012 Cu    0.25000   0.50000   0.77697   0.00000  Uiso   1.00
H1013  H     0.49133   0.38097   0.72720   0.00000  Uiso   1.00
H1014  H     0.01240   0.38333   0.94621   0.00000  Uiso   1.00
H1015  H     0.06927   0.40345   0.93643   0.00000  Uiso   1.00
H1016  H     0.05667   0.34064   0.94232   0.00000  Uiso   1.00
H1017  H     0.33824   0.63372   0.87427   0.00000  Uiso   1.00
H1018  H     0.00626   0.47840   0.70574   0.00000  Uiso   1.00
H1019  H     0.33764   0.36619   0.79294   0.00000  Uiso   1.00
H1020  H     0.16107   0.63441   0.79449   0.00000  Uiso   1.00
H1021  H     0.43547   0.40472   0.73052   0.00000  Uiso   1.00
H1022  H     0.44440   0.34111   0.72689   0.00000  Uiso   1.00
H1023  H     0.00820   0.61912   0.72742   0.00000  Uiso   1.00
H1024  H     0.06399   0.59515   0.73109   0.00000  Uiso   1.00
H1025  H     0.05529   0.65883   0.72802   0.00000  Uiso   1.00
H1026  H     0.49245   0.61898   0.94435   0.00000  Uiso   1.00
H1027  H     0.43580   0.59696   0.93957   0.00000  Uiso   1.00
H1028  H     0.44700   0.66031   0.94260   0.00000  Uiso   1.00
N1029  N     0.25000   0.50000   0.69227   0.00000  Uiso   1.00
N1030  N     0.25000   0.50000   0.97439   0.00000  Uiso   1.00
O1031  O     0.25000   0.42946   0.88092   0.00000  Uiso   1.00
O1032  O     0.04105   0.62820   0.80597   0.00000  Uiso   1.00
O1033  O     0.46085   0.62877   0.86507   0.00000  Uiso   1.00
O1034  O     0.03927   0.37082   0.86502   0.00000  Uiso   1.00
O1035  O     0.38572   0.61676   0.79434   0.00000  Uiso   1.00
O1036  O     0.35298   0.60140   0.88003   0.00000  Uiso   1.00
O1037  O     0.15312   0.40379   0.80893   0.00000  Uiso   1.00
O1038  O    -0.00397   0.50860   0.68540   0.00000  Uiso   1.00
O1039  O     0.38343   0.38401   0.87514   0.00000  Uiso   1.00
O1040  O     0.35245   0.39868   0.78776   0.00000  Uiso   1.00
O1041  O     0.11671   0.61500   0.87658   0.00000  Uiso   1.00
O1042  O     0.25000   0.57054   0.78575   0.00000  Uiso   1.00
O1043  O     0.14687   0.60160   0.78893   0.00000  Uiso   1.00
O1044  O     0.25000   0.57054   0.88092   0.00000  Uiso   1.00
O1045  O     0.25000   0.42946   0.78575   0.00000  Uiso   1.00
O1046  O     0.18513   0.50000   0.88093   0.00000  Uiso   1.00
O1047  O     0.31487   0.50000   0.78573   0.00000  Uiso   1.00
O1048  O     0.31487   0.50000   0.88093   0.00000  Uiso   1.00
O1049  O     0.18513   0.50000   0.78573   0.00000  Uiso   1.00
O1050  O     0.45874   0.37137   0.80534   0.00000  Uiso   1.00
C1051  C     0.75030   0.40658   0.83335   0.00000  Uiso   1.00
C1052  C     0.61620   0.49898   0.83234   0.00000  Uiso   1.00
C1053  C     0.95287   0.45599   0.83153   0.00000  Uiso   1.00
C1054  C     0.54702   0.54348   0.83154   0.00000  Uiso   1.00
C1055  C     0.95358   0.54396   0.83980   0.00000  Uiso   1.00
C1056  C     0.54633   0.45558   0.83921   0.00000  Uiso   1.00
C1057  C     0.97648   0.49987   0.83604   0.00000  Uiso   1.00
C1058  C     0.52344   0.49968   0.83598   0.00000  Uiso   1.00
C1059  C     0.97710   0.41301   0.82741   0.00000  Uiso   1.00
C1060  C     0.52274   0.58649   0.82755   0.00000  Uiso   1.00
C1061  C     0.97859   0.58671   0.84415   0.00000  Uiso   1.00
C1062  C     0.74998   0.59342   0.83335   0.00000  Uiso   1.00
C1063  C     0.52133   0.41286   0.84405   0.00000  Uiso   1.00
C1064  C     0.75006   0.35501   0.83340   0.00000  Uiso   1.00
C1065  C     0.74998   0.64499   0.83339   0.00000  Uiso   1.00
C1066  C     0.95767   0.37523   0.74496   0.00000  Uiso   1.00
C1067  C     0.54194   0.62465   0.74558   0.00000  Uiso   1.00
C1068  C     0.95916   0.62558   0.92544   0.00000  Uiso   1.00
C1069  C     0.54442   0.37533   0.92502   0.00000  Uiso   1.00
C1070  C     0.88153   0.58973   0.83533   0.00000  Uiso   1.00
C1071  C     0.61555   0.40769   0.82679   0.00000  Uiso   1.00
C1072  C     0.88021   0.41073   0.83370   0.00000  Uiso   1.00
C1073  C     0.66436   0.49940   0.83311   0.00000  Uiso   1.00
C1074  C     0.61967   0.58873   0.83468   0.00000  Uiso   1.00
C1075  C     0.83560   0.50030   0.83353   0.00000  Uiso   1.00
C1076  C     0.90686   0.54415   0.83773   0.00000  Uiso   1.00
C1077  C     0.59285   0.45487   0.83419   0.00000  Uiso   1.00
C1078  C     0.90619   0.45616   0.83189   0.00000  Uiso   1.00
C1079  C     0.59373   0.54320   0.83187   0.00000  Uiso   1.00
C1080  C     0.88376   0.50023   0.83416   0.00000  Uiso   1.00
Cu1081 Cu    0.75000   0.50000   0.88969   0.00000  Uiso   1.00
Cu1082 Cu    0.75000   0.50000   0.77697   0.00000  Uiso   1.00
H1083  H     0.99133   0.38097   0.72720   0.00000  Uiso   1.00
H1084  H     0.51240   0.38333   0.94621   0.00000  Uiso   1.00
H1085  H     0.56927   0.40345   0.93643   0.00000  Uiso   1.00
H1086  H     0.55667   0.34064   0.94232   0.00000  Uiso   1.00
H1087  H     0.83824   0.63372   0.87427   0.00000  Uiso   1.00
H1088  H     0.50626   0.47840   0.70574   0.00000  Uiso   1.00
H1089  H     0.83764   0.36619   0.79294   0.00000  Uiso   1.00
H1090  H     0.66107   0.63441   0.79449   0.00000  Uiso   1.00
H1091  H     0.93547   0.40472   0.73052   0.00000  Uiso   1.00
H1092  H     0.94440   0.34111   0.72689   0.00000  Uiso   1.00
H1093  H     0.50820   0.61912   0.72742   0.00000  Uiso   1.00
H1094  H     0.56399   0.59515   0.73109   0.00000  Uiso   1.00
H1095  H     0.55529   0.65883   0.72802   0.00000  Uiso   1.00
H1096  H     0.99245   0.61898   0.94435   0.00000  Uiso   1.00
H1097  H     0.93580   0.59696   0.93957   0.00000  Uiso   1.00
H1098  H     0.94700   0.66031   0.94260   0.00000  Uiso   1.00
N1099  N     0.75000   0.50000   0.69227   0.00000  Uiso   1.00
N1100  N     0.75000   0.50000   0.97439   0.00000  Uiso   1.00
O1101  O     0.75000   0.42946   0.88092   0.00000  Uiso   1.00
O1102  O     0.54105   0.62820   0.80597   0.00000  Uiso   1.00
O1103  O     0.96085   0.62877   0.86507   0.00000  Uiso   1.00
O1104  O     0.53927   0.37082   0.86502   0.00000  Uiso   1.00
O1105  O     0.88572   0.61676   0.79434   0.00000  Uiso   1.00
O1106  O     0.85298   0.60140   0.88003   0.00000  Uiso   1.00
O1107  O     0.65312   0.40379   0.80893   0.00000  Uiso   1.00
O1108  O     0.49603   0.50860   0.68540   0.00000  Uiso   1.00
O1109  O     0.88343   0.38401   0.87514   0.00000  Uiso   1.00
O1110  O     0.85245   0.39868   0.78776   0.00000  Uiso   1.00
O1111  O     0.61671   0.61500   0.87658   0.00000  Uiso   1.00
O1112  O     0.75000   0.57054   0.78575   0.00000  Uiso   1.00
O1113  O     0.64687   0.60160   0.78893   0.00000  Uiso   1.00
O1114  O     0.75000   0.57054   0.88092   0.00000  Uiso   1.00
O1115  O     0.75000   0.42946   0.78575   0.00000  Uiso   1.00
O1116  O     0.68513   0.50000   0.88093   0.00000  Uiso   1.00
O1117  O     0.81487   0.50000   0.78573   0.00000  Uiso   1.00
O1118  O     0.81487   0.50000   0.88093   0.00000  Uiso   1.00
O1119  O     0.68513   0.50000   0.78573   0.00000  Uiso   1.00
O1120  O     0.95874   0.37137   0.80534   0.00000  Uiso   1.00
C1121  C     0.25030   0.73991   0.83335   0.00000  Uiso   1.00
C1122  C     0.11620   0.83231   0.83234   0.00000  Uiso   1.00
C1123  C     0.45287   0.78933   0.83153   0.00000  Uiso   1.00
C1124  C     0.04702   0.87681   0.83154   0.00000  Uiso   1.00
C1125  C     0.45358   0.87729   0.83980   0.00000  Uiso   1.00
C1126  C     0.04633   0.78892   0.83921   0.00000  Uiso   1.00
C1127  C     0.47648   0.83321   0.83604   0.00000  Uiso   1.00
C1128  C     0.02344   0.83301   0.83598   0.00000  Uiso   1.00
C1129  C     0.47710   0.74635   0.82741   0.00000  Uiso   1.00
C1130  C     0.02274   0.91982   0.82755   0.00000  Uiso   1.00
C1131  C     0.47859   0.92005   0.84415   0.00000  Uiso   1.00
C1132  C     0.24998   0.92675   0.83335   0.00000  Uiso   1.00
C1133  C     0.02133   0.74620   0.84405   0.00000  Uiso   1.00
C1134  C     0.25006   0.68834   0.83340   0.00000  Uiso   1.00
C1135  C     0.24998   0.97832   0.83339   0.00000  Uiso   1.00
C1136  C     0.45767   0.70857   0.74496   0.00000  Uiso   1.00
C1137  C     0.04194   0.95798   0.74558   0.00000  Uiso   1.00
C1138  C     0.45916   0.95891   0.92544   0.00000  Uiso   1.00
C1139  C     0.04442   0.70866   0.92502   0.00000  Uiso   1.00
C1140  C     0.38153   0.92306   0.83533   0.00000  Uiso   1.00
C1141  C     0.11555   0.74103   0.82679   0.00000  Uiso   1.00
C1142  C     0.38021   0.74407   0.83370   0.00000  Uiso   1.00
C1143  C     0.16436   0.83274   0.83311   0.00000  Uiso   1.00
C1144  C     0.11967   0.92206   0.83468   0.00000  Uiso   1.00
C1145  C     0.33560   0.83364   0.83353   0.00000  Uiso   1.00
C1146  C     0.40686   0.87748   0.83773   0.00000  Uiso   1.00
C1147  C     0.09285   0.78820   0.83419   0.00000  Uiso   1.00
C1148  C     0.40619   0.78950   0.83189   0.00000  Uiso   1.00
C1149  C     0.09373   0.87654   0.83187   0.00000  Uiso   1.00
C1150  C     0.38376   0.83357   0.83416   0.00000  Uiso   1.00
Cu1151 Cu    0.25000   0.83333   0.88969   0.00000  Uiso   1.00
Cu1152 Cu    0.25000   0.83333   0.77697   0.00000  Uiso   1.00
H1153  H     0.49133   0.71430   0.72720   0.00000  Uiso   1.00
H1154  H     0.01240   0.71666   0.94621   0.00000  Uiso   1.00
H1155  H     0.06927   0.73678   0.93643   0.00000  Uiso   1.00
H1156  H     0.05667   0.67398   0.94232   0.00000  Uiso   1.00
H1157  H     0.33824   0.96706   0.87427   0.00000  Uiso   1.00
H1158  H     0.00626   0.81173   0.70574   0.00000  Uiso   1.00
H1159  H     0.33764   0.69952   0.79294   0.00000  Uiso   1.00
H1160  H     0.16107   0.96775   0.79449   0.00000  Uiso   1.00
H1161  H     0.43547   0.73805   0.73052   0.00000  Uiso   1.00
H1162  H     0.44440   0.67445   0.72689   0.00000  Uiso   1.00
H1163  H     0.00820   0.95245   0.72742   0.00000  Uiso   1.00
H1164  H     0.06399   0.92849   0.73109   0.00000  Uiso   1.00
H1165  H     0.05529   0.99216   0.72802   0.00000  Uiso   1.00
H1166  H     0.49245   0.95231   0.94435   0.00000  Uiso   1.00
H1167  H     0.43580   0.93029   0.93957   0.00000  Uiso   1.00
H1168  H     0.44700   0.99364   0.94260   0.00000  Uiso   1.00
N1169  N     0.25000   0.83333   0.69227   0.00000  Uiso   1.00
N1170  N     0.25000   0.83333   0.97439   0.00000  Uiso   1.00
O1171  O     0.25000   0.76280   0.88092   0.00000  Uiso   1.00
O1172  O     0.04105   0.96153   0.80597   0.00000  Uiso   1.00
O1173  O     0.46085   0.96211   0.86507   0.00000  Uiso   1.00
O1174  O     0.03927   0.70415   0.86502   0.00000  Uiso   1.00
O1175  O     0.38572   0.95009   0.79434   0.00000  Uiso   1.00
O1176  O     0.35298   0.93473   0.88003   0.00000  Uiso   1.00
O1177  O     0.15312   0.73713   0.80893   0.00000  Uiso   1.00
O1178  O    -0.00397   0.84193   0.68540   0.00000  Uiso   1.00
O1179  O     0.38343   0.71734   0.87514   0.00000  Uiso   1.00
O1180  O     0.35245   0.73201   0.78776   0.00000  Uiso   1.00
O1181  O     0.11671   0.94833   0.87658   0.00000  Uiso   1.00
O1182  O     0.25000   0.90387   0.78575   0.00000  Uiso   1.00
O1183  O     0.14687   0.93493   0.78893   0.00000  Uiso   1.00
O1184  O     0.25000   0.90387   0.88092   0.00000  Uiso   1.00
O1185  O     0.25000   0.76280   0.78575   0.00000  Uiso   1.00
O1186  O     0.18513   0.83333   0.88093   0.00000  Uiso   1.00
O1187  O     0.31487   0.83333   0.78573   0.00000  Uiso   1.00
O1188  O     0.31487   0.83333   0.88093   0.00000  Uiso   1.00
O1189  O     0.18513   0.83333   0.78573   0.00000  Uiso   1.00
O1190  O     0.45874   0.70470   0.80534   0.00000  Uiso   1.00
C1191  C     0.75030   0.73991   0.83335   0.00000  Uiso   1.00
C1192  C     0.61620   0.83231   0.83234   0.00000  Uiso   1.00
C1193  C     0.95287   0.78933   0.83153   0.00000  Uiso   1.00
C1194  C     0.54702   0.87681   0.83154   0.00000  Uiso   1.00
C1195  C     0.95358   0.87729   0.83980   0.00000  Uiso   1.00
C1196  C     0.54633   0.78892   0.83921   0.00000  Uiso   1.00
C1197  C     0.97648   0.83321   0.83604   0.00000  Uiso   1.00
C1198  C     0.52344   0.83301   0.83598   0.00000  Uiso   1.00
C1199  C     0.97710   0.74635   0.82741   0.00000  Uiso   1.00
C1200  C     0.52274   0.91982   0.82755   0.00000  Uiso   1.00
C1201  C     0.97859   0.92005   0.84415   0.00000  Uiso   1.00
C1202  C     0.74998   0.92675   0.83335   0.00000  Uiso   1.00
C1203  C     0.52133   0.74620   0.84405   0.00000  Uiso   1.00
C1204  C     0.75006   0.68834   0.83340   0.00000  Uiso   1.00
C1205  C     0.74998   0.97832   0.83339   0.00000  Uiso   1.00
C1206  C     0.95767   0.70857   0.74496   0.00000  Uiso   1.00
C1207  C     0.54194   0.95798   0.74558   0.00000  Uiso   1.00
C1208  C     0.95916   0.95891   0.92544   0.00000  Uiso   1.00
C1209  C     0.54442   0.70866   0.92502   0.00000  Uiso   1.00
C1210  C     0.88153   0.92306   0.83533   0.00000  Uiso   1.00
C1211  C     0.61555   0.74103   0.82679   0.00000  Uiso   1.00
C1212  C     0.88021   0.74407   0.83370   0.00000  Uiso   1.00
C1213  C     0.66436   0.83274   0.83311   0.00000  Uiso   1.00
C1214  C     0.61967   0.92206   0.83468   0.00000  Uiso   1.00
C1215  C     0.83560   0.83364   0.83353   0.00000  Uiso   1.00
C1216  C     0.90686   0.87748   0.83773   0.00000  Uiso   1.00
C1217  C     0.59285   0.78820   0.83419   0.00000  Uiso   1.00
C1218  C     0.90619   0.78950   0.83189   0.00000  Uiso   1.00
C1219  C     0.59373   0.87654   0.83187   0.00000  Uiso   1.00
C1220  C     0.88376   0.83357   0.83416   0.00000  Uiso   1.00
Cu1221 Cu    0.75000   0.83333   0.88969   0.00000  Uiso   1.00
Cu1222 Cu    0.75000   0.83333   0.77697   0.00000  Uiso   1.00
H1223  H     0.99133   0.71430   0.72720   0.00000  Uiso   1.00
H1224  H     0.51240   0.71666   0.94621   0.00000  Uiso   1.00
H1225  H     0.56927   0.73678   0.93643   0.00000  Uiso   1.00
H1226  H     0.55667   0.67398   0.94232   0.00000  Uiso   1.00
H1227  H     0.83824   0.96706   0.87427   0.00000  Uiso   1.00
H1228  H     0.50626   0.81173   0.70574   0.00000  Uiso   1.00
H1229  H     0.83764   0.69952   0.79294   0.00000  Uiso   1.00
H1230  H     0.66107   0.96775   0.79449   0.00000  Uiso   1.00
H1231  H     0.93547   0.73805   0.73052   0.00000  Uiso   1.00
H1232  H     0.94440   0.67445   0.72689   0.00000  Uiso   1.00
H1233  H     0.50820   0.95245   0.72742   0.00000  Uiso   1.00
H1234  H     0.56399   0.92849   0.73109   0.00000  Uiso   1.00
H1235  H     0.55529   0.99216   0.72802   0.00000  Uiso   1.00
H1236  H     0.99245   0.95231   0.94435   0.00000  Uiso   1.00
H1237  H     0.93580   0.93029   0.93957   0.00000  Uiso   1.00
H1238  H     0.94700   0.99364   0.94260   0.00000  Uiso   1.00
N1239  N     0.75000   0.83333   0.69227   0.00000  Uiso   1.00
N1240  N     0.75000   0.83333   0.97439   0.00000  Uiso   1.00
O1241  O     0.75000   0.76280   0.88092   0.00000  Uiso   1.00
O1242  O     0.54105   0.96153   0.80597   0.00000  Uiso   1.00
O1243  O     0.96085   0.96211   0.86507   0.00000  Uiso   1.00
O1244  O     0.53927   0.70415   0.86502   0.00000  Uiso   1.00
O1245  O     0.88572   0.95009   0.79434   0.00000  Uiso   1.00
O1246  O     0.85298   0.93473   0.88003   0.00000  Uiso   1.00
O1247  O     0.65312   0.73713   0.80893   0.00000  Uiso   1.00
O1248  O     0.49603   0.84193   0.68540   0.00000  Uiso   1.00
O1249  O     0.88343   0.71734   0.87514   0.00000  Uiso   1.00
O1250  O     0.85245   0.73201   0.78776   0.00000  Uiso   1.00
O1251  O     0.61671   0.94833   0.87658   0.00000  Uiso   1.00
O1252  O     0.75000   0.90387   0.78575   0.00000  Uiso   1.00
O1253  O     0.64687   0.93493   0.78893   0.00000  Uiso   1.00
O1254  O     0.75000   0.90387   0.88092   0.00000  Uiso   1.00
O1255  O     0.75000   0.76280   0.78575   0.00000  Uiso   1.00
O1256  O     0.68513   0.83333   0.88093   0.00000  Uiso   1.00
O1257  O     0.81487   0.83333   0.78573   0.00000  Uiso   1.00
O1258  O     0.81487   0.83333   0.88093   0.00000  Uiso   1.00
O1259  O     0.68513   0.83333   0.78573   0.00000  Uiso   1.00
O1260  O     0.95874   0.70470   0.80534   0.00000  Uiso   1.00
loop_
_geom_bond_atom_site_label_1
_geom_bond_atom_site_label_2
_geom_bond_distance
_geom_bond_site_symmetry_2
_ccdc_geom_bond_type
C1     O65     1.280   .     A
C1     O51     1.278   .     A
C1     C14     1.431   .     S
C2     C27     1.411   .     A
C2     C23     1.457   .     S
C2     C29     1.406   .     A
C3     C9      1.407   .     A
C3     C28     1.413   .     A
C3     C7      1.412   .     A
C4     C29     1.413   .     A
C4     C8      1.411   .     A
C4     C10     1.407   .     A
C5     C11     1.407   .     A
C5     C26     1.414   .     A
C5     C7      1.412   .     A
C6     C13     1.408   .     A
C6     C27     1.414   .     A
C6     C8      1.411   .     A
C7     C78     1.421   .     S
C8     C77     1.421   1_455 S
C9     O70     1.378   .     S
C9     C83     1.391   .     S
C10    O52     1.378   .     S
C10    C81     1.393   1_455 S
C11    O53     1.377   .     S
C11    C80     1.393   .     S
C12    O62     1.279   .     A
C12    C15     1.431   .     S
C12    O64     1.279   .     A
C13    O54     1.378   .     S
C13    C79     1.391   1_455 S
C14    C295    1.203   1_545 S
C15    C154    1.203   .     S
C16    H33     1.113   .     S
C16    H42     1.109   .     S
C16    O70     1.413   .     S
C16    H41     1.112   .     S
C17    H43     1.113   .     S
C17    H44     1.112   .     S
C17    O52     1.412   .     S
C17    H45     1.109   .     S
C18    H48     1.109   .     S
C18    H47     1.112   .     S
C18    H46     1.113   .     S
C18    O53     1.412   .     S
C19    H35     1.112   .     S
C19    O54     1.413   .     S
C19    H36     1.109   .     S
C19    H34     1.113   .     S
C20    O56     1.397   .     S
C20    C26     1.483   .     S
C20    O55     1.222   .     D
C21    O57     1.218   .     D
C21    C27     1.492   .     S
C22    O60     1.397   .     S
C22    O59     1.222   .     D
C22    C28     1.483   .     S
C23    O69     1.275   .     A
C23    O66     1.277   .     A
C24    O61     1.223   .     D
C24    O63     1.397   .     S
C24    C29     1.486   .     S
C25    C30     1.457   .     S
C25    O68     1.275   .     A
C25    O67     1.276   .     A
C26    C30     1.404   .     A
C28    C30     1.403   .     A
Cu31   O66     1.972   .     S
Cu31   O64     1.968   .     S
Cu31   O68     1.975   .     S
Cu31   N50     1.975   .     S
Cu31   Cu32    2.629   .     S
Cu31   O51     1.968   .     S
Cu32   O62     1.968   .     S
Cu32   O69     1.975   .     S
Cu32   O67     1.972   .     S
Cu32   N49     1.975   .     S
Cu32   O65     1.968   .     S
H37    O56     1.012   .     S
H38    O58     1.012   .     S
H39    O60     1.012   .     S
H40    O63     1.013   .     S
N49    N890    1.194   1_554 S
N50    N469    1.194   .     S
C71    O135    1.280   .     A
C71    O121    1.278   .     A
C71    C84     1.431   .     S
C72    C97     1.411   .     A
C72    C93     1.457   .     S
C72    C99     1.406   .     A
C73    C79     1.407   .     A
C73    C98     1.413   .     A
C73    C77     1.412   .     A
C74    C99     1.413   .     A
C74    C78     1.411   .     A
C74    C80     1.407   .     A
C75    C81     1.407   .     A
C75    C96     1.414   .     A
C75    C77     1.412   .     A
C76    C83     1.408   .     A
C76    C97     1.414   .     A
C76    C78     1.411   .     A
C77    C8      1.421   1_655 S
C79    O140    1.378   .     S
C79    C13     1.391   1_655 S
C80    O122    1.378   .     S
C81    O123    1.377   .     S
C81    C10     1.393   1_655 S
C82    O132    1.279   .     A
C82    C85     1.431   .     S
C82    O134    1.279   .     A
C83    O124    1.378   .     S
C84    C365    1.203   1_545 S
C85    C224    1.203   .     S
C86    H103    1.113   .     S
C86    H112    1.109   .     S
C86    O140    1.413   .     S
C86    H111    1.112   .     S
C87    H113    1.113   .     S
C87    H114    1.112   .     S
C87    O122    1.412   .     S
C87    H115    1.109   .     S
C88    H118    1.109   .     S
C88    H117    1.112   .     S
C88    H116    1.113   .     S
C88    O123    1.412   .     S
C89    H105    1.112   .     S
C89    O124    1.413   .     S
C89    H106    1.109   .     S
C89    H104    1.113   .     S
C90    O126    1.397   .     S
C90    C96     1.483   .     S
C90    O125    1.222   .     D
C91    O127    1.218   .     D
C91    C97     1.492   .     S
C92    O130    1.397   .     S
C92    O129    1.222   .     D
C92    C98     1.483   .     S
C93    O139    1.275   .     A
C93    O136    1.277   .     A
C94    O131    1.223   .     D
C94    O133    1.397   .     S
C94    C99     1.486   .     S
C95    C100    1.457   .     S
C95    O138    1.275   .     A
C95    O137    1.276   .     A
C96    C100    1.404   .     A
C98    C100    1.403   .     A
Cu101  O136    1.972   .     S
Cu101  O134    1.968   .     S
Cu101  O138    1.975   .     S
Cu101  N120    1.975   .     S
Cu101  Cu102   2.629   .     S
Cu101  O121    1.968   .     S
Cu102  O132    1.968   .     S
Cu102  O139    1.975   .     S
Cu102  O137    1.972   .     S
Cu102  N119    1.975   .     S
Cu102  O135    1.968   .     S
H107   O126    1.012   .     S
H108   O128    1.012   .     S
H109   O130    1.012   .     S
H110   O133    1.013   .     S
N119   N960    1.194   1_554 S
N120   N539    1.194   .     S
C141   O205    1.280   .     A
C141   O191    1.278   .     A
C141   C154    1.431   .     S
C142   C167    1.411   .     A
C142   C163    1.457   .     S
C142   C169    1.406   .     A
C143   C149    1.407   .     A
C143   C168    1.413   .     A
C143   C147    1.412   .     A
C144   C169    1.413   .     A
C144   C148    1.411   .     A
C144   C150    1.407   .     A
C145   C151    1.407   .     A
C145   C166    1.414   .     A
C145   C147    1.412   .     A
C146   C153    1.408   .     A
C146   C167    1.414   .     A
C146   C148    1.411   .     A
C147   C218    1.421   .     S
C148   C217    1.421   1_455 S
C149   O210    1.378   .     S
C149   C223    1.391   .     S
C150   O192    1.378   .     S
C150   C221    1.393   1_455 S
C151   O193    1.377   .     S
C151   C220    1.393   .     S
C152   O202    1.279   .     A
C152   C155    1.431   .     S
C152   O204    1.279   .     A
C153   O194    1.378   .     S
C153   C219    1.391   1_455 S
C155   C294    1.203   .     S
C156   H173    1.113   .     S
C156   H182    1.109   .     S
C156   O210    1.413   .     S
C156   H181    1.112   .     S
C157   H183    1.113   .     S
C157   H184    1.112   .     S
C157   O192    1.412   .     S
C157   H185    1.109   .     S
C158   H188    1.109   .     S
C158   H187    1.112   .     S
C158   H186    1.113   .     S
C158   O193    1.412   .     S
C159   H175    1.112   .     S
C159   O194    1.413   .     S
C159   H176    1.109   .     S
C159   H174    1.113   .     S
C160   O196    1.397   .     S
C160   C166    1.483   .     S
C160   O195    1.222   .     D
C161   O197    1.218   .     D
C161   C167    1.492   .     S
C162   O200    1.397   .     S
C162   O199    1.222   .     D
C162   C168    1.483   .     S
C163   O209    1.275   .     A
C163   O206    1.277   .     A
C164   O201    1.223   .     D
C164   O203    1.397   .     S
C164   C169    1.486   .     S
C165   C170    1.457   .     S
C165   O208    1.275   .     A
C165   O207    1.276   .     A
C166   C170    1.404   .     A
C168   C170    1.403   .     A
Cu171  O206    1.972   .     S
Cu171  O204    1.968   .     S
Cu171  O208    1.975   .     S
Cu171  N190    1.975   .     S
Cu171  Cu172   2.629   .     S
Cu171  O191    1.968   .     S
Cu172  O202    1.968   .     S
Cu172  O209    1.975   .     S
Cu172  O207    1.972   .     S
Cu172  N189    1.975   .     S
Cu172  O205    1.968   .     S
H177   O196    1.012   .     S
H178   O198    1.012   .     S
H179   O200    1.012   .     S
H180   O203    1.013   .     S
N189   N1030   1.194   1_554 S
N190   N609    1.194   .     S
C211   O275    1.280   .     A
C211   O261    1.278   .     A
C211   C224    1.431   .     S
C212   C237    1.411   .     A
C212   C233    1.457   .     S
C212   C239    1.406   .     A
C213   C219    1.407   .     A
C213   C238    1.413   .     A
C213   C217    1.412   .     A
C214   C239    1.413   .     A
C214   C218    1.411   .     A
C214   C220    1.407   .     A
C215   C221    1.407   .     A
C215   C236    1.414   .     A
C215   C217    1.412   .     A
C216   C223    1.408   .     A
C216   C237    1.414   .     A
C216   C218    1.411   .     A
C217   C148    1.421   1_655 S
C219   O280    1.378   .     S
C219   C153    1.391   1_655 S
C220   O262    1.378   .     S
C221   O263    1.377   .     S
C221   C150    1.393   1_655 S
C222   O272    1.279   .     A
C222   C225    1.431   .     S
C222   O274    1.279   .     A
C223   O264    1.378   .     S
C225   C364    1.203   .     S
C226   H243    1.113   .     S
C226   H252    1.109   .     S
C226   O280    1.413   .     S
C226   H251    1.112   .     S
C227   H253    1.113   .     S
C227   H254    1.112   .     S
C227   O262    1.412   .     S
C227   H255    1.109   .     S
C228   H258    1.109   .     S
C228   H257    1.112   .     S
C228   H256    1.113   .     S
C228   O263    1.412   .     S
C229   H245    1.112   .     S
C229   O264    1.413   .     S
C229   H246    1.109   .     S
C229   H244    1.113   .     S
C230   O266    1.397   .     S
C230   C236    1.483   .     S
C230   O265    1.222   .     D
C231   O267    1.218   .     D
C231   C237    1.492   .     S
C232   O270    1.397   .     S
C232   O269    1.222   .     D
C232   C238    1.483   .     S
C233   O279    1.275   .     A
C233   O276    1.277   .     A
C234   O271    1.223   .     D
C234   O273    1.397   .     S
C234   C239    1.486   .     S
C235   C240    1.457   .     S
C235   O278    1.275   .     A
C235   O277    1.276   .     A
C236   C240    1.404   .     A
C238   C240    1.403   .     A
Cu241  O276    1.972   .     S
Cu241  O274    1.968   .     S
Cu241  O278    1.975   .     S
Cu241  N260    1.975   .     S
Cu241  Cu242   2.629   .     S
Cu241  O261    1.968   .     S
Cu242  O272    1.968   .     S
Cu242  O279    1.975   .     S
Cu242  O277    1.972   .     S
Cu242  N259    1.975   .     S
Cu242  O275    1.968   .     S
H247   O266    1.012   .     S
H248   O268    1.012   .     S
H249   O270    1.012   .     S
H250   O273    1.013   .     S
N259   N1100   1.194   1_554 S
N260   N679    1.194   .     S
C281   O345    1.280   .     A
C281   O331    1.278   .     A
C281   C294    1.431   .     S
C282   C307    1.411   .     A
C282   C303    1.457   .     S
C282   C309    1.406   .     A
C283   C289    1.407   .     A
C283   C308    1.413   .     A
C283   C287    1.412   .     A
C284   C309    1.413   .     A
C284   C288    1.411   .     A
C284   C290    1.407   .     A
C285   C291    1.407   .     A
C285   C306    1.414   .     A
C285   C287    1.412   .     A
C286   C293    1.408   .     A
C286   C307    1.414   .     A
C286   C288    1.411   .     A
C287   C358    1.421   .     S
C288   C357    1.421   1_455 S
C289   O350    1.378   .     S
C289   C363    1.391   .     S
C290   O332    1.378   .     S
C290   C361    1.393   1_455 S
C291   O333    1.377   .     S
C291   C360    1.393   .     S
C292   O342    1.279   .     A
C292   C295    1.431   .     S
C292   O344    1.279   .     A
C293   O334    1.378   .     S
C293   C359    1.391   1_455 S
C295   C14     1.203   1_565 S
C296   H313    1.113   .     S
C296   H322    1.109   .     S
C296   O350    1.413   .     S
C296   H321    1.112   .     S
C297   H323    1.113   .     S
C297   H324    1.112   .     S
C297   O332    1.412   .     S
C297   H325    1.109   .     S
C298   H328    1.109   .     S
C298   H327    1.112   .     S
C298   H326    1.113   .     S
C298   O333    1.412   .     S
C299   H315    1.112   .     S
C299   O334    1.413   .     S
C299   H316    1.109   .     S
C299   H314    1.113   .     S
C300   O336    1.397   .     S
C300   C306    1.483   .     S
C300   O335    1.222   .     D
C301   O337    1.218   .     D
C301   C307    1.492   .     S
C302   O340    1.397   .     S
C302   O339    1.222   .     D
C302   C308    1.483   .     S
C303   O349    1.275   .     A
C303   O346    1.277   .     A
C304   O341    1.223   .     D
C304   O343    1.397   .     S
C304   C309    1.486   .     S
C305   C310    1.457   .     S
C305   O348    1.275   .     A
C305   O347    1.276   .     A
C306   C310    1.404   .     A
C308   C310    1.403   .     A
Cu311  O346    1.972   .     S
Cu311  O344    1.968   .     S
Cu311  O348    1.975   .     S
Cu311  N330    1.975   .     S
Cu311  Cu312   2.629   .     S
Cu311  O331    1.968   .     S
Cu312  O342    1.968   .     S
Cu312  O349    1.975   .     S
Cu312  O347    1.972   .     S
Cu312  N329    1.975   .     S
Cu312  O345    1.968   .     S
H317   O336    1.012   .     S
H318   O338    1.012   .     S
H319   O340    1.012   .     S
H320   O343    1.013   .     S
N329   N1170   1.194   1_554 S
N330   N749    1.194   .     S
C351   O415    1.280   .     A
C351   O401    1.278   .     A
C351   C364    1.431   .     S
C352   C377    1.411   .     A
C352   C373    1.457   .     S
C352   C379    1.406   .     A
C353   C359    1.407   .     A
C353   C378    1.413   .     A
C353   C357    1.412   .     A
C354   C379    1.413   .     A
C354   C358    1.411   .     A
C354   C360    1.407   .     A
C355   C361    1.407   .     A
C355   C376    1.414   .     A
C355   C357    1.412   .     A
C356   C363    1.408   .     A
C356   C377    1.414   .     A
C356   C358    1.411   .     A
C357   C288    1.421   1_655 S
C359   O420    1.378   .     S
C359   C293    1.391   1_655 S
C360   O402    1.378   .     S
C361   O403    1.377   .     S
C361   C290    1.393   1_655 S
C362   O412    1.279   .     A
C362   C365    1.431   .     S
C362   O414    1.279   .     A
C363   O404    1.378   .     S
C365   C84     1.203   1_565 S
C366   H383    1.113   .     S
C366   H392    1.109   .     S
C366   O420    1.413   .     S
C366   H391    1.112   .     S
C367   H393    1.113   .     S
C367   H394    1.112   .     S
C367   O402    1.412   .     S
C367   H395    1.109   .     S
C368   H398    1.109   .     S
C368   H397    1.112   .     S
C368   H396    1.113   .     S
C368   O403    1.412   .     S
C369   H385    1.112   .     S
C369   O404    1.413   .     S
C369   H386    1.109   .     S
C369   H384    1.113   .     S
C370   O406    1.397   .     S
C370   C376    1.483   .     S
C370   O405    1.222   .     D
C371   O407    1.218   .     D
C371   C377    1.492   .     S
C372   O410    1.397   .     S
C372   O409    1.222   .     D
C372   C378    1.483   .     S
C373   O419    1.275   .     A
C373   O416    1.277   .     A
C374   O411    1.223   .     D
C374   O413    1.397   .     S
C374   C379    1.486   .     S
C375   C380    1.457   .     S
C375   O418    1.275   .     A
C375   O417    1.276   .     A
C376   C380    1.404   .     A
C378   C380    1.403   .     A
Cu381  O416    1.972   .     S
Cu381  O414    1.968   .     S
Cu381  O418    1.975   .     S
Cu381  N400    1.975   .     S
Cu381  Cu382   2.629   .     S
Cu381  O401    1.968   .     S
Cu382  O412    1.968   .     S
Cu382  O419    1.975   .     S
Cu382  O417    1.972   .     S
Cu382  N399    1.975   .     S
Cu382  O415    1.968   .     S
H387   O406    1.012   .     S
H388   O408    1.012   .     S
H389   O410    1.012   .     S
H390   O413    1.013   .     S
N399   N1240   1.194   1_554 S
N400   N819    1.194   .     S
C421   O485    1.280   .     A
C421   O471    1.278   .     A
C421   C434    1.431   .     S
C422   C447    1.411   .     A
C422   C443    1.457   .     S
C422   C449    1.406   .     A
C423   C429    1.407   .     A
C423   C448    1.413   .     A
C423   C427    1.412   .     A
C424   C449    1.413   .     A
C424   C428    1.411   .     A
C424   C430    1.407   .     A
C425   C431    1.407   .     A
C425   C446    1.414   .     A
C425   C427    1.412   .     A
C426   C433    1.408   .     A
C426   C447    1.414   .     A
C426   C428    1.411   .     A
C427   C498    1.421   .     S
C428   C497    1.421   1_455 S
C429   O490    1.378   .     S
C429   C503    1.391   .     S
C430   O472    1.378   .     S
C430   C501    1.393   1_455 S
C431   O473    1.377   .     S
C431   C500    1.393   .     S
C432   O482    1.279   .     A
C432   C435    1.431   .     S
C432   O484    1.279   .     A
C433   O474    1.378   .     S
C433   C499    1.391   1_455 S
C434   C715    1.203   1_545 S
C435   C574    1.203   .     S
C436   H453    1.113   .     S
C436   H462    1.109   .     S
C436   O490    1.413   .     S
C436   H461    1.112   .     S
C437   H463    1.113   .     S
C437   H464    1.112   .     S
C437   O472    1.412   .     S
C437   H465    1.109   .     S
C438   H468    1.109   .     S
C438   H467    1.112   .     S
C438   H466    1.113   .     S
C438   O473    1.412   .     S
C439   H455    1.112   .     S
C439   O474    1.413   .     S
C439   H456    1.109   .     S
C439   H454    1.113   .     S
C440   O476    1.397   .     S
C440   C446    1.483   .     S
C440   O475    1.222   .     D
C441   O477    1.218   .     D
C441   C447    1.492   .     S
C442   O480    1.397   .     S
C442   O479    1.222   .     D
C442   C448    1.483   .     S
C443   O489    1.275   .     A
C443   O486    1.277   .     A
C444   O481    1.223   .     D
C444   O483    1.397   .     S
C444   C449    1.486   .     S
C445   C450    1.457   .     S
C445   O488    1.275   .     A
C445   O487    1.276   .     A
C446   C450    1.404   .     A
C448   C450    1.403   .     A
Cu451  O486    1.972   .     S
Cu451  O484    1.968   .     S
Cu451  O488    1.975   .     S
Cu451  N470    1.975   .     S
Cu451  Cu452   2.629   .     S
Cu451  O471    1.968   .     S
Cu452  O482    1.968   .     S
Cu452  O489    1.975   .     S
Cu452  O487    1.972   .     S
Cu452  N469    1.975   .     S
Cu452  O485    1.968   .     S
H457   O476    1.012   .     S
H458   O478    1.012   .     S
H459   O480    1.012   .     S
H460   O483    1.013   .     S
N470   N889    1.194   .     S
C491   O555    1.280   .     A
C491   O541    1.278   .     A
C491   C504    1.431   .     S
C492   C517    1.411   .     A
C492   C513    1.457   .     S
C492   C519    1.406   .     A
C493   C499    1.407   .     A
C493   C518    1.413   .     A
C493   C497    1.412   .     A
C494   C519    1.413   .     A
C494   C498    1.411   .     A
C494   C500    1.407   .     A
C495   C501    1.407   .     A
C495   C516    1.414   .     A
C495   C497    1.412   .     A
C496   C503    1.408   .     A
C496   C517    1.414   .     A
C496   C498    1.411   .     A
C497   C428    1.421   1_655 S
C499   O560    1.378   .     S
C499   C433    1.391   1_655 S
C500   O542    1.378   .     S
C501   O543    1.377   .     S
C501   C430    1.393   1_655 S
C502   O552    1.279   .     A
C502   C505    1.431   .     S
C502   O554    1.279   .     A
C503   O544    1.378   .     S
C504   C785    1.203   1_545 S
C505   C644    1.203   .     S
C506   H523    1.113   .     S
C506   H532    1.109   .     S
C506   O560    1.413   .     S
C506   H531    1.112   .     S
C507   H533    1.113   .     S
C507   H534    1.112   .     S
C507   O542    1.412   .     S
C507   H535    1.109   .     S
C508   H538    1.109   .     S
C508   H537    1.112   .     S
C508   H536    1.113   .     S
C508   O543    1.412   .     S
C509   H525    1.112   .     S
C509   O544    1.413   .     S
C509   H526    1.109   .     S
C509   H524    1.113   .     S
C510   O546    1.397   .     S
C510   C516    1.483   .     S
C510   O545    1.222   .     D
C511   O547    1.218   .     D
C511   C517    1.492   .     S
C512   O550    1.397   .     S
C512   O549    1.222   .     D
C512   C518    1.483   .     S
C513   O559    1.275   .     A
C513   O556    1.277   .     A
C514   O551    1.223   .     D
C514   O553    1.397   .     S
C514   C519    1.486   .     S
C515   C520    1.457   .     S
C515   O558    1.275   .     A
C515   O557    1.276   .     A
C516   C520    1.404   .     A
C518   C520    1.403   .     A
Cu521  O556    1.972   .     S
Cu521  O554    1.968   .     S
Cu521  O558    1.975   .     S
Cu521  N540    1.975   .     S
Cu521  Cu522   2.629   .     S
Cu521  O541    1.968   .     S
Cu522  O552    1.968   .     S
Cu522  O559    1.975   .     S
Cu522  O557    1.972   .     S
Cu522  N539    1.975   .     S
Cu522  O555    1.968   .     S
H527   O546    1.012   .     S
H528   O548    1.012   .     S
H529   O550    1.012   .     S
H530   O553    1.013   .     S
N540   N959    1.194   .     S
C561   O625    1.280   .     A
C561   O611    1.278   .     A
C561   C574    1.431   .     S
C562   C587    1.411   .     A
C562   C583    1.457   .     S
C562   C589    1.406   .     A
C563   C569    1.407   .     A
C563   C588    1.413   .     A
C563   C567    1.412   .     A
C564   C589    1.413   .     A
C564   C568    1.411   .     A
C564   C570    1.407   .     A
C565   C571    1.407   .     A
C565   C586    1.414   .     A
C565   C567    1.412   .     A
C566   C573    1.408   .     A
C566   C587    1.414   .     A
C566   C568    1.411   .     A
C567   C638    1.421   .     S
C568   C637    1.421   1_455 S
C569   O630    1.378   .     S
C569   C643    1.391   .     S
C570   O612    1.378   .     S
C570   C641    1.393   1_455 S
C571   O613    1.377   .     S
C571   C640    1.393   .     S
C572   O622    1.279   .     A
C572   C575    1.431   .     S
C572   O624    1.279   .     A
C573   O614    1.378   .     S
C573   C639    1.391   1_455 S
C575   C714    1.203   .     S
C576   H593    1.113   .     S
C576   H602    1.109   .     S
C576   O630    1.413   .     S
C576   H601    1.112   .     S
C577   H603    1.113   .     S
C577   H604    1.112   .     S
C577   O612    1.412   .     S
C577   H605    1.109   .     S
C578   H608    1.109   .     S
C578   H607    1.112   .     S
C578   H606    1.113   .     S
C578   O613    1.412   .     S
C579   H595    1.112   .     S
C579   O614    1.413   .     S
C579   H596    1.109   .     S
C579   H594    1.113   .     S
C580   O616    1.397   .     S
C580   C586    1.483   .     S
C580   O615    1.222   .     D
C581   O617    1.218   .     D
C581   C587    1.492   .     S
C582   O620    1.397   .     S
C582   O619    1.222   .     D
C582   C588    1.483   .     S
C583   O629    1.275   .     A
C583   O626    1.277   .     A
C584   O621    1.223   .     D
C584   O623    1.397   .     S
C584   C589    1.486   .     S
C585   C590    1.457   .     S
C585   O628    1.275   .     A
C585   O627    1.276   .     A
C586   C590    1.404   .     A
C588   C590    1.403   .     A
Cu591  O626    1.972   .     S
Cu591  O624    1.968   .     S
Cu591  O628    1.975   .     S
Cu591  N610    1.975   .     S
Cu591  Cu592   2.629   .     S
Cu591  O611    1.968   .     S
Cu592  O622    1.968   .     S
Cu592  O629    1.975   .     S
Cu592  O627    1.972   .     S
Cu592  N609    1.975   .     S
Cu592  O625    1.968   .     S
H597   O616    1.012   .     S
H598   O618    1.012   .     S
H599   O620    1.012   .     S
H600   O623    1.013   .     S
N610   N1029   1.194   .     S
C631   O695    1.280   .     A
C631   O681    1.278   .     A
C631   C644    1.431   .     S
C632   C657    1.411   .     A
C632   C653    1.457   .     S
C632   C659    1.406   .     A
C633   C639    1.407   .     A
C633   C658    1.413   .     A
C633   C637    1.412   .     A
C634   C659    1.413   .     A
C634   C638    1.411   .     A
C634   C640    1.407   .     A
C635   C641    1.407   .     A
C635   C656    1.414   .     A
C635   C637    1.412   .     A
C636   C643    1.408   .     A
C636   C657    1.414   .     A
C636   C638    1.411   .     A
C637   C568    1.421   1_655 S
C639   O700    1.378   .     S
C639   C573    1.391   1_655 S
C640   O682    1.378   .     S
C641   O683    1.377   .     S
C641   C570    1.393   1_655 S
C642   O692    1.279   .     A
C642   C645    1.431   .     S
C642   O694    1.279   .     A
C643   O684    1.378   .     S
C645   C784    1.203   .     S
C646   H663    1.113   .     S
C646   H672    1.109   .     S
C646   O700    1.413   .     S
C646   H671    1.112   .     S
C647   H673    1.113   .     S
C647   H674    1.112   .     S
C647   O682    1.412   .     S
C647   H675    1.109   .     S
C648   H678    1.109   .     S
C648   H677    1.112   .     S
C648   H676    1.113   .     S
C648   O683    1.412   .     S
C649   H665    1.112   .     S
C649   O684    1.413   .     S
C649   H666    1.109   .     S
C649   H664    1.113   .     S
C650   O686    1.397   .     S
C650   C656    1.483   .     S
C650   O685    1.222   .     D
C651   O687    1.218   .     D
C651   C657    1.492   .     S
C652   O690    1.397   .     S
C652   O689    1.222   .     D
C652   C658    1.483   .     S
C653   O699    1.275   .     A
C653   O696    1.277   .     A
C654   O691    1.223   .     D
C654   O693    1.397   .     S
C654   C659    1.486   .     S
C655   C660    1.457   .     S
C655   O698    1.275   .     A
C655   O697    1.276   .     A
C656   C660    1.404   .     A
C658   C660    1.403   .     A
Cu661  O696    1.972   .     S
Cu661  O694    1.968   .     S
Cu661  O698    1.975   .     S
Cu661  N680    1.975   .     S
Cu661  Cu662   2.629   .     S
Cu661  O681    1.968   .     S
Cu662  O692    1.968   .     S
Cu662  O699    1.975   .     S
Cu662  O697    1.972   .     S
Cu662  N679    1.975   .     S
Cu662  O695    1.968   .     S
H667   O686    1.012   .     S
H668   O688    1.012   .     S
H669   O690    1.012   .     S
H670   O693    1.013   .     S
N680   N1099   1.194   .     S
C701   O765    1.280   .     A
C701   O751    1.278   .     A
C701   C714    1.431   .     S
C702   C727    1.411   .     A
C702   C723    1.457   .     S
C702   C729    1.406   .     A
C703   C709    1.407   .     A
C703   C728    1.413   .     A
C703   C707    1.412   .     A
C704   C729    1.413   .     A
C704   C708    1.411   .     A
C704   C710    1.407   .     A
C705   C711    1.407   .     A
C705   C726    1.414   .     A
C705   C707    1.412   .     A
C706   C713    1.408   .     A
C706   C727    1.414   .     A
C706   C708    1.411   .     A
C707   C778    1.421   .     S
C708   C777    1.421   1_455 S
C709   O770    1.378   .     S
C709   C783    1.391   .     S
C710   O752    1.378   .     S
C710   C781    1.393   1_455 S
C711   O753    1.377   .     S
C711   C780    1.393   .     S
C712   O762    1.279   .     A
C712   C715    1.431   .     S
C712   O764    1.279   .     A
C713   O754    1.378   .     S
C713   C779    1.391   1_455 S
C715   C434    1.203   1_565 S
C716   H733    1.113   .     S
C716   H742    1.109   .     S
C716   O770    1.413   .     S
C716   H741    1.112   .     S
C717   H743    1.113   .     S
C717   H744    1.112   .     S
C717   O752    1.412   .     S
C717   H745    1.109   .     S
C718   H748    1.109   .     S
C718   H747    1.112   .     S
C718   H746    1.113   .     S
C718   O753    1.412   .     S
C719   H735    1.112   .     S
C719   O754    1.413   .     S
C719   H736    1.109   .     S
C719   H734    1.113   .     S
C720   O756    1.397   .     S
C720   C726    1.483   .     S
C720   O755    1.222   .     D
C721   O757    1.218   .     D
C721   C727    1.492   .     S
C722   O760    1.397   .     S
C722   O759    1.222   .     D
C722   C728    1.483   .     S
C723   O769    1.275   .     A
C723   O766    1.277   .     A
C724   O761    1.223   .     D
C724   O763    1.397   .     S
C724   C729    1.486   .     S
C725   C730    1.457   .     S
C725   O768    1.275   .     A
C725   O767    1.276   .     A
C726   C730    1.404   .     A
C728   C730    1.403   .     A
Cu731  O766    1.972   .     S
Cu731  O764    1.968   .     S
Cu731  O768    1.975   .     S
Cu731  N750    1.975   .     S
Cu731  Cu732   2.629   .     S
Cu731  O751    1.968   .     S
Cu732  O762    1.968   .     S
Cu732  O769    1.975   .     S
Cu732  O767    1.972   .     S
Cu732  N749    1.975   .     S
Cu732  O765    1.968   .     S
H737   O756    1.012   .     S
H738   O758    1.012   .     S
H739   O760    1.012   .     S
H740   O763    1.013   .     S
N750   N1169   1.194   .     S
C771   O835    1.280   .     A
C771   O821    1.278   .     A
C771   C784    1.431   .     S
C772   C797    1.411   .     A
C772   C793    1.457   .     S
C772   C799    1.406   .     A
C773   C779    1.407   .     A
C773   C798    1.413   .     A
C773   C777    1.412   .     A
C774   C799    1.413   .     A
C774   C778    1.411   .     A
C774   C780    1.407   .     A
C775   C781    1.407   .     A
C775   C796    1.414   .     A
C775   C777    1.412   .     A
C776   C783    1.408   .     A
C776   C797    1.414   .     A
C776   C778    1.411   .     A
C777   C708    1.421   1_655 S
C779   O840    1.378   .     S
C779   C713    1.391   1_655 S
C780   O822    1.378   .     S
C781   O823    1.377   .     S
C781   C710    1.393   1_655 S
C782   O832    1.279   .     A
C782   C785    1.431   .     S
C782   O834    1.279   .     A
C783   O824    1.378   .     S
C785   C504    1.203   1_565 S
C786   H803    1.113   .     S
C786   H812    1.109   .     S
C786   O840    1.413   .     S
C786   H811    1.112   .     S
C787   H813    1.113   .     S
C787   H814    1.112   .     S
C787   O822    1.412   .     S
C787   H815    1.109   .     S
C788   H818    1.109   .     S
C788   H817    1.112   .     S
C788   H816    1.113   .     S
C788   O823    1.412   .     S
C789   H805    1.112   .     S
C789   O824    1.413   .     S
C789   H806    1.109   .     S
C789   H804    1.113   .     S
C790   O826    1.397   .     S
C790   C796    1.483   .     S
C790   O825    1.222   .     D
C791   O827    1.218   .     D
C791   C797    1.492   .     S
C792   O830    1.397   .     S
C792   O829    1.222   .     D
C792   C798    1.483   .     S
C793   O839    1.275   .     A
C793   O836    1.277   .     A
C794   O831    1.223   .     D
C794   O833    1.397   .     S
C794   C799    1.486   .     S
C795   C800    1.457   .     S
C795   O838    1.275   .     A
C795   O837    1.276   .     A
C796   C800    1.404   .     A
C798   C800    1.403   .     A
Cu801  O836    1.972   .     S
Cu801  O834    1.968   .     S
Cu801  O838    1.975   .     S
Cu801  N820    1.975   .     S
Cu801  Cu802   2.629   .     S
Cu801  O821    1.968   .     S
Cu802  O832    1.968   .     S
Cu802  O839    1.975   .     S
Cu802  O837    1.972   .     S
Cu802  N819    1.975   .     S
Cu802  O835    1.968   .     S
H807   O826    1.012   .     S
H808   O828    1.012   .     S
H809   O830    1.012   .     S
H810   O833    1.013   .     S
N820   N1239   1.194   .     S
C841   O905    1.280   .     A
C841   O891    1.278   .     A
C841   C854    1.431   .     S
C842   C867    1.411   .     A
C842   C863    1.457   .     S
C842   C869    1.406   .     A
C843   C849    1.407   .     A
C843   C868    1.413   .     A
C843   C847    1.412   .     A
C844   C869    1.413   .     A
C844   C848    1.411   .     A
C844   C850    1.407   .     A
C845   C851    1.407   .     A
C845   C866    1.414   .     A
C845   C847    1.412   .     A
C846   C853    1.408   .     A
C846   C867    1.414   .     A
C846   C848    1.411   .     A
C847   C918    1.421   .     S
C848   C917    1.421   1_455 S
C849   O910    1.378   .     S
C849   C923    1.391   .     S
C850   O892    1.378   .     S
C850   C921    1.393   1_455 S
C851   O893    1.377   .     S
C851   C920    1.393   .     S
C852   O902    1.279   .     A
C852   C855    1.431   .     S
C852   O904    1.279   .     A
C853   O894    1.378   .     S
C853   C919    1.391   1_455 S
C854   C1135   1.203   1_545 S
C855   C994    1.203   .     S
C856   H873    1.113   .     S
C856   H882    1.109   .     S
C856   O910    1.413   .     S
C856   H881    1.112   .     S
C857   H883    1.113   .     S
C857   H884    1.112   .     S
C857   O892    1.412   .     S
C857   H885    1.109   .     S
C858   H888    1.109   .     S
C858   H887    1.112   .     S
C858   H886    1.113   .     S
C858   O893    1.412   .     S
C859   H875    1.112   .     S
C859   O894    1.413   .     S
C859   H876    1.109   .     S
C859   H874    1.113   .     S
C860   O896    1.397   .     S
C860   C866    1.483   .     S
C860   O895    1.222   .     D
C861   O897    1.218   .     D
C861   C867    1.492   .     S
C862   O900    1.397   .     S
C862   O899    1.222   .     D
C862   C868    1.483   .     S
C863   O909    1.275   .     A
C863   O906    1.277   .     A
C864   O901    1.223   .     D
C864   O903    1.397   .     S
C864   C869    1.486   .     S
C865   C870    1.457   .     S
C865   O908    1.275   .     A
C865   O907    1.276   .     A
C866   C870    1.404   .     A
C868   C870    1.403   .     A
Cu871  O906    1.972   .     S
Cu871  O904    1.968   .     S
Cu871  O908    1.975   .     S
Cu871  N890    1.975   .     S
Cu871  Cu872   2.629   .     S
Cu871  O891    1.968   .     S
Cu872  O902    1.968   .     S
Cu872  O909    1.975   .     S
Cu872  O907    1.972   .     S
Cu872  N889    1.975   .     S
Cu872  O905    1.968   .     S
H877   O896    1.012   .     S
H878   O898    1.012   .     S
H879   O900    1.012   .     S
H880   O903    1.013   .     S
N890   N49     1.194   1_556 S
C911   O975    1.280   .     A
C911   O961    1.278   .     A
C911   C924    1.431   .     S
C912   C937    1.411   .     A
C912   C933    1.457   .     S
C912   C939    1.406   .     A
C913   C919    1.407   .     A
C913   C938    1.413   .     A
C913   C917    1.412   .     A
C914   C939    1.413   .     A
C914   C918    1.411   .     A
C914   C920    1.407   .     A
C915   C921    1.407   .     A
C915   C936    1.414   .     A
C915   C917    1.412   .     A
C916   C923    1.408   .     A
C916   C937    1.414   .     A
C916   C918    1.411   .     A
C917   C848    1.421   1_655 S
C919   O980    1.378   .     S
C919   C853    1.391   1_655 S
C920   O962    1.378   .     S
C921   O963    1.377   .     S
C921   C850    1.393   1_655 S
C922   O972    1.279   .     A
C922   C925    1.431   .     S
C922   O974    1.279   .     A
C923   O964    1.378   .     S
C924   C1205   1.203   1_545 S
C925   C1064   1.203   .     S
C926   H943    1.113   .     S
C926   H952    1.109   .     S
C926   O980    1.413   .     S
C926   H951    1.112   .     S
C927   H953    1.113   .     S
C927   H954    1.112   .     S
C927   O962    1.412   .     S
C927   H955    1.109   .     S
C928   H958    1.109   .     S
C928   H957    1.112   .     S
C928   H956    1.113   .     S
C928   O963    1.412   .     S
C929   H945    1.112   .     S
C929   O964    1.413   .     S
C929   H946    1.109   .     S
C929   H944    1.113   .     S
C930   O966    1.397   .     S
C930   C936    1.483   .     S
C930   O965    1.222   .     D
C931   O967    1.218   .     D
C931   C937    1.492   .     S
C932   O970    1.397   .     S
C932   O969    1.222   .     D
C932   C938    1.483   .     S
C933   O979    1.275   .     A
C933   O976    1.277   .     A
C934   O971    1.223   .     D
C934   O973    1.397   .     S
C934   C939    1.486   .     S
C935   C940    1.457   .     S
C935   O978    1.275   .     A
C935   O977    1.276   .     A
C936   C940    1.404   .     A
C938   C940    1.403   .     A
Cu941  O976    1.972   .     S
Cu941  O974    1.968   .     S
Cu941  O978    1.975   .     S
Cu941  N960    1.975   .     S
Cu941  Cu942   2.629   .     S
Cu941  O961    1.968   .     S
Cu942  O972    1.968   .     S
Cu942  O979    1.975   .     S
Cu942  O977    1.972   .     S
Cu942  N959    1.975   .     S
Cu942  O975    1.968   .     S
H947   O966    1.012   .     S
H948   O968    1.012   .     S
H949   O970    1.012   .     S
H950   O973    1.013   .     S
N960   N119    1.194   1_556 S
C981   O1045   1.280   .     A
C981   O1031   1.278   .     A
C981   C994    1.431   .     S
C982   C1007   1.411   .     A
C982   C1003   1.457   .     S
C982   C1009   1.406   .     A
C983   C989    1.407   .     A
C983   C1008   1.413   .     A
C983   C987    1.412   .     A
C984   C1009   1.413   .     A
C984   C988    1.411   .     A
C984   C990    1.407   .     A
C985   C991    1.407   .     A
C985   C1006   1.414   .     A
C985   C987    1.412   .     A
C986   C993    1.408   .     A
C986   C1007   1.414   .     A
C986   C988    1.411   .     A
C987   C1058   1.421   .     S
C988   C1057   1.421   1_455 S
C989   O1050   1.378   .     S
C989   C1063   1.391   .     S
C990   O1032   1.378   .     S
C990   C1061   1.393   1_455 S
C991   O1033   1.377   .     S
C991   C1060   1.393   .     S
C992   O1042   1.279   .     A
C992   C995    1.431   .     S
C992   O1044   1.279   .     A
C993   O1034   1.378   .     S
C993   C1059   1.391   1_455 S
C995   C1134   1.203   .     S
C996   H1013   1.113   .     S
C996   H1022   1.109   .     S
C996   O1050   1.413   .     S
C996   H1021   1.112   .     S
C997   H1023   1.113   .     S
C997   H1024   1.112   .     S
C997   O1032   1.412   .     S
C997   H1025   1.109   .     S
C998   H1028   1.109   .     S
C998   H1027   1.112   .     S
C998   H1026   1.113   .     S
C998   O1033   1.412   .     S
C999   H1015   1.112   .     S
C999   O1034   1.413   .     S
C999   H1016   1.109   .     S
C999   H1014   1.113   .     S
C1000  O1036   1.397   .     S
C1000  C1006   1.483   .     S
C1000  O1035   1.222   .     D
C1001  O1037   1.218   .     D
C1001  C1007   1.492   .     S
C1002  O1040   1.397   .     S
C1002  O1039   1.222   .     D
C1002  C1008   1.483   .     S
C1003  O1049   1.275   .     A
C1003  O1046   1.277   .     A
C1004  O1041   1.223   .     D
C1004  O1043   1.397   .     S
C1004  C1009   1.486   .     S
C1005  C1010   1.457   .     S
C1005  O1048   1.275   .     A
C1005  O1047   1.276   .     A
C1006  C1010   1.404   .     A
C1008  C1010   1.403   .     A
Cu1011 O1046   1.972   .     S
Cu1011 O1044   1.968   .     S
Cu1011 O1048   1.975   .     S
Cu1011 N1030   1.975   .     S
Cu1011 Cu1012  2.629   .     S
Cu1011 O1031   1.968   .     S
Cu1012 O1042   1.968   .     S
Cu1012 O1049   1.975   .     S
Cu1012 O1047   1.972   .     S
Cu1012 N1029   1.975   .     S
Cu1012 O1045   1.968   .     S
H1017  O1036   1.012   .     S
H1018  O1038   1.012   .     S
H1019  O1040   1.012   .     S
H1020  O1043   1.013   .     S
N1030  N189    1.194   1_556 S
C1051  O1115   1.280   .     A
C1051  O1101   1.278   .     A
C1051  C1064   1.431   .     S
C1052  C1077   1.411   .     A
C1052  C1073   1.457   .     S
C1052  C1079   1.406   .     A
C1053  C1059   1.407   .     A
C1053  C1078   1.413   .     A
C1053  C1057   1.412   .     A
C1054  C1079   1.413   .     A
C1054  C1058   1.411   .     A
C1054  C1060   1.407   .     A
C1055  C1061   1.407   .     A
C1055  C1076   1.414   .     A
C1055  C1057   1.412   .     A
C1056  C1063   1.408   .     A
C1056  C1077   1.414   .     A
C1056  C1058   1.411   .     A
C1057  C988    1.421   1_655 S
C1059  O1120   1.378   .     S
C1059  C993    1.391   1_655 S
C1060  O1102   1.378   .     S
C1061  O1103   1.377   .     S
C1061  C990    1.393   1_655 S
C1062  O1112   1.279   .     A
C1062  C1065   1.431   .     S
C1062  O1114   1.279   .     A
C1063  O1104   1.378   .     S
C1065  C1204   1.203   .     S
C1066  H1083   1.113   .     S
C1066  H1092   1.109   .     S
C1066  O1120   1.413   .     S
C1066  H1091   1.112   .     S
C1067  H1093   1.113   .     S
C1067  H1094   1.112   .     S
C1067  O1102   1.412   .     S
C1067  H1095   1.109   .     S
C1068  H1098   1.109   .     S
C1068  H1097   1.112   .     S
C1068  H1096   1.113   .     S
C1068  O1103   1.412   .     S
C1069  H1085   1.112   .     S
C1069  O1104   1.413   .     S
C1069  H1086   1.109   .     S
C1069  H1084   1.113   .     S
C1070  O1106   1.397   .     S
C1070  C1076   1.483   .     S
C1070  O1105   1.222   .     D
C1071  O1107   1.218   .     D
C1071  C1077   1.492   .     S
C1072  O1110   1.397   .     S
C1072  O1109   1.222   .     D
C1072  C1078   1.483   .     S
C1073  O1119   1.275   .     A
C1073  O1116   1.277   .     A
C1074  O1111   1.223   .     D
C1074  O1113   1.397   .     S
C1074  C1079   1.486   .     S
C1075  C1080   1.457   .     S
C1075  O1118   1.275   .     A
C1075  O1117   1.276   .     A
C1076  C1080   1.404   .     A
C1078  C1080   1.403   .     A
Cu1081 O1116   1.972   .     S
Cu1081 O1114   1.968   .     S
Cu1081 O1118   1.975   .     S
Cu1081 N1100   1.975   .     S
Cu1081 Cu1082  2.629   .     S
Cu1081 O1101   1.968   .     S
Cu1082 O1112   1.968   .     S
Cu1082 O1119   1.975   .     S
Cu1082 O1117   1.972   .     S
Cu1082 N1099   1.975   .     S
Cu1082 O1115   1.968   .     S
H1087  O1106   1.012   .     S
H1088  O1108   1.012   .     S
H1089  O1110   1.012   .     S
H1090  O1113   1.013   .     S
N1100  N259    1.194   1_556 S
C1121  O1185   1.280   .     A
C1121  O1171   1.278   .     A
C1121  C1134   1.431   .     S
C1122  C1147   1.411   .     A
C1122  C1143   1.457   .     S
C1122  C1149   1.406   .     A
C1123  C1129   1.407   .     A
C1123  C1148   1.413   .     A
C1123  C1127   1.412   .     A
C1124  C1149   1.413   .     A
C1124  C1128   1.411   .     A
C1124  C1130   1.407   .     A
C1125  C1131   1.407   .     A
C1125  C1146   1.414   .     A
C1125  C1127   1.412   .     A
C1126  C1133   1.408   .     A
C1126  C1147   1.414   .     A
C1126  C1128   1.411   .     A
C1127  C1198   1.421   .     S
C1128  C1197   1.421   1_455 S
C1129  O1190   1.378   .     S
C1129  C1203   1.391   .     S
C1130  O1172   1.378   .     S
C1130  C1201   1.393   1_455 S
C1131  O1173   1.377   .     S
C1131  C1200   1.393   .     S
C1132  O1182   1.279   .     A
C1132  C1135   1.431   .     S
C1132  O1184   1.279   .     A
C1133  O1174   1.378   .     S
C1133  C1199   1.391   1_455 S
C1135  C854    1.203   1_565 S
C1136  H1153   1.113   .     S
C1136  H1162   1.109   .     S
C1136  O1190   1.413   .     S
C1136  H1161   1.112   .     S
C1137  H1163   1.113   .     S
C1137  H1164   1.112   .     S
C1137  O1172   1.412   .     S
C1137  H1165   1.109   .     S
C1138  H1168   1.109   .     S
C1138  H1167   1.112   .     S
C1138  H1166   1.113   .     S
C1138  O1173   1.412   .     S
C1139  H1155   1.112   .     S
C1139  O1174   1.413   .     S
C1139  H1156   1.109   .     S
C1139  H1154   1.113   .     S
C1140  O1176   1.397   .     S
C1140  C1146   1.483   .     S
C1140  O1175   1.222   .     D
C1141  O1177   1.218   .     D
C1141  C1147   1.492   .     S
C1142  O1180   1.397   .     S
C1142  O1179   1.222   .     D
C1142  C1148   1.483   .     S
C1143  O1189   1.275   .     A
C1143  O1186   1.277   .     A
C1144  O1181   1.223   .     D
C1144  O1183   1.397   .     S
C1144  C1149   1.486   .     S
C1145  C1150   1.457   .     S
C1145  O1188   1.275   .     A
C1145  O1187   1.276   .     A
C1146  C1150   1.404   .     A
C1148  C1150   1.403   .     A
Cu1151 O1186   1.972   .     S
Cu1151 O1184   1.968   .     S
Cu1151 O1188   1.975   .     S
Cu1151 N1170   1.975   .     S
Cu1151 Cu1152  2.629   .     S
Cu1151 O1171   1.968   .     S
Cu1152 O1182   1.968   .     S
Cu1152 O1189   1.975   .     S
Cu1152 O1187   1.972   .     S
Cu1152 N1169   1.975   .     S
Cu1152 O1185   1.968   .     S
H1157  O1176   1.012   .     S
H1158  O1178   1.012   .     S
H1159  O1180   1.012   .     S
H1160  O1183   1.013   .     S
N1170  N329    1.194   1_556 S
C1191  O1255   1.280   .     A
C1191  O1241   1.278   .     A
C1191  C1204   1.431   .     S
C1192  C1217   1.411   .     A
C1192  C1213   1.457   .     S
C1192  C1219   1.406   .     A
C1193  C1199   1.407   .     A
C1193  C1218   1.413   .     A
C1193  C1197   1.412   .     A
C1194  C1219   1.413   .     A
C1194  C1198   1.411   .     A
C1194  C1200   1.407   .     A
C1195  C1201   1.407   .     A
C1195  C1216   1.414   .     A
C1195  C1197   1.412   .     A
C1196  C1203   1.408   .     A
C1196  C1217   1.414   .     A
C1196  C1198   1.411   .     A
C1197  C1128   1.421   1_655 S
C1199  O1260   1.378   .     S
C1199  C1133   1.391   1_655 S
C1200  O1242   1.378   .     S
C1201  O1243   1.377   .     S
C1201  C1130   1.393   1_655 S
C1202  O1252   1.279   .     A
C1202  C1205   1.431   .     S
C1202  O1254   1.279   .     A
C1203  O1244   1.378   .     S
C1205  C924    1.203   1_565 S
C1206  H1223   1.113   .     S
C1206  H1232   1.109   .     S
C1206  O1260   1.413   .     S
C1206  H1231   1.112   .     S
C1207  H1233   1.113   .     S
C1207  H1234   1.112   .     S
C1207  O1242   1.412   .     S
C1207  H1235   1.109   .     S
C1208  H1238   1.109   .     S
C1208  H1237   1.112   .     S
C1208  H1236   1.113   .     S
C1208  O1243   1.412   .     S
C1209  H1225   1.112   .     S
C1209  O1244   1.413   .     S
C1209  H1226   1.109   .     S
C1209  H1224   1.113   .     S
C1210  O1246   1.397   .     S
C1210  C1216   1.483   .     S
C1210  O1245   1.222   .     D
C1211  O1247   1.218   .     D
C1211  C1217   1.492   .     S
C1212  O1250   1.397   .     S
C1212  O1249   1.222   .     D
C1212  C1218   1.483   .     S
C1213  O1259   1.275   .     A
C1213  O1256   1.277   .     A
C1214  O1251   1.223   .     D
C1214  O1253   1.397   .     S
C1214  C1219   1.486   .     S
C1215  C1220   1.457   .     S
C1215  O1258   1.275   .     A
C1215  O1257   1.276   .     A
C1216  C1220   1.404   .     A
C1218  C1220   1.403   .     A
Cu1221 O1256   1.972   .     S
Cu1221 O1254   1.968   .     S
Cu1221 O1258   1.975   .     S
Cu1221 N1240   1.975   .     S
Cu1221 Cu1222  2.629   .     S
Cu1221 O1241   1.968   .     S
Cu1222 O1252   1.968   .     S
Cu1222 O1259   1.975   .     S
Cu1222 O1257   1.972   .     S
Cu1222 N1239   1.975   .     S
Cu1222 O1255   1.968   .     S
H1227  O1246   1.012   .     S
H1228  O1248   1.012   .     S
H1229  O1250   1.012   .     S
H1230  O1253   1.013   .     S
N1240  N399    1.194   1_556 S
