data_str_m2_o1_o18_pcu_sym.178
_audit_creation_date              2020-01-03
_audit_creation_method            'Materials Studio'
_symmetry_space_group_name_H-M    'P1'
_symmetry_Int_Tables_number       1
_symmetry_cell_setting            triclinic
loop_
_symmetry_equiv_pos_as_xyz
  x,y,z
_cell_length_a                    28.5583
_cell_length_b                    32.4237
_cell_length_c                    30.6810
_cell_angle_alpha                 90.1380
_cell_angle_beta                  73.5221
_cell_angle_gamma                 90.3891
loop_
_atom_site_label
_atom_site_type_symbol
_atom_site_fract_x
_atom_site_fract_y
_atom_site_fract_z
_atom_site_U_iso_or_equiv
_atom_site_adp_type
_atom_site_occupancy
C1     C     0.00028   0.08745   0.24836   0.00000  Uiso   1.00
C2     C     0.33307   0.24591   0.25166   0.00000  Uiso   1.00
C3     C     0.19957   0.19177   0.05192   0.00000  Uiso   1.00
C4     C     0.14835   0.22178   0.45870   0.00000  Uiso   1.00
C5     C     0.24789   0.18302   0.02798   0.00000  Uiso   1.00
C6     C     0.09894   0.22638   0.48305   0.00000  Uiso   1.00
C7     C     0.31004   0.01988   0.22086   0.00000  Uiso   1.00
C8     C     0.02385   0.31355   0.27871   0.00000  Uiso   1.00
C9     C     0.30984   0.31048   0.22380   0.00000  Uiso   1.00
C10    C     0.02386   0.02294   0.27587   0.00000  Uiso   1.00
C11    C     0.00003   0.29056   0.25202   0.00000  Uiso   1.00
C12    C     0.00019   0.04283   0.24779   0.00000  Uiso   1.00
C13    C     0.18311   0.13973   0.27668   0.00000  Uiso   1.00
C14    C     0.15005   0.19396   0.22382   0.00000  Uiso   1.00
C15    C     0.13354   0.13967   0.27658   0.00000  Uiso   1.00
C16    C     0.19973   0.19380   0.22358   0.00000  Uiso   1.00
C17    C     0.30570   0.16631   0.33648   0.00000  Uiso   1.00
C18    C     0.02768   0.16830   0.16360   0.00000  Uiso   1.00
C19    C     0.29059   0.16890   0.38641   0.00000  Uiso   1.00
C20    C     0.04362   0.17827   0.11481   0.00000  Uiso   1.00
C21    C     0.31043   0.16909   0.45803   0.00000  Uiso   1.00
C22    C     0.03088   0.21445   0.05011   0.00000  Uiso   1.00
C23    C     0.32493   0.16506   0.41094   0.00000  Uiso   1.00
C24    C     0.01267   0.19906   0.09421   0.00000  Uiso   1.00
C25    C     0.24184   0.17737   0.40965   0.00000  Uiso   1.00
C26    C     0.09274   0.17324   0.09073   0.00000  Uiso   1.00
C27    C     0.22786   0.18666   0.45625   0.00000  Uiso   1.00
C28    C     0.11283   0.19311   0.04896   0.00000  Uiso   1.00
C29    C     0.26201   0.17925   0.48089   0.00000  Uiso   1.00
C30    C     0.08072   0.21096   0.02703   0.00000  Uiso   1.00
C31    C     0.17997   0.20007   0.47965   0.00000  Uiso   1.00
C32    C     0.16377   0.19392   0.02752   0.00000  Uiso   1.00
Cu33   Cu    0.04689   0.16667   0.25000   0.00000  Uiso   1.00
Cu34   Cu    0.28645   0.16666   0.25000   0.00000  Uiso   1.00
H35    H     0.27487   0.17927   0.04624   0.00000  Uiso   1.00
H36    H     0.07432   0.24229   0.46769   0.00000  Uiso   1.00
H37    H     0.11483   0.15311   0.10457   0.00000  Uiso   1.00
H38    H     0.21477   0.17492   0.39153   0.00000  Uiso   1.00
H39    H     0.30818   0.20429   0.11257   0.00000  Uiso   1.00
H40    H     0.02946   0.15832   0.39384   0.00000  Uiso   1.00
H41    H     0.00385   0.16463   0.47652   0.00000  Uiso   1.00
H42    H     0.00636   0.23010   0.03450   0.00000  Uiso   1.00
H43    H     0.29219   0.29238   0.20315   0.00000  Uiso   1.00
H44    H     0.04148   0.04108   0.29649   0.00000  Uiso   1.00
H45    H     0.19512   0.11812   0.29802   0.00000  Uiso   1.00
H46    H     0.13773   0.21603   0.20323   0.00000  Uiso   1.00
H47    H     0.10818   0.11803   0.29787   0.00000  Uiso   1.00
H48    H     0.22503   0.21552   0.20236   0.00000  Uiso   1.00
N49    N     0.11736   0.16668   0.24999   0.00000  Uiso   1.00
N50    N     0.21597   0.16666   0.25001   0.00000  Uiso   1.00
O51    O     0.03958   0.10655   0.25000   0.00000  Uiso   1.00
O52    O     0.29375   0.22678   0.25000   0.00000  Uiso   1.00
O53    O     0.29372   0.10654   0.25000   0.00000  Uiso   1.00
O54    O     0.03961   0.22679   0.25000   0.00000  Uiso   1.00
O55    O     0.01852   0.16668   0.31491   0.00000  Uiso   1.00
O56    O     0.31481   0.16666   0.18508   0.00000  Uiso   1.00
O57    O     0.27267   0.16667   0.31492   0.00000  Uiso   1.00
O58    O     0.06067   0.16667   0.18508   0.00000  Uiso   1.00
C59    C     0.19091   0.20710   0.10063   0.00000  Uiso   1.00
C60    C     0.17316   0.25171   0.10595   0.00000  Uiso   1.00
H61    H     0.19789   0.27157   0.07974   0.00000  Uiso   1.00
H62    H     0.13549   0.25387   0.10284   0.00000  Uiso   1.00
H63    H     0.17304   0.26353   0.13997   0.00000  Uiso   1.00
H64    H     0.16603   0.18721   0.12606   0.00000  Uiso   1.00
H65    H     0.22542   0.20654   0.11051   0.00000  Uiso   1.00
C66    C     0.16623   0.24729   0.41522   0.00000  Uiso   1.00
C67    C     0.20539   0.27877   0.41802   0.00000  Uiso   1.00
H68    H     0.19206   0.29825   0.44884   0.00000  Uiso   1.00
H69    H     0.23964   0.26342   0.41896   0.00000  Uiso   1.00
H70    H     0.21387   0.29904   0.38760   0.00000  Uiso   1.00
H71    H     0.17878   0.22839   0.38422   0.00000  Uiso   1.00
H72    H     0.13558   0.26525   0.40924   0.00000  Uiso   1.00
S73    S     0.28310   0.04291   0.18144   0.00000  Uiso   1.00
O74    O     0.31634   0.07601   0.15522   0.00000  Uiso   1.00
O75    O     0.27444   0.01133   0.14854   0.00000  Uiso   1.00
O76    O     0.22940   0.06409   0.20944   0.00000  Uiso   1.00
H77    H     0.21040   0.04138   0.22797   0.00000  Uiso   1.00
S78    S     0.05115   0.29071   0.31793   0.00000  Uiso   1.00
O79    O     0.09829   0.27064   0.29250   0.00000  Uiso   1.00
O80    O     0.06154   0.32283   0.34945   0.00000  Uiso   1.00
O81    O     0.01310   0.25503   0.34881   0.00000  Uiso   1.00
H82    H     0.02927   0.24562   0.37159   0.00000  Uiso   1.00
C83    C     0.33361   0.08745   0.24836   0.00000  Uiso   1.00
C84    C     0.66641   0.24591   0.25166   0.00000  Uiso   1.00
C85    C     0.53291   0.19177   0.05192   0.00000  Uiso   1.00
C86    C     0.48168   0.22178   0.45870   0.00000  Uiso   1.00
C87    C     0.58122   0.18302   0.02798   0.00000  Uiso   1.00
C88    C     0.43228   0.22638   0.48305   0.00000  Uiso   1.00
C89    C     0.64337   0.01988   0.22086   0.00000  Uiso   1.00
C90    C     0.35718   0.31355   0.27871   0.00000  Uiso   1.00
C91    C     0.64317   0.31048   0.22380   0.00000  Uiso   1.00
C92    C     0.35719   0.02294   0.27587   0.00000  Uiso   1.00
C93    C     0.33336   0.29056   0.25202   0.00000  Uiso   1.00
C94    C     0.33353   0.04283   0.24779   0.00000  Uiso   1.00
C95    C     0.51645   0.13973   0.27668   0.00000  Uiso   1.00
C96    C     0.48339   0.19396   0.22382   0.00000  Uiso   1.00
C97    C     0.46687   0.13967   0.27658   0.00000  Uiso   1.00
C98    C     0.53306   0.19380   0.22358   0.00000  Uiso   1.00
C99    C     0.63903   0.16631   0.33648   0.00000  Uiso   1.00
C100   C     0.36101   0.16830   0.16360   0.00000  Uiso   1.00
C101   C     0.62393   0.16890   0.38641   0.00000  Uiso   1.00
C102   C     0.37696   0.17827   0.11481   0.00000  Uiso   1.00
C103   C     0.64376   0.16909   0.45803   0.00000  Uiso   1.00
C104   C     0.36421   0.21445   0.05011   0.00000  Uiso   1.00
C105   C     0.65826   0.16506   0.41094   0.00000  Uiso   1.00
C106   C     0.34600   0.19906   0.09421   0.00000  Uiso   1.00
C107   C     0.57518   0.17737   0.40965   0.00000  Uiso   1.00
C108   C     0.42608   0.17324   0.09073   0.00000  Uiso   1.00
C109   C     0.56120   0.18666   0.45625   0.00000  Uiso   1.00
C110   C     0.44616   0.19311   0.04896   0.00000  Uiso   1.00
C111   C     0.59534   0.17925   0.48089   0.00000  Uiso   1.00
C112   C     0.41405   0.21096   0.02703   0.00000  Uiso   1.00
C113   C     0.51330   0.20007   0.47965   0.00000  Uiso   1.00
C114   C     0.49711   0.19392   0.02752   0.00000  Uiso   1.00
Cu115  Cu    0.38022   0.16667   0.25000   0.00000  Uiso   1.00
Cu116  Cu    0.61978   0.16666   0.25000   0.00000  Uiso   1.00
H117   H     0.60820   0.17927   0.04624   0.00000  Uiso   1.00
H118   H     0.40765   0.24229   0.46769   0.00000  Uiso   1.00
H119   H     0.44816   0.15311   0.10457   0.00000  Uiso   1.00
H120   H     0.54810   0.17492   0.39153   0.00000  Uiso   1.00
H121   H     0.64151   0.20429   0.11257   0.00000  Uiso   1.00
H122   H     0.36280   0.15832   0.39384   0.00000  Uiso   1.00
H123   H     0.33719   0.16463   0.47652   0.00000  Uiso   1.00
H124   H     0.33970   0.23010   0.03450   0.00000  Uiso   1.00
H125   H     0.62553   0.29238   0.20315   0.00000  Uiso   1.00
H126   H     0.37481   0.04108   0.29649   0.00000  Uiso   1.00
H127   H     0.52845   0.11812   0.29802   0.00000  Uiso   1.00
H128   H     0.47106   0.21603   0.20323   0.00000  Uiso   1.00
H129   H     0.44152   0.11803   0.29787   0.00000  Uiso   1.00
H130   H     0.55836   0.21552   0.20236   0.00000  Uiso   1.00
N131   N     0.45069   0.16668   0.24999   0.00000  Uiso   1.00
N132   N     0.54931   0.16666   0.25001   0.00000  Uiso   1.00
O133   O     0.37291   0.10655   0.25000   0.00000  Uiso   1.00
O134   O     0.62709   0.22678   0.25000   0.00000  Uiso   1.00
O135   O     0.62706   0.10654   0.25000   0.00000  Uiso   1.00
O136   O     0.37294   0.22679   0.25000   0.00000  Uiso   1.00
O137   O     0.35186   0.16668   0.31491   0.00000  Uiso   1.00
O138   O     0.64814   0.16666   0.18508   0.00000  Uiso   1.00
O139   O     0.60600   0.16667   0.31492   0.00000  Uiso   1.00
O140   O     0.39400   0.16667   0.18508   0.00000  Uiso   1.00
C141   C     0.52425   0.20710   0.10063   0.00000  Uiso   1.00
C142   C     0.50649   0.25171   0.10595   0.00000  Uiso   1.00
H143   H     0.53123   0.27157   0.07974   0.00000  Uiso   1.00
H144   H     0.46883   0.25387   0.10284   0.00000  Uiso   1.00
H145   H     0.50638   0.26353   0.13997   0.00000  Uiso   1.00
H146   H     0.49937   0.18721   0.12606   0.00000  Uiso   1.00
H147   H     0.55875   0.20654   0.11051   0.00000  Uiso   1.00
C148   C     0.49956   0.24729   0.41522   0.00000  Uiso   1.00
C149   C     0.53872   0.27877   0.41802   0.00000  Uiso   1.00
H150   H     0.52539   0.29825   0.44884   0.00000  Uiso   1.00
H151   H     0.57298   0.26342   0.41896   0.00000  Uiso   1.00
H152   H     0.54721   0.29904   0.38760   0.00000  Uiso   1.00
H153   H     0.51211   0.22839   0.38422   0.00000  Uiso   1.00
H154   H     0.46891   0.26525   0.40924   0.00000  Uiso   1.00
S155   S     0.61643   0.04291   0.18144   0.00000  Uiso   1.00
O156   O     0.64967   0.07601   0.15522   0.00000  Uiso   1.00
O157   O     0.60777   0.01133   0.14854   0.00000  Uiso   1.00
O158   O     0.56273   0.06409   0.20944   0.00000  Uiso   1.00
H159   H     0.54373   0.04138   0.22797   0.00000  Uiso   1.00
S160   S     0.38448   0.29071   0.31793   0.00000  Uiso   1.00
O161   O     0.43162   0.27064   0.29250   0.00000  Uiso   1.00
O162   O     0.39487   0.32283   0.34945   0.00000  Uiso   1.00
O163   O     0.34644   0.25503   0.34881   0.00000  Uiso   1.00
H164   H     0.36260   0.24562   0.37159   0.00000  Uiso   1.00
C165   C     0.66695   0.08745   0.24836   0.00000  Uiso   1.00
C166   C     0.99974   0.24591   0.25166   0.00000  Uiso   1.00
C167   C     0.86624   0.19177   0.05192   0.00000  Uiso   1.00
C168   C     0.81501   0.22178   0.45870   0.00000  Uiso   1.00
C169   C     0.91455   0.18302   0.02798   0.00000  Uiso   1.00
C170   C     0.76561   0.22638   0.48305   0.00000  Uiso   1.00
C171   C     0.97671   0.01988   0.22086   0.00000  Uiso   1.00
C172   C     0.69051   0.31355   0.27871   0.00000  Uiso   1.00
C173   C     0.97650   0.31048   0.22380   0.00000  Uiso   1.00
C174   C     0.69053   0.02294   0.27587   0.00000  Uiso   1.00
C175   C     0.66670   0.29056   0.25202   0.00000  Uiso   1.00
C176   C     0.66686   0.04283   0.24779   0.00000  Uiso   1.00
C177   C     0.84978   0.13973   0.27668   0.00000  Uiso   1.00
C178   C     0.81672   0.19396   0.22382   0.00000  Uiso   1.00
C179   C     0.80021   0.13967   0.27658   0.00000  Uiso   1.00
C180   C     0.86639   0.19380   0.22358   0.00000  Uiso   1.00
C181   C     0.97237   0.16631   0.33648   0.00000  Uiso   1.00
C182   C     0.69435   0.16830   0.16360   0.00000  Uiso   1.00
C183   C     0.95726   0.16890   0.38641   0.00000  Uiso   1.00
C184   C     0.71029   0.17827   0.11481   0.00000  Uiso   1.00
C185   C     0.97709   0.16909   0.45803   0.00000  Uiso   1.00
C186   C     0.69755   0.21445   0.05011   0.00000  Uiso   1.00
C187   C     0.99160   0.16506   0.41094   0.00000  Uiso   1.00
C188   C     0.67934   0.19906   0.09421   0.00000  Uiso   1.00
C189   C     0.90851   0.17737   0.40965   0.00000  Uiso   1.00
C190   C     0.75941   0.17324   0.09073   0.00000  Uiso   1.00
C191   C     0.89453   0.18666   0.45625   0.00000  Uiso   1.00
C192   C     0.77950   0.19311   0.04896   0.00000  Uiso   1.00
C193   C     0.92867   0.17925   0.48089   0.00000  Uiso   1.00
C194   C     0.74738   0.21096   0.02703   0.00000  Uiso   1.00
C195   C     0.84663   0.20007   0.47965   0.00000  Uiso   1.00
C196   C     0.83044   0.19392   0.02752   0.00000  Uiso   1.00
Cu197  Cu    0.71355   0.16667   0.25000   0.00000  Uiso   1.00
Cu198  Cu    0.95311   0.16666   0.25000   0.00000  Uiso   1.00
H199   H     0.94153   0.17927   0.04624   0.00000  Uiso   1.00
H200   H     0.74099   0.24229   0.46769   0.00000  Uiso   1.00
H201   H     0.78150   0.15311   0.10457   0.00000  Uiso   1.00
H202   H     0.88143   0.17492   0.39153   0.00000  Uiso   1.00
H203   H     0.97485   0.20429   0.11257   0.00000  Uiso   1.00
H204   H     0.69613   0.15832   0.39384   0.00000  Uiso   1.00
H205   H     0.67052   0.16463   0.47652   0.00000  Uiso   1.00
H206   H     0.67303   0.23010   0.03450   0.00000  Uiso   1.00
H207   H     0.95886   0.29238   0.20315   0.00000  Uiso   1.00
H208   H     0.70815   0.04108   0.29649   0.00000  Uiso   1.00
H209   H     0.86179   0.11812   0.29802   0.00000  Uiso   1.00
H210   H     0.80440   0.21603   0.20323   0.00000  Uiso   1.00
H211   H     0.77485   0.11803   0.29787   0.00000  Uiso   1.00
H212   H     0.89169   0.21552   0.20236   0.00000  Uiso   1.00
N213   N     0.78403   0.16668   0.24999   0.00000  Uiso   1.00
N214   N     0.88264   0.16666   0.25001   0.00000  Uiso   1.00
O215   O     0.70625   0.10655   0.25000   0.00000  Uiso   1.00
O216   O     0.96042   0.22678   0.25000   0.00000  Uiso   1.00
O217   O     0.96039   0.10654   0.25000   0.00000  Uiso   1.00
O218   O     0.70628   0.22679   0.25000   0.00000  Uiso   1.00
O219   O     0.68519   0.16668   0.31491   0.00000  Uiso   1.00
O220   O     0.98148   0.16666   0.18508   0.00000  Uiso   1.00
O221   O     0.93933   0.16667   0.31492   0.00000  Uiso   1.00
O222   O     0.72733   0.16667   0.18508   0.00000  Uiso   1.00
C223   C     0.85758   0.20710   0.10063   0.00000  Uiso   1.00
C224   C     0.83983   0.25171   0.10595   0.00000  Uiso   1.00
H225   H     0.86456   0.27157   0.07974   0.00000  Uiso   1.00
H226   H     0.80216   0.25387   0.10284   0.00000  Uiso   1.00
H227   H     0.83971   0.26353   0.13997   0.00000  Uiso   1.00
H228   H     0.83270   0.18721   0.12606   0.00000  Uiso   1.00
H229   H     0.89209   0.20654   0.11051   0.00000  Uiso   1.00
C230   C     0.83289   0.24729   0.41522   0.00000  Uiso   1.00
C231   C     0.87205   0.27877   0.41802   0.00000  Uiso   1.00
H232   H     0.85872   0.29825   0.44884   0.00000  Uiso   1.00
H233   H     0.90631   0.26342   0.41896   0.00000  Uiso   1.00
H234   H     0.88054   0.29904   0.38760   0.00000  Uiso   1.00
H235   H     0.84544   0.22839   0.38422   0.00000  Uiso   1.00
H236   H     0.80225   0.26525   0.40924   0.00000  Uiso   1.00
S237   S     0.94977   0.04291   0.18144   0.00000  Uiso   1.00
O238   O     0.98300   0.07601   0.15522   0.00000  Uiso   1.00
O239   O     0.94111   0.01133   0.14854   0.00000  Uiso   1.00
O240   O     0.89607   0.06409   0.20944   0.00000  Uiso   1.00
H241   H     0.87707   0.04138   0.22797   0.00000  Uiso   1.00
S242   S     0.71781   0.29071   0.31793   0.00000  Uiso   1.00
O243   O     0.76496   0.27064   0.29250   0.00000  Uiso   1.00
O244   O     0.72820   0.32283   0.34945   0.00000  Uiso   1.00
O245   O     0.67977   0.25503   0.34881   0.00000  Uiso   1.00
H246   H     0.69594   0.24562   0.37159   0.00000  Uiso   1.00
C247   C     0.00028   0.42078   0.24836   0.00000  Uiso   1.00
C248   C     0.33307   0.57924   0.25166   0.00000  Uiso   1.00
C249   C     0.19957   0.52510   0.05192   0.00000  Uiso   1.00
C250   C     0.14835   0.55511   0.45870   0.00000  Uiso   1.00
C251   C     0.24789   0.51635   0.02798   0.00000  Uiso   1.00
C252   C     0.09894   0.55971   0.48305   0.00000  Uiso   1.00
C253   C     0.31004   0.35322   0.22086   0.00000  Uiso   1.00
C254   C     0.02385   0.64688   0.27871   0.00000  Uiso   1.00
C255   C     0.30984   0.64381   0.22380   0.00000  Uiso   1.00
C256   C     0.02386   0.35627   0.27587   0.00000  Uiso   1.00
C257   C     0.00003   0.62389   0.25202   0.00000  Uiso   1.00
C258   C     0.00019   0.37616   0.24779   0.00000  Uiso   1.00
C259   C     0.18311   0.47306   0.27668   0.00000  Uiso   1.00
C260   C     0.15005   0.52729   0.22382   0.00000  Uiso   1.00
C261   C     0.13354   0.47300   0.27658   0.00000  Uiso   1.00
C262   C     0.19973   0.52713   0.22358   0.00000  Uiso   1.00
C263   C     0.30570   0.49964   0.33648   0.00000  Uiso   1.00
C264   C     0.02768   0.50164   0.16360   0.00000  Uiso   1.00
C265   C     0.29059   0.50224   0.38641   0.00000  Uiso   1.00
C266   C     0.04362   0.51161   0.11481   0.00000  Uiso   1.00
C267   C     0.31043   0.50242   0.45803   0.00000  Uiso   1.00
C268   C     0.03088   0.54778   0.05011   0.00000  Uiso   1.00
C269   C     0.32493   0.49840   0.41094   0.00000  Uiso   1.00
C270   C     0.01267   0.53240   0.09421   0.00000  Uiso   1.00
C271   C     0.24184   0.51071   0.40965   0.00000  Uiso   1.00
C272   C     0.09274   0.50657   0.09073   0.00000  Uiso   1.00
C273   C     0.22786   0.51999   0.45625   0.00000  Uiso   1.00
C274   C     0.11283   0.52644   0.04896   0.00000  Uiso   1.00
C275   C     0.26201   0.51258   0.48089   0.00000  Uiso   1.00
C276   C     0.08072   0.54430   0.02703   0.00000  Uiso   1.00
C277   C     0.17997   0.53340   0.47965   0.00000  Uiso   1.00
C278   C     0.16377   0.52725   0.02752   0.00000  Uiso   1.00
Cu279  Cu    0.04689   0.50001   0.25000   0.00000  Uiso   1.00
Cu280  Cu    0.28645   0.49999   0.25000   0.00000  Uiso   1.00
H281   H     0.27487   0.51261   0.04624   0.00000  Uiso   1.00
H282   H     0.07432   0.57563   0.46769   0.00000  Uiso   1.00
H283   H     0.11483   0.48645   0.10457   0.00000  Uiso   1.00
H284   H     0.21477   0.50825   0.39153   0.00000  Uiso   1.00
H285   H     0.30818   0.53763   0.11257   0.00000  Uiso   1.00
H286   H     0.02946   0.49166   0.39384   0.00000  Uiso   1.00
H287   H     0.00385   0.49796   0.47652   0.00000  Uiso   1.00
H288   H     0.00636   0.56344   0.03450   0.00000  Uiso   1.00
H289   H     0.29219   0.62571   0.20315   0.00000  Uiso   1.00
H290   H     0.04148   0.37441   0.29649   0.00000  Uiso   1.00
H291   H     0.19512   0.45145   0.29802   0.00000  Uiso   1.00
H292   H     0.13773   0.54936   0.20323   0.00000  Uiso   1.00
H293   H     0.10818   0.45136   0.29787   0.00000  Uiso   1.00
H294   H     0.22503   0.54885   0.20236   0.00000  Uiso   1.00
N295   N     0.11736   0.50001   0.24999   0.00000  Uiso   1.00
N296   N     0.21597   0.49999   0.25001   0.00000  Uiso   1.00
O297   O     0.03958   0.43989   0.25000   0.00000  Uiso   1.00
O298   O     0.29375   0.56011   0.25000   0.00000  Uiso   1.00
O299   O     0.29372   0.43988   0.25000   0.00000  Uiso   1.00
O300   O     0.03961   0.56012   0.25000   0.00000  Uiso   1.00
O301   O     0.01852   0.50001   0.31491   0.00000  Uiso   1.00
O302   O     0.31481   0.49999   0.18508   0.00000  Uiso   1.00
O303   O     0.27267   0.50000   0.31492   0.00000  Uiso   1.00
O304   O     0.06067   0.50000   0.18508   0.00000  Uiso   1.00
C305   C     0.19091   0.54043   0.10063   0.00000  Uiso   1.00
C306   C     0.17316   0.58504   0.10595   0.00000  Uiso   1.00
H307   H     0.19789   0.60490   0.07974   0.00000  Uiso   1.00
H308   H     0.13549   0.58720   0.10284   0.00000  Uiso   1.00
H309   H     0.17304   0.59686   0.13997   0.00000  Uiso   1.00
H310   H     0.16603   0.52055   0.12606   0.00000  Uiso   1.00
H311   H     0.22542   0.53988   0.11051   0.00000  Uiso   1.00
C312   C     0.16623   0.58062   0.41522   0.00000  Uiso   1.00
C313   C     0.20539   0.61211   0.41802   0.00000  Uiso   1.00
H314   H     0.19206   0.63159   0.44884   0.00000  Uiso   1.00
H315   H     0.23964   0.59676   0.41896   0.00000  Uiso   1.00
H316   H     0.21387   0.63237   0.38760   0.00000  Uiso   1.00
H317   H     0.17878   0.56172   0.38422   0.00000  Uiso   1.00
H318   H     0.13558   0.59859   0.40924   0.00000  Uiso   1.00
S319   S     0.28310   0.37624   0.18144   0.00000  Uiso   1.00
O320   O     0.31634   0.40934   0.15522   0.00000  Uiso   1.00
O321   O     0.27444   0.34467   0.14854   0.00000  Uiso   1.00
O322   O     0.22940   0.39743   0.20944   0.00000  Uiso   1.00
H323   H     0.21040   0.37472   0.22797   0.00000  Uiso   1.00
S324   S     0.05115   0.62404   0.31793   0.00000  Uiso   1.00
O325   O     0.09829   0.60397   0.29250   0.00000  Uiso   1.00
O326   O     0.06154   0.65616   0.34945   0.00000  Uiso   1.00
O327   O     0.01310   0.58837   0.34881   0.00000  Uiso   1.00
H328   H     0.02927   0.57895   0.37159   0.00000  Uiso   1.00
C329   C     0.33361   0.42078   0.24836   0.00000  Uiso   1.00
C330   C     0.66641   0.57924   0.25166   0.00000  Uiso   1.00
C331   C     0.53291   0.52510   0.05192   0.00000  Uiso   1.00
C332   C     0.48168   0.55511   0.45870   0.00000  Uiso   1.00
C333   C     0.58122   0.51635   0.02798   0.00000  Uiso   1.00
C334   C     0.43228   0.55971   0.48305   0.00000  Uiso   1.00
C335   C     0.64337   0.35322   0.22086   0.00000  Uiso   1.00
C336   C     0.35718   0.64688   0.27871   0.00000  Uiso   1.00
C337   C     0.64317   0.64381   0.22380   0.00000  Uiso   1.00
C338   C     0.35719   0.35627   0.27587   0.00000  Uiso   1.00
C339   C     0.33336   0.62389   0.25202   0.00000  Uiso   1.00
C340   C     0.33353   0.37616   0.24779   0.00000  Uiso   1.00
C341   C     0.51645   0.47306   0.27668   0.00000  Uiso   1.00
C342   C     0.48339   0.52729   0.22382   0.00000  Uiso   1.00
C343   C     0.46687   0.47300   0.27658   0.00000  Uiso   1.00
C344   C     0.53306   0.52713   0.22358   0.00000  Uiso   1.00
C345   C     0.63903   0.49964   0.33648   0.00000  Uiso   1.00
C346   C     0.36101   0.50164   0.16360   0.00000  Uiso   1.00
C347   C     0.62393   0.50224   0.38641   0.00000  Uiso   1.00
C348   C     0.37696   0.51161   0.11481   0.00000  Uiso   1.00
C349   C     0.64376   0.50242   0.45803   0.00000  Uiso   1.00
C350   C     0.36421   0.54778   0.05011   0.00000  Uiso   1.00
C351   C     0.65826   0.49840   0.41094   0.00000  Uiso   1.00
C352   C     0.34600   0.53240   0.09421   0.00000  Uiso   1.00
C353   C     0.57518   0.51071   0.40965   0.00000  Uiso   1.00
C354   C     0.42608   0.50657   0.09073   0.00000  Uiso   1.00
C355   C     0.56120   0.51999   0.45625   0.00000  Uiso   1.00
C356   C     0.44616   0.52644   0.04896   0.00000  Uiso   1.00
C357   C     0.59534   0.51258   0.48089   0.00000  Uiso   1.00
C358   C     0.41405   0.54430   0.02703   0.00000  Uiso   1.00
C359   C     0.51330   0.53340   0.47965   0.00000  Uiso   1.00
C360   C     0.49711   0.52725   0.02752   0.00000  Uiso   1.00
Cu361  Cu    0.38022   0.50001   0.25000   0.00000  Uiso   1.00
Cu362  Cu    0.61978   0.49999   0.25000   0.00000  Uiso   1.00
H363   H     0.60820   0.51261   0.04624   0.00000  Uiso   1.00
H364   H     0.40765   0.57563   0.46769   0.00000  Uiso   1.00
H365   H     0.44816   0.48645   0.10457   0.00000  Uiso   1.00
H366   H     0.54810   0.50825   0.39153   0.00000  Uiso   1.00
H367   H     0.64151   0.53763   0.11257   0.00000  Uiso   1.00
H368   H     0.36280   0.49166   0.39384   0.00000  Uiso   1.00
H369   H     0.33719   0.49796   0.47652   0.00000  Uiso   1.00
H370   H     0.33970   0.56344   0.03450   0.00000  Uiso   1.00
H371   H     0.62553   0.62571   0.20315   0.00000  Uiso   1.00
H372   H     0.37481   0.37441   0.29649   0.00000  Uiso   1.00
H373   H     0.52845   0.45145   0.29802   0.00000  Uiso   1.00
H374   H     0.47106   0.54936   0.20323   0.00000  Uiso   1.00
H375   H     0.44152   0.45136   0.29787   0.00000  Uiso   1.00
H376   H     0.55836   0.54885   0.20236   0.00000  Uiso   1.00
N377   N     0.45069   0.50001   0.24999   0.00000  Uiso   1.00
N378   N     0.54931   0.49999   0.25001   0.00000  Uiso   1.00
O379   O     0.37291   0.43989   0.25000   0.00000  Uiso   1.00
O380   O     0.62709   0.56011   0.25000   0.00000  Uiso   1.00
O381   O     0.62706   0.43988   0.25000   0.00000  Uiso   1.00
O382   O     0.37294   0.56012   0.25000   0.00000  Uiso   1.00
O383   O     0.35186   0.50001   0.31491   0.00000  Uiso   1.00
O384   O     0.64814   0.49999   0.18508   0.00000  Uiso   1.00
O385   O     0.60600   0.50000   0.31492   0.00000  Uiso   1.00
O386   O     0.39400   0.50000   0.18508   0.00000  Uiso   1.00
C387   C     0.52425   0.54043   0.10063   0.00000  Uiso   1.00
C388   C     0.50649   0.58504   0.10595   0.00000  Uiso   1.00
H389   H     0.53123   0.60490   0.07974   0.00000  Uiso   1.00
H390   H     0.46883   0.58720   0.10284   0.00000  Uiso   1.00
H391   H     0.50638   0.59686   0.13997   0.00000  Uiso   1.00
H392   H     0.49937   0.52055   0.12606   0.00000  Uiso   1.00
H393   H     0.55875   0.53988   0.11051   0.00000  Uiso   1.00
C394   C     0.49956   0.58062   0.41522   0.00000  Uiso   1.00
C395   C     0.53872   0.61211   0.41802   0.00000  Uiso   1.00
H396   H     0.52539   0.63159   0.44884   0.00000  Uiso   1.00
H397   H     0.57298   0.59676   0.41896   0.00000  Uiso   1.00
H398   H     0.54721   0.63237   0.38760   0.00000  Uiso   1.00
H399   H     0.51211   0.56172   0.38422   0.00000  Uiso   1.00
H400   H     0.46891   0.59859   0.40924   0.00000  Uiso   1.00
S401   S     0.61643   0.37624   0.18144   0.00000  Uiso   1.00
O402   O     0.64967   0.40934   0.15522   0.00000  Uiso   1.00
O403   O     0.60777   0.34467   0.14854   0.00000  Uiso   1.00
O404   O     0.56273   0.39743   0.20944   0.00000  Uiso   1.00
H405   H     0.54373   0.37472   0.22797   0.00000  Uiso   1.00
S406   S     0.38448   0.62404   0.31793   0.00000  Uiso   1.00
O407   O     0.43162   0.60397   0.29250   0.00000  Uiso   1.00
O408   O     0.39487   0.65616   0.34945   0.00000  Uiso   1.00
O409   O     0.34644   0.58837   0.34881   0.00000  Uiso   1.00
H410   H     0.36260   0.57895   0.37159   0.00000  Uiso   1.00
C411   C     0.66695   0.42078   0.24836   0.00000  Uiso   1.00
C412   C     0.99974   0.57924   0.25166   0.00000  Uiso   1.00
C413   C     0.86624   0.52510   0.05192   0.00000  Uiso   1.00
C414   C     0.81501   0.55511   0.45870   0.00000  Uiso   1.00
C415   C     0.91455   0.51635   0.02798   0.00000  Uiso   1.00
C416   C     0.76561   0.55971   0.48305   0.00000  Uiso   1.00
C417   C     0.97671   0.35322   0.22086   0.00000  Uiso   1.00
C418   C     0.69051   0.64688   0.27871   0.00000  Uiso   1.00
C419   C     0.97650   0.64381   0.22380   0.00000  Uiso   1.00
C420   C     0.69053   0.35627   0.27587   0.00000  Uiso   1.00
C421   C     0.66670   0.62389   0.25202   0.00000  Uiso   1.00
C422   C     0.66686   0.37616   0.24779   0.00000  Uiso   1.00
C423   C     0.84978   0.47306   0.27668   0.00000  Uiso   1.00
C424   C     0.81672   0.52729   0.22382   0.00000  Uiso   1.00
C425   C     0.80021   0.47300   0.27658   0.00000  Uiso   1.00
C426   C     0.86639   0.52713   0.22358   0.00000  Uiso   1.00
C427   C     0.97237   0.49964   0.33648   0.00000  Uiso   1.00
C428   C     0.69435   0.50164   0.16360   0.00000  Uiso   1.00
C429   C     0.95726   0.50224   0.38641   0.00000  Uiso   1.00
C430   C     0.71029   0.51161   0.11481   0.00000  Uiso   1.00
C431   C     0.97709   0.50242   0.45803   0.00000  Uiso   1.00
C432   C     0.69755   0.54778   0.05011   0.00000  Uiso   1.00
C433   C     0.99160   0.49840   0.41094   0.00000  Uiso   1.00
C434   C     0.67934   0.53240   0.09421   0.00000  Uiso   1.00
C435   C     0.90851   0.51071   0.40965   0.00000  Uiso   1.00
C436   C     0.75941   0.50657   0.09073   0.00000  Uiso   1.00
C437   C     0.89453   0.51999   0.45625   0.00000  Uiso   1.00
C438   C     0.77950   0.52644   0.04896   0.00000  Uiso   1.00
C439   C     0.92867   0.51258   0.48089   0.00000  Uiso   1.00
C440   C     0.74738   0.54430   0.02703   0.00000  Uiso   1.00
C441   C     0.84663   0.53340   0.47965   0.00000  Uiso   1.00
C442   C     0.83044   0.52725   0.02752   0.00000  Uiso   1.00
Cu443  Cu    0.71355   0.50001   0.25000   0.00000  Uiso   1.00
Cu444  Cu    0.95311   0.49999   0.25000   0.00000  Uiso   1.00
H445   H     0.94153   0.51261   0.04624   0.00000  Uiso   1.00
H446   H     0.74099   0.57563   0.46769   0.00000  Uiso   1.00
H447   H     0.78150   0.48645   0.10457   0.00000  Uiso   1.00
H448   H     0.88143   0.50825   0.39153   0.00000  Uiso   1.00
H449   H     0.97485   0.53763   0.11257   0.00000  Uiso   1.00
H450   H     0.69613   0.49166   0.39384   0.00000  Uiso   1.00
H451   H     0.67052   0.49796   0.47652   0.00000  Uiso   1.00
H452   H     0.67303   0.56344   0.03450   0.00000  Uiso   1.00
H453   H     0.95886   0.62571   0.20315   0.00000  Uiso   1.00
H454   H     0.70815   0.37441   0.29649   0.00000  Uiso   1.00
H455   H     0.86179   0.45145   0.29802   0.00000  Uiso   1.00
H456   H     0.80440   0.54936   0.20323   0.00000  Uiso   1.00
H457   H     0.77485   0.45136   0.29787   0.00000  Uiso   1.00
H458   H     0.89169   0.54885   0.20236   0.00000  Uiso   1.00
N459   N     0.78403   0.50001   0.24999   0.00000  Uiso   1.00
N460   N     0.88264   0.49999   0.25001   0.00000  Uiso   1.00
O461   O     0.70625   0.43989   0.25000   0.00000  Uiso   1.00
O462   O     0.96042   0.56011   0.25000   0.00000  Uiso   1.00
O463   O     0.96039   0.43988   0.25000   0.00000  Uiso   1.00
O464   O     0.70628   0.56012   0.25000   0.00000  Uiso   1.00
O465   O     0.68519   0.50001   0.31491   0.00000  Uiso   1.00
O466   O     0.98148   0.49999   0.18508   0.00000  Uiso   1.00
O467   O     0.93933   0.50000   0.31492   0.00000  Uiso   1.00
O468   O     0.72733   0.50000   0.18508   0.00000  Uiso   1.00
C469   C     0.85758   0.54043   0.10063   0.00000  Uiso   1.00
C470   C     0.83983   0.58504   0.10595   0.00000  Uiso   1.00
H471   H     0.86456   0.60490   0.07974   0.00000  Uiso   1.00
H472   H     0.80216   0.58720   0.10284   0.00000  Uiso   1.00
H473   H     0.83971   0.59686   0.13997   0.00000  Uiso   1.00
H474   H     0.83270   0.52055   0.12606   0.00000  Uiso   1.00
H475   H     0.89209   0.53988   0.11051   0.00000  Uiso   1.00
C476   C     0.83289   0.58062   0.41522   0.00000  Uiso   1.00
C477   C     0.87205   0.61211   0.41802   0.00000  Uiso   1.00
H478   H     0.85872   0.63159   0.44884   0.00000  Uiso   1.00
H479   H     0.90631   0.59676   0.41896   0.00000  Uiso   1.00
H480   H     0.88054   0.63237   0.38760   0.00000  Uiso   1.00
H481   H     0.84544   0.56172   0.38422   0.00000  Uiso   1.00
H482   H     0.80225   0.59859   0.40924   0.00000  Uiso   1.00
S483   S     0.94977   0.37624   0.18144   0.00000  Uiso   1.00
O484   O     0.98300   0.40934   0.15522   0.00000  Uiso   1.00
O485   O     0.94111   0.34467   0.14854   0.00000  Uiso   1.00
O486   O     0.89607   0.39743   0.20944   0.00000  Uiso   1.00
H487   H     0.87707   0.37472   0.22797   0.00000  Uiso   1.00
S488   S     0.71781   0.62404   0.31793   0.00000  Uiso   1.00
O489   O     0.76496   0.60397   0.29250   0.00000  Uiso   1.00
O490   O     0.72820   0.65616   0.34945   0.00000  Uiso   1.00
O491   O     0.67977   0.58837   0.34881   0.00000  Uiso   1.00
H492   H     0.69594   0.57895   0.37159   0.00000  Uiso   1.00
C493   C     0.00028   0.75412   0.24836   0.00000  Uiso   1.00
C494   C     0.33307   0.91257   0.25166   0.00000  Uiso   1.00
C495   C     0.19957   0.85843   0.05192   0.00000  Uiso   1.00
C496   C     0.14835   0.88844   0.45870   0.00000  Uiso   1.00
C497   C     0.24789   0.84968   0.02798   0.00000  Uiso   1.00
C498   C     0.09894   0.89305   0.48305   0.00000  Uiso   1.00
C499   C     0.31004   0.68655   0.22086   0.00000  Uiso   1.00
C500   C     0.02385   0.98022   0.27871   0.00000  Uiso   1.00
C501   C     0.30984   0.97714   0.22380   0.00000  Uiso   1.00
C502   C     0.02386   0.68960   0.27587   0.00000  Uiso   1.00
C503   C     0.00003   0.95722   0.25202   0.00000  Uiso   1.00
C504   C     0.00019   0.70950   0.24779   0.00000  Uiso   1.00
C505   C     0.18311   0.80640   0.27668   0.00000  Uiso   1.00
C506   C     0.15005   0.86063   0.22382   0.00000  Uiso   1.00
C507   C     0.13354   0.80633   0.27658   0.00000  Uiso   1.00
C508   C     0.19973   0.86046   0.22358   0.00000  Uiso   1.00
C509   C     0.30570   0.83298   0.33648   0.00000  Uiso   1.00
C510   C     0.02768   0.83497   0.16360   0.00000  Uiso   1.00
C511   C     0.29059   0.83557   0.38641   0.00000  Uiso   1.00
C512   C     0.04362   0.84494   0.11481   0.00000  Uiso   1.00
C513   C     0.31043   0.83576   0.45803   0.00000  Uiso   1.00
C514   C     0.03088   0.88111   0.05011   0.00000  Uiso   1.00
C515   C     0.32493   0.83173   0.41094   0.00000  Uiso   1.00
C516   C     0.01267   0.86573   0.09421   0.00000  Uiso   1.00
C517   C     0.24184   0.84404   0.40965   0.00000  Uiso   1.00
C518   C     0.09274   0.83991   0.09073   0.00000  Uiso   1.00
C519   C     0.22786   0.85332   0.45625   0.00000  Uiso   1.00
C520   C     0.11283   0.85978   0.04896   0.00000  Uiso   1.00
C521   C     0.26201   0.84592   0.48089   0.00000  Uiso   1.00
C522   C     0.08072   0.87763   0.02703   0.00000  Uiso   1.00
C523   C     0.17997   0.86674   0.47965   0.00000  Uiso   1.00
C524   C     0.16377   0.86058   0.02752   0.00000  Uiso   1.00
Cu525  Cu    0.04689   0.83334   0.25000   0.00000  Uiso   1.00
Cu526  Cu    0.28645   0.83333   0.25000   0.00000  Uiso   1.00
H527   H     0.27487   0.84594   0.04624   0.00000  Uiso   1.00
H528   H     0.07432   0.90896   0.46769   0.00000  Uiso   1.00
H529   H     0.11483   0.81978   0.10457   0.00000  Uiso   1.00
H530   H     0.21477   0.84158   0.39153   0.00000  Uiso   1.00
H531   H     0.30818   0.87096   0.11257   0.00000  Uiso   1.00
H532   H     0.02946   0.82499   0.39384   0.00000  Uiso   1.00
H533   H     0.00385   0.83130   0.47652   0.00000  Uiso   1.00
H534   H     0.00636   0.89677   0.03450   0.00000  Uiso   1.00
H535   H     0.29219   0.95905   0.20315   0.00000  Uiso   1.00
H536   H     0.04148   0.70775   0.29649   0.00000  Uiso   1.00
H537   H     0.19512   0.78479   0.29802   0.00000  Uiso   1.00
H538   H     0.13773   0.88269   0.20323   0.00000  Uiso   1.00
H539   H     0.10818   0.78470   0.29787   0.00000  Uiso   1.00
H540   H     0.22503   0.88218   0.20236   0.00000  Uiso   1.00
N541   N     0.11736   0.83334   0.24999   0.00000  Uiso   1.00
N542   N     0.21597   0.83332   0.25001   0.00000  Uiso   1.00
O543   O     0.03958   0.77322   0.25000   0.00000  Uiso   1.00
O544   O     0.29375   0.89345   0.25000   0.00000  Uiso   1.00
O545   O     0.29372   0.77321   0.25000   0.00000  Uiso   1.00
O546   O     0.03961   0.89346   0.25000   0.00000  Uiso   1.00
O547   O     0.01852   0.83334   0.31491   0.00000  Uiso   1.00
O548   O     0.31481   0.83332   0.18508   0.00000  Uiso   1.00
O549   O     0.27267   0.83333   0.31492   0.00000  Uiso   1.00
O550   O     0.06067   0.83333   0.18508   0.00000  Uiso   1.00
C551   C     0.19091   0.87376   0.10063   0.00000  Uiso   1.00
C552   C     0.17316   0.91837   0.10595   0.00000  Uiso   1.00
H553   H     0.19789   0.93823   0.07974   0.00000  Uiso   1.00
H554   H     0.13549   0.92053   0.10284   0.00000  Uiso   1.00
H555   H     0.17304   0.93019   0.13997   0.00000  Uiso   1.00
H556   H     0.16603   0.85388   0.12606   0.00000  Uiso   1.00
H557   H     0.22542   0.87321   0.11051   0.00000  Uiso   1.00
C558   C     0.16623   0.91396   0.41522   0.00000  Uiso   1.00
C559   C     0.20539   0.94544   0.41802   0.00000  Uiso   1.00
H560   H     0.19206   0.96492   0.44884   0.00000  Uiso   1.00
H561   H     0.23964   0.93009   0.41896   0.00000  Uiso   1.00
H562   H     0.21387   0.96570   0.38760   0.00000  Uiso   1.00
H563   H     0.17878   0.89506   0.38422   0.00000  Uiso   1.00
H564   H     0.13558   0.93192   0.40924   0.00000  Uiso   1.00
S565   S     0.28310   0.70957   0.18144   0.00000  Uiso   1.00
O566   O     0.31634   0.74267   0.15522   0.00000  Uiso   1.00
O567   O     0.27444   0.67800   0.14854   0.00000  Uiso   1.00
O568   O     0.22940   0.73076   0.20944   0.00000  Uiso   1.00
H569   H     0.21040   0.70805   0.22797   0.00000  Uiso   1.00
S570   S     0.05115   0.95738   0.31793   0.00000  Uiso   1.00
O571   O     0.09829   0.93730   0.29250   0.00000  Uiso   1.00
O572   O     0.06154   0.98949   0.34945   0.00000  Uiso   1.00
O573   O     0.01310   0.92170   0.34881   0.00000  Uiso   1.00
H574   H     0.02927   0.91228   0.37159   0.00000  Uiso   1.00
C575   C     0.33361   0.75412   0.24836   0.00000  Uiso   1.00
C576   C     0.66641   0.91257   0.25166   0.00000  Uiso   1.00
C577   C     0.53291   0.85843   0.05192   0.00000  Uiso   1.00
C578   C     0.48168   0.88844   0.45870   0.00000  Uiso   1.00
C579   C     0.58122   0.84968   0.02798   0.00000  Uiso   1.00
C580   C     0.43228   0.89305   0.48305   0.00000  Uiso   1.00
C581   C     0.64337   0.68655   0.22086   0.00000  Uiso   1.00
C582   C     0.35718   0.98022   0.27871   0.00000  Uiso   1.00
C583   C     0.64317   0.97714   0.22380   0.00000  Uiso   1.00
C584   C     0.35719   0.68960   0.27587   0.00000  Uiso   1.00
C585   C     0.33336   0.95722   0.25202   0.00000  Uiso   1.00
C586   C     0.33353   0.70950   0.24779   0.00000  Uiso   1.00
C587   C     0.51645   0.80640   0.27668   0.00000  Uiso   1.00
C588   C     0.48339   0.86063   0.22382   0.00000  Uiso   1.00
C589   C     0.46687   0.80633   0.27658   0.00000  Uiso   1.00
C590   C     0.53306   0.86046   0.22358   0.00000  Uiso   1.00
C591   C     0.63903   0.83298   0.33648   0.00000  Uiso   1.00
C592   C     0.36101   0.83497   0.16360   0.00000  Uiso   1.00
C593   C     0.62393   0.83557   0.38641   0.00000  Uiso   1.00
C594   C     0.37696   0.84494   0.11481   0.00000  Uiso   1.00
C595   C     0.64376   0.83576   0.45803   0.00000  Uiso   1.00
C596   C     0.36421   0.88111   0.05011   0.00000  Uiso   1.00
C597   C     0.65826   0.83173   0.41094   0.00000  Uiso   1.00
C598   C     0.34600   0.86573   0.09421   0.00000  Uiso   1.00
C599   C     0.57518   0.84404   0.40965   0.00000  Uiso   1.00
C600   C     0.42608   0.83991   0.09073   0.00000  Uiso   1.00
C601   C     0.56120   0.85332   0.45625   0.00000  Uiso   1.00
C602   C     0.44616   0.85978   0.04896   0.00000  Uiso   1.00
C603   C     0.59534   0.84592   0.48089   0.00000  Uiso   1.00
C604   C     0.41405   0.87763   0.02703   0.00000  Uiso   1.00
C605   C     0.51330   0.86674   0.47965   0.00000  Uiso   1.00
C606   C     0.49711   0.86058   0.02752   0.00000  Uiso   1.00
Cu607  Cu    0.38022   0.83334   0.25000   0.00000  Uiso   1.00
Cu608  Cu    0.61978   0.83333   0.25000   0.00000  Uiso   1.00
H609   H     0.60820   0.84594   0.04624   0.00000  Uiso   1.00
H610   H     0.40765   0.90896   0.46769   0.00000  Uiso   1.00
H611   H     0.44816   0.81978   0.10457   0.00000  Uiso   1.00
H612   H     0.54810   0.84158   0.39153   0.00000  Uiso   1.00
H613   H     0.64151   0.87096   0.11257   0.00000  Uiso   1.00
H614   H     0.36280   0.82499   0.39384   0.00000  Uiso   1.00
H615   H     0.33719   0.83130   0.47652   0.00000  Uiso   1.00
H616   H     0.33970   0.89677   0.03450   0.00000  Uiso   1.00
H617   H     0.62553   0.95905   0.20315   0.00000  Uiso   1.00
H618   H     0.37481   0.70775   0.29649   0.00000  Uiso   1.00
H619   H     0.52845   0.78479   0.29802   0.00000  Uiso   1.00
H620   H     0.47106   0.88269   0.20323   0.00000  Uiso   1.00
H621   H     0.44152   0.78470   0.29787   0.00000  Uiso   1.00
H622   H     0.55836   0.88218   0.20236   0.00000  Uiso   1.00
N623   N     0.45069   0.83334   0.24999   0.00000  Uiso   1.00
N624   N     0.54931   0.83332   0.25001   0.00000  Uiso   1.00
O625   O     0.37291   0.77322   0.25000   0.00000  Uiso   1.00
O626   O     0.62709   0.89345   0.25000   0.00000  Uiso   1.00
O627   O     0.62706   0.77321   0.25000   0.00000  Uiso   1.00
O628   O     0.37294   0.89346   0.25000   0.00000  Uiso   1.00
O629   O     0.35186   0.83334   0.31491   0.00000  Uiso   1.00
O630   O     0.64814   0.83332   0.18508   0.00000  Uiso   1.00
O631   O     0.60600   0.83333   0.31492   0.00000  Uiso   1.00
O632   O     0.39400   0.83333   0.18508   0.00000  Uiso   1.00
C633   C     0.52425   0.87376   0.10063   0.00000  Uiso   1.00
C634   C     0.50649   0.91837   0.10595   0.00000  Uiso   1.00
H635   H     0.53123   0.93823   0.07974   0.00000  Uiso   1.00
H636   H     0.46883   0.92053   0.10284   0.00000  Uiso   1.00
H637   H     0.50638   0.93019   0.13997   0.00000  Uiso   1.00
H638   H     0.49937   0.85388   0.12606   0.00000  Uiso   1.00
H639   H     0.55875   0.87321   0.11051   0.00000  Uiso   1.00
C640   C     0.49956   0.91396   0.41522   0.00000  Uiso   1.00
C641   C     0.53872   0.94544   0.41802   0.00000  Uiso   1.00
H642   H     0.52539   0.96492   0.44884   0.00000  Uiso   1.00
H643   H     0.57298   0.93009   0.41896   0.00000  Uiso   1.00
H644   H     0.54721   0.96570   0.38760   0.00000  Uiso   1.00
H645   H     0.51211   0.89506   0.38422   0.00000  Uiso   1.00
H646   H     0.46891   0.93192   0.40924   0.00000  Uiso   1.00
S647   S     0.61643   0.70957   0.18144   0.00000  Uiso   1.00
O648   O     0.64967   0.74267   0.15522   0.00000  Uiso   1.00
O649   O     0.60777   0.67800   0.14854   0.00000  Uiso   1.00
O650   O     0.56273   0.73076   0.20944   0.00000  Uiso   1.00
H651   H     0.54373   0.70805   0.22797   0.00000  Uiso   1.00
S652   S     0.38448   0.95738   0.31793   0.00000  Uiso   1.00
O653   O     0.43162   0.93730   0.29250   0.00000  Uiso   1.00
O654   O     0.39487   0.98949   0.34945   0.00000  Uiso   1.00
O655   O     0.34644   0.92170   0.34881   0.00000  Uiso   1.00
H656   H     0.36260   0.91228   0.37159   0.00000  Uiso   1.00
C657   C     0.66695   0.75412   0.24836   0.00000  Uiso   1.00
C658   C     0.99974   0.91257   0.25166   0.00000  Uiso   1.00
C659   C     0.86624   0.85843   0.05192   0.00000  Uiso   1.00
C660   C     0.81501   0.88844   0.45870   0.00000  Uiso   1.00
C661   C     0.91455   0.84968   0.02798   0.00000  Uiso   1.00
C662   C     0.76561   0.89305   0.48305   0.00000  Uiso   1.00
C663   C     0.97671   0.68655   0.22086   0.00000  Uiso   1.00
C664   C     0.69051   0.98022   0.27871   0.00000  Uiso   1.00
C665   C     0.97650   0.97714   0.22380   0.00000  Uiso   1.00
C666   C     0.69053   0.68960   0.27587   0.00000  Uiso   1.00
C667   C     0.66670   0.95722   0.25202   0.00000  Uiso   1.00
C668   C     0.66686   0.70950   0.24779   0.00000  Uiso   1.00
C669   C     0.84978   0.80640   0.27668   0.00000  Uiso   1.00
C670   C     0.81672   0.86063   0.22382   0.00000  Uiso   1.00
C671   C     0.80021   0.80633   0.27658   0.00000  Uiso   1.00
C672   C     0.86639   0.86046   0.22358   0.00000  Uiso   1.00
C673   C     0.97237   0.83298   0.33648   0.00000  Uiso   1.00
C674   C     0.69435   0.83497   0.16360   0.00000  Uiso   1.00
C675   C     0.95726   0.83557   0.38641   0.00000  Uiso   1.00
C676   C     0.71029   0.84494   0.11481   0.00000  Uiso   1.00
C677   C     0.97709   0.83576   0.45803   0.00000  Uiso   1.00
C678   C     0.69755   0.88111   0.05011   0.00000  Uiso   1.00
C679   C     0.99160   0.83173   0.41094   0.00000  Uiso   1.00
C680   C     0.67934   0.86573   0.09421   0.00000  Uiso   1.00
C681   C     0.90851   0.84404   0.40965   0.00000  Uiso   1.00
C682   C     0.75941   0.83991   0.09073   0.00000  Uiso   1.00
C683   C     0.89453   0.85332   0.45625   0.00000  Uiso   1.00
C684   C     0.77950   0.85978   0.04896   0.00000  Uiso   1.00
C685   C     0.92867   0.84592   0.48089   0.00000  Uiso   1.00
C686   C     0.74738   0.87763   0.02703   0.00000  Uiso   1.00
C687   C     0.84663   0.86674   0.47965   0.00000  Uiso   1.00
C688   C     0.83044   0.86058   0.02752   0.00000  Uiso   1.00
Cu689  Cu    0.71355   0.83334   0.25000   0.00000  Uiso   1.00
Cu690  Cu    0.95311   0.83333   0.25000   0.00000  Uiso   1.00
H691   H     0.94153   0.84594   0.04624   0.00000  Uiso   1.00
H692   H     0.74099   0.90896   0.46769   0.00000  Uiso   1.00
H693   H     0.78150   0.81978   0.10457   0.00000  Uiso   1.00
H694   H     0.88143   0.84158   0.39153   0.00000  Uiso   1.00
H695   H     0.97485   0.87096   0.11257   0.00000  Uiso   1.00
H696   H     0.69613   0.82499   0.39384   0.00000  Uiso   1.00
H697   H     0.67052   0.83130   0.47652   0.00000  Uiso   1.00
H698   H     0.67303   0.89677   0.03450   0.00000  Uiso   1.00
H699   H     0.95886   0.95905   0.20315   0.00000  Uiso   1.00
H700   H     0.70815   0.70775   0.29649   0.00000  Uiso   1.00
H701   H     0.86179   0.78479   0.29802   0.00000  Uiso   1.00
H702   H     0.80440   0.88269   0.20323   0.00000  Uiso   1.00
H703   H     0.77485   0.78470   0.29787   0.00000  Uiso   1.00
H704   H     0.89169   0.88218   0.20236   0.00000  Uiso   1.00
N705   N     0.78403   0.83334   0.24999   0.00000  Uiso   1.00
N706   N     0.88264   0.83332   0.25001   0.00000  Uiso   1.00
O707   O     0.70625   0.77322   0.25000   0.00000  Uiso   1.00
O708   O     0.96042   0.89345   0.25000   0.00000  Uiso   1.00
O709   O     0.96039   0.77321   0.25000   0.00000  Uiso   1.00
O710   O     0.70628   0.89346   0.25000   0.00000  Uiso   1.00
O711   O     0.68519   0.83334   0.31491   0.00000  Uiso   1.00
O712   O     0.98148   0.83332   0.18508   0.00000  Uiso   1.00
O713   O     0.93933   0.83333   0.31492   0.00000  Uiso   1.00
O714   O     0.72733   0.83333   0.18508   0.00000  Uiso   1.00
C715   C     0.85758   0.87376   0.10063   0.00000  Uiso   1.00
C716   C     0.83983   0.91837   0.10595   0.00000  Uiso   1.00
H717   H     0.86456   0.93823   0.07974   0.00000  Uiso   1.00
H718   H     0.80216   0.92053   0.10284   0.00000  Uiso   1.00
H719   H     0.83971   0.93019   0.13997   0.00000  Uiso   1.00
H720   H     0.83270   0.85388   0.12606   0.00000  Uiso   1.00
H721   H     0.89209   0.87321   0.11051   0.00000  Uiso   1.00
C722   C     0.83289   0.91396   0.41522   0.00000  Uiso   1.00
C723   C     0.87205   0.94544   0.41802   0.00000  Uiso   1.00
H724   H     0.85872   0.96492   0.44884   0.00000  Uiso   1.00
H725   H     0.90631   0.93009   0.41896   0.00000  Uiso   1.00
H726   H     0.88054   0.96570   0.38760   0.00000  Uiso   1.00
H727   H     0.84544   0.89506   0.38422   0.00000  Uiso   1.00
H728   H     0.80225   0.93192   0.40924   0.00000  Uiso   1.00
S729   S     0.94977   0.70957   0.18144   0.00000  Uiso   1.00
O730   O     0.98300   0.74267   0.15522   0.00000  Uiso   1.00
O731   O     0.94111   0.67800   0.14854   0.00000  Uiso   1.00
O732   O     0.89607   0.73076   0.20944   0.00000  Uiso   1.00
H733   H     0.87707   0.70805   0.22797   0.00000  Uiso   1.00
S734   S     0.71781   0.95738   0.31793   0.00000  Uiso   1.00
O735   O     0.76496   0.93730   0.29250   0.00000  Uiso   1.00
O736   O     0.72820   0.98949   0.34945   0.00000  Uiso   1.00
O737   O     0.67977   0.92170   0.34881   0.00000  Uiso   1.00
H738   H     0.69594   0.91228   0.37159   0.00000  Uiso   1.00
C739   C     0.00028   0.08745   0.74836   0.00000  Uiso   1.00
C740   C     0.33307   0.24591   0.75166   0.00000  Uiso   1.00
C741   C     0.19957   0.19177   0.55192   0.00000  Uiso   1.00
C742   C     0.14835   0.22178   0.95870   0.00000  Uiso   1.00
C743   C     0.24789   0.18302   0.52798   0.00000  Uiso   1.00
C744   C     0.09894   0.22638   0.98305   0.00000  Uiso   1.00
C745   C     0.31004   0.01988   0.72086   0.00000  Uiso   1.00
C746   C     0.02385   0.31355   0.77871   0.00000  Uiso   1.00
C747   C     0.30984   0.31048   0.72380   0.00000  Uiso   1.00
C748   C     0.02386   0.02294   0.77587   0.00000  Uiso   1.00
C749   C     0.00003   0.29056   0.75202   0.00000  Uiso   1.00
C750   C     0.00019   0.04283   0.74779   0.00000  Uiso   1.00
C751   C     0.18311   0.13973   0.77668   0.00000  Uiso   1.00
C752   C     0.15005   0.19396   0.72382   0.00000  Uiso   1.00
C753   C     0.13354   0.13967   0.77658   0.00000  Uiso   1.00
C754   C     0.19973   0.19380   0.72358   0.00000  Uiso   1.00
C755   C     0.30570   0.16631   0.83648   0.00000  Uiso   1.00
C756   C     0.02768   0.16830   0.66360   0.00000  Uiso   1.00
C757   C     0.29059   0.16890   0.88641   0.00000  Uiso   1.00
C758   C     0.04362   0.17827   0.61481   0.00000  Uiso   1.00
C759   C     0.31043   0.16909   0.95803   0.00000  Uiso   1.00
C760   C     0.03088   0.21445   0.55011   0.00000  Uiso   1.00
C761   C     0.32493   0.16506   0.91094   0.00000  Uiso   1.00
C762   C     0.01267   0.19906   0.59421   0.00000  Uiso   1.00
C763   C     0.24184   0.17737   0.90965   0.00000  Uiso   1.00
C764   C     0.09274   0.17324   0.59073   0.00000  Uiso   1.00
C765   C     0.22786   0.18666   0.95625   0.00000  Uiso   1.00
C766   C     0.11283   0.19311   0.54896   0.00000  Uiso   1.00
C767   C     0.26201   0.17925   0.98089   0.00000  Uiso   1.00
C768   C     0.08072   0.21096   0.52703   0.00000  Uiso   1.00
C769   C     0.17997   0.20007   0.97965   0.00000  Uiso   1.00
C770   C     0.16377   0.19392   0.52752   0.00000  Uiso   1.00
Cu771  Cu    0.04689   0.16667   0.75000   0.00000  Uiso   1.00
Cu772  Cu    0.28645   0.16666   0.75000   0.00000  Uiso   1.00
H773   H     0.27487   0.17927   0.54624   0.00000  Uiso   1.00
H774   H     0.07432   0.24229   0.96769   0.00000  Uiso   1.00
H775   H     0.11483   0.15311   0.60457   0.00000  Uiso   1.00
H776   H     0.21477   0.17492   0.89153   0.00000  Uiso   1.00
H777   H     0.30818   0.20429   0.61257   0.00000  Uiso   1.00
H778   H     0.02946   0.15832   0.89384   0.00000  Uiso   1.00
H779   H     0.00385   0.16463   0.97652   0.00000  Uiso   1.00
H780   H     0.00636   0.23010   0.53450   0.00000  Uiso   1.00
H781   H     0.29219   0.29238   0.70315   0.00000  Uiso   1.00
H782   H     0.04148   0.04108   0.79649   0.00000  Uiso   1.00
H783   H     0.19512   0.11812   0.79802   0.00000  Uiso   1.00
H784   H     0.13773   0.21603   0.70323   0.00000  Uiso   1.00
H785   H     0.10818   0.11803   0.79787   0.00000  Uiso   1.00
H786   H     0.22503   0.21552   0.70236   0.00000  Uiso   1.00
N787   N     0.11736   0.16668   0.74999   0.00000  Uiso   1.00
N788   N     0.21597   0.16666   0.75001   0.00000  Uiso   1.00
O789   O     0.03958   0.10655   0.75000   0.00000  Uiso   1.00
O790   O     0.29375   0.22678   0.75000   0.00000  Uiso   1.00
O791   O     0.29372   0.10654   0.75000   0.00000  Uiso   1.00
O792   O     0.03961   0.22679   0.75000   0.00000  Uiso   1.00
O793   O     0.01852   0.16668   0.81491   0.00000  Uiso   1.00
O794   O     0.31481   0.16666   0.68508   0.00000  Uiso   1.00
O795   O     0.27267   0.16667   0.81492   0.00000  Uiso   1.00
O796   O     0.06067   0.16667   0.68508   0.00000  Uiso   1.00
C797   C     0.19091   0.20710   0.60063   0.00000  Uiso   1.00
C798   C     0.17316   0.25171   0.60595   0.00000  Uiso   1.00
H799   H     0.19789   0.27157   0.57974   0.00000  Uiso   1.00
H800   H     0.13549   0.25387   0.60284   0.00000  Uiso   1.00
H801   H     0.17304   0.26353   0.63997   0.00000  Uiso   1.00
H802   H     0.16603   0.18721   0.62606   0.00000  Uiso   1.00
H803   H     0.22542   0.20654   0.61051   0.00000  Uiso   1.00
C804   C     0.16623   0.24729   0.91522   0.00000  Uiso   1.00
C805   C     0.20539   0.27877   0.91802   0.00000  Uiso   1.00
H806   H     0.19206   0.29825   0.94884   0.00000  Uiso   1.00
H807   H     0.23964   0.26342   0.91896   0.00000  Uiso   1.00
H808   H     0.21387   0.29904   0.88760   0.00000  Uiso   1.00
H809   H     0.17878   0.22839   0.88422   0.00000  Uiso   1.00
H810   H     0.13558   0.26525   0.90924   0.00000  Uiso   1.00
S811   S     0.28310   0.04291   0.68144   0.00000  Uiso   1.00
O812   O     0.31634   0.07601   0.65522   0.00000  Uiso   1.00
O813   O     0.27444   0.01133   0.64854   0.00000  Uiso   1.00
O814   O     0.22940   0.06409   0.70944   0.00000  Uiso   1.00
H815   H     0.21040   0.04138   0.72797   0.00000  Uiso   1.00
S816   S     0.05115   0.29071   0.81793   0.00000  Uiso   1.00
O817   O     0.09829   0.27064   0.79250   0.00000  Uiso   1.00
O818   O     0.06154   0.32283   0.84945   0.00000  Uiso   1.00
O819   O     0.01310   0.25503   0.84881   0.00000  Uiso   1.00
H820   H     0.02927   0.24562   0.87159   0.00000  Uiso   1.00
C821   C     0.33361   0.08745   0.74836   0.00000  Uiso   1.00
C822   C     0.66641   0.24591   0.75166   0.00000  Uiso   1.00
C823   C     0.53291   0.19177   0.55192   0.00000  Uiso   1.00
C824   C     0.48168   0.22178   0.95870   0.00000  Uiso   1.00
C825   C     0.58122   0.18302   0.52798   0.00000  Uiso   1.00
C826   C     0.43228   0.22638   0.98305   0.00000  Uiso   1.00
C827   C     0.64337   0.01988   0.72086   0.00000  Uiso   1.00
C828   C     0.35718   0.31355   0.77871   0.00000  Uiso   1.00
C829   C     0.64317   0.31048   0.72380   0.00000  Uiso   1.00
C830   C     0.35719   0.02294   0.77587   0.00000  Uiso   1.00
C831   C     0.33336   0.29056   0.75202   0.00000  Uiso   1.00
C832   C     0.33353   0.04283   0.74779   0.00000  Uiso   1.00
C833   C     0.51645   0.13973   0.77668   0.00000  Uiso   1.00
C834   C     0.48339   0.19396   0.72382   0.00000  Uiso   1.00
C835   C     0.46687   0.13967   0.77658   0.00000  Uiso   1.00
C836   C     0.53306   0.19380   0.72358   0.00000  Uiso   1.00
C837   C     0.63903   0.16631   0.83648   0.00000  Uiso   1.00
C838   C     0.36101   0.16830   0.66360   0.00000  Uiso   1.00
C839   C     0.62393   0.16890   0.88641   0.00000  Uiso   1.00
C840   C     0.37696   0.17827   0.61481   0.00000  Uiso   1.00
C841   C     0.64376   0.16909   0.95803   0.00000  Uiso   1.00
C842   C     0.36421   0.21445   0.55011   0.00000  Uiso   1.00
C843   C     0.65826   0.16506   0.91094   0.00000  Uiso   1.00
C844   C     0.34600   0.19906   0.59421   0.00000  Uiso   1.00
C845   C     0.57518   0.17737   0.90965   0.00000  Uiso   1.00
C846   C     0.42608   0.17324   0.59073   0.00000  Uiso   1.00
C847   C     0.56120   0.18666   0.95625   0.00000  Uiso   1.00
C848   C     0.44616   0.19311   0.54896   0.00000  Uiso   1.00
C849   C     0.59534   0.17925   0.98089   0.00000  Uiso   1.00
C850   C     0.41405   0.21096   0.52703   0.00000  Uiso   1.00
C851   C     0.51330   0.20007   0.97965   0.00000  Uiso   1.00
C852   C     0.49711   0.19392   0.52752   0.00000  Uiso   1.00
Cu853  Cu    0.38022   0.16667   0.75000   0.00000  Uiso   1.00
Cu854  Cu    0.61978   0.16666   0.75000   0.00000  Uiso   1.00
H855   H     0.60820   0.17927   0.54624   0.00000  Uiso   1.00
H856   H     0.40765   0.24229   0.96769   0.00000  Uiso   1.00
H857   H     0.44816   0.15311   0.60457   0.00000  Uiso   1.00
H858   H     0.54810   0.17492   0.89153   0.00000  Uiso   1.00
H859   H     0.64151   0.20429   0.61257   0.00000  Uiso   1.00
H860   H     0.36280   0.15832   0.89384   0.00000  Uiso   1.00
H861   H     0.33719   0.16463   0.97652   0.00000  Uiso   1.00
H862   H     0.33970   0.23010   0.53450   0.00000  Uiso   1.00
H863   H     0.62553   0.29238   0.70315   0.00000  Uiso   1.00
H864   H     0.37481   0.04108   0.79649   0.00000  Uiso   1.00
H865   H     0.52845   0.11812   0.79802   0.00000  Uiso   1.00
H866   H     0.47106   0.21603   0.70323   0.00000  Uiso   1.00
H867   H     0.44152   0.11803   0.79787   0.00000  Uiso   1.00
H868   H     0.55836   0.21552   0.70236   0.00000  Uiso   1.00
N869   N     0.45069   0.16668   0.74999   0.00000  Uiso   1.00
N870   N     0.54931   0.16666   0.75001   0.00000  Uiso   1.00
O871   O     0.37291   0.10655   0.75000   0.00000  Uiso   1.00
O872   O     0.62709   0.22678   0.75000   0.00000  Uiso   1.00
O873   O     0.62706   0.10654   0.75000   0.00000  Uiso   1.00
O874   O     0.37294   0.22679   0.75000   0.00000  Uiso   1.00
O875   O     0.35186   0.16668   0.81491   0.00000  Uiso   1.00
O876   O     0.64814   0.16666   0.68508   0.00000  Uiso   1.00
O877   O     0.60600   0.16667   0.81492   0.00000  Uiso   1.00
O878   O     0.39400   0.16667   0.68508   0.00000  Uiso   1.00
C879   C     0.52425   0.20710   0.60063   0.00000  Uiso   1.00
C880   C     0.50649   0.25171   0.60595   0.00000  Uiso   1.00
H881   H     0.53123   0.27157   0.57974   0.00000  Uiso   1.00
H882   H     0.46883   0.25387   0.60284   0.00000  Uiso   1.00
H883   H     0.50638   0.26353   0.63997   0.00000  Uiso   1.00
H884   H     0.49937   0.18721   0.62606   0.00000  Uiso   1.00
H885   H     0.55875   0.20654   0.61051   0.00000  Uiso   1.00
C886   C     0.49956   0.24729   0.91522   0.00000  Uiso   1.00
C887   C     0.53872   0.27877   0.91802   0.00000  Uiso   1.00
H888   H     0.52539   0.29825   0.94884   0.00000  Uiso   1.00
H889   H     0.57298   0.26342   0.91896   0.00000  Uiso   1.00
H890   H     0.54721   0.29904   0.88760   0.00000  Uiso   1.00
H891   H     0.51211   0.22839   0.88422   0.00000  Uiso   1.00
H892   H     0.46891   0.26525   0.90924   0.00000  Uiso   1.00
S893   S     0.61643   0.04291   0.68144   0.00000  Uiso   1.00
O894   O     0.64967   0.07601   0.65522   0.00000  Uiso   1.00
O895   O     0.60777   0.01133   0.64854   0.00000  Uiso   1.00
O896   O     0.56273   0.06409   0.70944   0.00000  Uiso   1.00
H897   H     0.54373   0.04138   0.72797   0.00000  Uiso   1.00
S898   S     0.38448   0.29071   0.81793   0.00000  Uiso   1.00
O899   O     0.43162   0.27064   0.79250   0.00000  Uiso   1.00
O900   O     0.39487   0.32283   0.84945   0.00000  Uiso   1.00
O901   O     0.34644   0.25503   0.84881   0.00000  Uiso   1.00
H902   H     0.36260   0.24562   0.87159   0.00000  Uiso   1.00
C903   C     0.66695   0.08745   0.74836   0.00000  Uiso   1.00
C904   C     0.99974   0.24591   0.75166   0.00000  Uiso   1.00
C905   C     0.86624   0.19177   0.55192   0.00000  Uiso   1.00
C906   C     0.81501   0.22178   0.95870   0.00000  Uiso   1.00
C907   C     0.91455   0.18302   0.52798   0.00000  Uiso   1.00
C908   C     0.76561   0.22638   0.98305   0.00000  Uiso   1.00
C909   C     0.97671   0.01988   0.72086   0.00000  Uiso   1.00
C910   C     0.69051   0.31355   0.77871   0.00000  Uiso   1.00
C911   C     0.97650   0.31048   0.72380   0.00000  Uiso   1.00
C912   C     0.69053   0.02294   0.77587   0.00000  Uiso   1.00
C913   C     0.66670   0.29056   0.75202   0.00000  Uiso   1.00
C914   C     0.66686   0.04283   0.74779   0.00000  Uiso   1.00
C915   C     0.84978   0.13973   0.77668   0.00000  Uiso   1.00
C916   C     0.81672   0.19396   0.72382   0.00000  Uiso   1.00
C917   C     0.80021   0.13967   0.77658   0.00000  Uiso   1.00
C918   C     0.86639   0.19380   0.72358   0.00000  Uiso   1.00
C919   C     0.97237   0.16631   0.83648   0.00000  Uiso   1.00
C920   C     0.69435   0.16830   0.66360   0.00000  Uiso   1.00
C921   C     0.95726   0.16890   0.88641   0.00000  Uiso   1.00
C922   C     0.71029   0.17827   0.61481   0.00000  Uiso   1.00
C923   C     0.97709   0.16909   0.95803   0.00000  Uiso   1.00
C924   C     0.69755   0.21445   0.55011   0.00000  Uiso   1.00
C925   C     0.99160   0.16506   0.91094   0.00000  Uiso   1.00
C926   C     0.67934   0.19906   0.59421   0.00000  Uiso   1.00
C927   C     0.90851   0.17737   0.90965   0.00000  Uiso   1.00
C928   C     0.75941   0.17324   0.59073   0.00000  Uiso   1.00
C929   C     0.89453   0.18666   0.95625   0.00000  Uiso   1.00
C930   C     0.77950   0.19311   0.54896   0.00000  Uiso   1.00
C931   C     0.92867   0.17925   0.98089   0.00000  Uiso   1.00
C932   C     0.74738   0.21096   0.52703   0.00000  Uiso   1.00
C933   C     0.84663   0.20007   0.97965   0.00000  Uiso   1.00
C934   C     0.83044   0.19392   0.52752   0.00000  Uiso   1.00
Cu935  Cu    0.71355   0.16667   0.75000   0.00000  Uiso   1.00
Cu936  Cu    0.95311   0.16666   0.75000   0.00000  Uiso   1.00
H937   H     0.94153   0.17927   0.54624   0.00000  Uiso   1.00
H938   H     0.74099   0.24229   0.96769   0.00000  Uiso   1.00
H939   H     0.78150   0.15311   0.60457   0.00000  Uiso   1.00
H940   H     0.88143   0.17492   0.89153   0.00000  Uiso   1.00
H941   H     0.97485   0.20429   0.61257   0.00000  Uiso   1.00
H942   H     0.69613   0.15832   0.89384   0.00000  Uiso   1.00
H943   H     0.67052   0.16463   0.97652   0.00000  Uiso   1.00
H944   H     0.67303   0.23010   0.53450   0.00000  Uiso   1.00
H945   H     0.95886   0.29238   0.70315   0.00000  Uiso   1.00
H946   H     0.70815   0.04108   0.79649   0.00000  Uiso   1.00
H947   H     0.86179   0.11812   0.79802   0.00000  Uiso   1.00
H948   H     0.80440   0.21603   0.70323   0.00000  Uiso   1.00
H949   H     0.77485   0.11803   0.79787   0.00000  Uiso   1.00
H950   H     0.89169   0.21552   0.70236   0.00000  Uiso   1.00
N951   N     0.78403   0.16668   0.74999   0.00000  Uiso   1.00
N952   N     0.88264   0.16666   0.75001   0.00000  Uiso   1.00
O953   O     0.70625   0.10655   0.75000   0.00000  Uiso   1.00
O954   O     0.96042   0.22678   0.75000   0.00000  Uiso   1.00
O955   O     0.96039   0.10654   0.75000   0.00000  Uiso   1.00
O956   O     0.70628   0.22679   0.75000   0.00000  Uiso   1.00
O957   O     0.68519   0.16668   0.81491   0.00000  Uiso   1.00
O958   O     0.98148   0.16666   0.68508   0.00000  Uiso   1.00
O959   O     0.93933   0.16667   0.81492   0.00000  Uiso   1.00
O960   O     0.72733   0.16667   0.68508   0.00000  Uiso   1.00
C961   C     0.85758   0.20710   0.60063   0.00000  Uiso   1.00
C962   C     0.83983   0.25171   0.60595   0.00000  Uiso   1.00
H963   H     0.86456   0.27157   0.57974   0.00000  Uiso   1.00
H964   H     0.80216   0.25387   0.60284   0.00000  Uiso   1.00
H965   H     0.83971   0.26353   0.63997   0.00000  Uiso   1.00
H966   H     0.83270   0.18721   0.62606   0.00000  Uiso   1.00
H967   H     0.89209   0.20654   0.61051   0.00000  Uiso   1.00
C968   C     0.83289   0.24729   0.91522   0.00000  Uiso   1.00
C969   C     0.87205   0.27877   0.91802   0.00000  Uiso   1.00
H970   H     0.85872   0.29825   0.94884   0.00000  Uiso   1.00
H971   H     0.90631   0.26342   0.91896   0.00000  Uiso   1.00
H972   H     0.88054   0.29904   0.88760   0.00000  Uiso   1.00
H973   H     0.84544   0.22839   0.88422   0.00000  Uiso   1.00
H974   H     0.80225   0.26525   0.90924   0.00000  Uiso   1.00
S975   S     0.94977   0.04291   0.68144   0.00000  Uiso   1.00
O976   O     0.98300   0.07601   0.65522   0.00000  Uiso   1.00
O977   O     0.94111   0.01133   0.64854   0.00000  Uiso   1.00
O978   O     0.89607   0.06409   0.70944   0.00000  Uiso   1.00
H979   H     0.87707   0.04138   0.72797   0.00000  Uiso   1.00
S980   S     0.71781   0.29071   0.81793   0.00000  Uiso   1.00
O981   O     0.76496   0.27064   0.79250   0.00000  Uiso   1.00
O982   O     0.72820   0.32283   0.84945   0.00000  Uiso   1.00
O983   O     0.67977   0.25503   0.84881   0.00000  Uiso   1.00
H984   H     0.69594   0.24562   0.87159   0.00000  Uiso   1.00
C985   C     0.00028   0.42078   0.74836   0.00000  Uiso   1.00
C986   C     0.33307   0.57924   0.75166   0.00000  Uiso   1.00
C987   C     0.19957   0.52510   0.55192   0.00000  Uiso   1.00
C988   C     0.14835   0.55511   0.95870   0.00000  Uiso   1.00
C989   C     0.24789   0.51635   0.52798   0.00000  Uiso   1.00
C990   C     0.09894   0.55971   0.98305   0.00000  Uiso   1.00
C991   C     0.31004   0.35322   0.72086   0.00000  Uiso   1.00
C992   C     0.02385   0.64688   0.77871   0.00000  Uiso   1.00
C993   C     0.30984   0.64381   0.72380   0.00000  Uiso   1.00
C994   C     0.02386   0.35627   0.77587   0.00000  Uiso   1.00
C995   C     0.00003   0.62389   0.75202   0.00000  Uiso   1.00
C996   C     0.00019   0.37616   0.74779   0.00000  Uiso   1.00
C997   C     0.18311   0.47306   0.77668   0.00000  Uiso   1.00
C998   C     0.15005   0.52729   0.72382   0.00000  Uiso   1.00
C999   C     0.13354   0.47300   0.77658   0.00000  Uiso   1.00
C1000  C     0.19973   0.52713   0.72358   0.00000  Uiso   1.00
C1001  C     0.30570   0.49964   0.83648   0.00000  Uiso   1.00
C1002  C     0.02768   0.50164   0.66360   0.00000  Uiso   1.00
C1003  C     0.29059   0.50224   0.88641   0.00000  Uiso   1.00
C1004  C     0.04362   0.51161   0.61481   0.00000  Uiso   1.00
C1005  C     0.31043   0.50242   0.95803   0.00000  Uiso   1.00
C1006  C     0.03088   0.54778   0.55011   0.00000  Uiso   1.00
C1007  C     0.32493   0.49840   0.91094   0.00000  Uiso   1.00
C1008  C     0.01267   0.53240   0.59421   0.00000  Uiso   1.00
C1009  C     0.24184   0.51071   0.90965   0.00000  Uiso   1.00
C1010  C     0.09274   0.50657   0.59073   0.00000  Uiso   1.00
C1011  C     0.22786   0.51999   0.95625   0.00000  Uiso   1.00
C1012  C     0.11283   0.52644   0.54896   0.00000  Uiso   1.00
C1013  C     0.26201   0.51258   0.98089   0.00000  Uiso   1.00
C1014  C     0.08072   0.54430   0.52703   0.00000  Uiso   1.00
C1015  C     0.17997   0.53340   0.97965   0.00000  Uiso   1.00
C1016  C     0.16377   0.52725   0.52752   0.00000  Uiso   1.00
Cu1017 Cu    0.04689   0.50001   0.75000   0.00000  Uiso   1.00
Cu1018 Cu    0.28645   0.49999   0.75000   0.00000  Uiso   1.00
H1019  H     0.27487   0.51261   0.54624   0.00000  Uiso   1.00
H1020  H     0.07432   0.57563   0.96769   0.00000  Uiso   1.00
H1021  H     0.11483   0.48645   0.60457   0.00000  Uiso   1.00
H1022  H     0.21477   0.50825   0.89153   0.00000  Uiso   1.00
H1023  H     0.30818   0.53763   0.61257   0.00000  Uiso   1.00
H1024  H     0.02946   0.49166   0.89384   0.00000  Uiso   1.00
H1025  H     0.00385   0.49796   0.97652   0.00000  Uiso   1.00
H1026  H     0.00636   0.56344   0.53450   0.00000  Uiso   1.00
H1027  H     0.29219   0.62571   0.70315   0.00000  Uiso   1.00
H1028  H     0.04148   0.37441   0.79649   0.00000  Uiso   1.00
H1029  H     0.19512   0.45145   0.79802   0.00000  Uiso   1.00
H1030  H     0.13773   0.54936   0.70323   0.00000  Uiso   1.00
H1031  H     0.10818   0.45136   0.79787   0.00000  Uiso   1.00
H1032  H     0.22503   0.54885   0.70236   0.00000  Uiso   1.00
N1033  N     0.11736   0.50001   0.74999   0.00000  Uiso   1.00
N1034  N     0.21597   0.49999   0.75001   0.00000  Uiso   1.00
O1035  O     0.03958   0.43989   0.75000   0.00000  Uiso   1.00
O1036  O     0.29375   0.56011   0.75000   0.00000  Uiso   1.00
O1037  O     0.29372   0.43988   0.75000   0.00000  Uiso   1.00
O1038  O     0.03961   0.56012   0.75000   0.00000  Uiso   1.00
O1039  O     0.01852   0.50001   0.81491   0.00000  Uiso   1.00
O1040  O     0.31481   0.49999   0.68508   0.00000  Uiso   1.00
O1041  O     0.27267   0.50000   0.81492   0.00000  Uiso   1.00
O1042  O     0.06067   0.50000   0.68508   0.00000  Uiso   1.00
C1043  C     0.19091   0.54043   0.60063   0.00000  Uiso   1.00
C1044  C     0.17316   0.58504   0.60595   0.00000  Uiso   1.00
H1045  H     0.19789   0.60490   0.57974   0.00000  Uiso   1.00
H1046  H     0.13549   0.58720   0.60284   0.00000  Uiso   1.00
H1047  H     0.17304   0.59686   0.63997   0.00000  Uiso   1.00
H1048  H     0.16603   0.52055   0.62606   0.00000  Uiso   1.00
H1049  H     0.22542   0.53988   0.61051   0.00000  Uiso   1.00
C1050  C     0.16623   0.58062   0.91522   0.00000  Uiso   1.00
C1051  C     0.20539   0.61211   0.91802   0.00000  Uiso   1.00
H1052  H     0.19206   0.63159   0.94884   0.00000  Uiso   1.00
H1053  H     0.23964   0.59676   0.91896   0.00000  Uiso   1.00
H1054  H     0.21387   0.63237   0.88760   0.00000  Uiso   1.00
H1055  H     0.17878   0.56172   0.88422   0.00000  Uiso   1.00
H1056  H     0.13558   0.59859   0.90924   0.00000  Uiso   1.00
S1057  S     0.28310   0.37624   0.68144   0.00000  Uiso   1.00
O1058  O     0.31634   0.40934   0.65522   0.00000  Uiso   1.00
O1059  O     0.27444   0.34467   0.64854   0.00000  Uiso   1.00
O1060  O     0.22940   0.39743   0.70944   0.00000  Uiso   1.00
H1061  H     0.21040   0.37472   0.72797   0.00000  Uiso   1.00
S1062  S     0.05115   0.62404   0.81793   0.00000  Uiso   1.00
O1063  O     0.09829   0.60397   0.79250   0.00000  Uiso   1.00
O1064  O     0.06154   0.65616   0.84945   0.00000  Uiso   1.00
O1065  O     0.01310   0.58837   0.84881   0.00000  Uiso   1.00
H1066  H     0.02927   0.57895   0.87159   0.00000  Uiso   1.00
C1067  C     0.33361   0.42078   0.74836   0.00000  Uiso   1.00
C1068  C     0.66641   0.57924   0.75166   0.00000  Uiso   1.00
C1069  C     0.53291   0.52510   0.55192   0.00000  Uiso   1.00
C1070  C     0.48168   0.55511   0.95870   0.00000  Uiso   1.00
C1071  C     0.58122   0.51635   0.52798   0.00000  Uiso   1.00
C1072  C     0.43228   0.55971   0.98305   0.00000  Uiso   1.00
C1073  C     0.64337   0.35322   0.72086   0.00000  Uiso   1.00
C1074  C     0.35718   0.64688   0.77871   0.00000  Uiso   1.00
C1075  C     0.64317   0.64381   0.72380   0.00000  Uiso   1.00
C1076  C     0.35719   0.35627   0.77587   0.00000  Uiso   1.00
C1077  C     0.33336   0.62389   0.75202   0.00000  Uiso   1.00
C1078  C     0.33353   0.37616   0.74779   0.00000  Uiso   1.00
C1079  C     0.51645   0.47306   0.77668   0.00000  Uiso   1.00
C1080  C     0.48339   0.52729   0.72382   0.00000  Uiso   1.00
C1081  C     0.46687   0.47300   0.77658   0.00000  Uiso   1.00
C1082  C     0.53306   0.52713   0.72358   0.00000  Uiso   1.00
C1083  C     0.63903   0.49964   0.83648   0.00000  Uiso   1.00
C1084  C     0.36101   0.50164   0.66360   0.00000  Uiso   1.00
C1085  C     0.62393   0.50224   0.88641   0.00000  Uiso   1.00
C1086  C     0.37696   0.51161   0.61481   0.00000  Uiso   1.00
C1087  C     0.64376   0.50242   0.95803   0.00000  Uiso   1.00
C1088  C     0.36421   0.54778   0.55011   0.00000  Uiso   1.00
C1089  C     0.65826   0.49840   0.91094   0.00000  Uiso   1.00
C1090  C     0.34600   0.53240   0.59421   0.00000  Uiso   1.00
C1091  C     0.57518   0.51071   0.90965   0.00000  Uiso   1.00
C1092  C     0.42608   0.50657   0.59073   0.00000  Uiso   1.00
C1093  C     0.56120   0.51999   0.95625   0.00000  Uiso   1.00
C1094  C     0.44616   0.52644   0.54896   0.00000  Uiso   1.00
C1095  C     0.59534   0.51258   0.98089   0.00000  Uiso   1.00
C1096  C     0.41405   0.54430   0.52703   0.00000  Uiso   1.00
C1097  C     0.51330   0.53340   0.97965   0.00000  Uiso   1.00
C1098  C     0.49711   0.52725   0.52752   0.00000  Uiso   1.00
Cu1099 Cu    0.38022   0.50001   0.75000   0.00000  Uiso   1.00
Cu1100 Cu    0.61978   0.49999   0.75000   0.00000  Uiso   1.00
H1101  H     0.60820   0.51261   0.54624   0.00000  Uiso   1.00
H1102  H     0.40765   0.57563   0.96769   0.00000  Uiso   1.00
H1103  H     0.44816   0.48645   0.60457   0.00000  Uiso   1.00
H1104  H     0.54810   0.50825   0.89153   0.00000  Uiso   1.00
H1105  H     0.64151   0.53763   0.61257   0.00000  Uiso   1.00
H1106  H     0.36280   0.49166   0.89384   0.00000  Uiso   1.00
H1107  H     0.33719   0.49796   0.97652   0.00000  Uiso   1.00
H1108  H     0.33970   0.56344   0.53450   0.00000  Uiso   1.00
H1109  H     0.62553   0.62571   0.70315   0.00000  Uiso   1.00
H1110  H     0.37481   0.37441   0.79649   0.00000  Uiso   1.00
H1111  H     0.52845   0.45145   0.79802   0.00000  Uiso   1.00
H1112  H     0.47106   0.54936   0.70323   0.00000  Uiso   1.00
H1113  H     0.44152   0.45136   0.79787   0.00000  Uiso   1.00
H1114  H     0.55836   0.54885   0.70236   0.00000  Uiso   1.00
N1115  N     0.45069   0.50001   0.74999   0.00000  Uiso   1.00
N1116  N     0.54931   0.49999   0.75001   0.00000  Uiso   1.00
O1117  O     0.37291   0.43989   0.75000   0.00000  Uiso   1.00
O1118  O     0.62709   0.56011   0.75000   0.00000  Uiso   1.00
O1119  O     0.62706   0.43988   0.75000   0.00000  Uiso   1.00
O1120  O     0.37294   0.56012   0.75000   0.00000  Uiso   1.00
O1121  O     0.35186   0.50001   0.81491   0.00000  Uiso   1.00
O1122  O     0.64814   0.49999   0.68508   0.00000  Uiso   1.00
O1123  O     0.60600   0.50000   0.81492   0.00000  Uiso   1.00
O1124  O     0.39400   0.50000   0.68508   0.00000  Uiso   1.00
C1125  C     0.52425   0.54043   0.60063   0.00000  Uiso   1.00
C1126  C     0.50649   0.58504   0.60595   0.00000  Uiso   1.00
H1127  H     0.53123   0.60490   0.57974   0.00000  Uiso   1.00
H1128  H     0.46883   0.58720   0.60284   0.00000  Uiso   1.00
H1129  H     0.50638   0.59686   0.63997   0.00000  Uiso   1.00
H1130  H     0.49937   0.52055   0.62606   0.00000  Uiso   1.00
H1131  H     0.55875   0.53988   0.61051   0.00000  Uiso   1.00
C1132  C     0.49956   0.58062   0.91522   0.00000  Uiso   1.00
C1133  C     0.53872   0.61211   0.91802   0.00000  Uiso   1.00
H1134  H     0.52539   0.63159   0.94884   0.00000  Uiso   1.00
H1135  H     0.57298   0.59676   0.91896   0.00000  Uiso   1.00
H1136  H     0.54721   0.63237   0.88760   0.00000  Uiso   1.00
H1137  H     0.51211   0.56172   0.88422   0.00000  Uiso   1.00
H1138  H     0.46891   0.59859   0.90924   0.00000  Uiso   1.00
S1139  S     0.61643   0.37624   0.68144   0.00000  Uiso   1.00
O1140  O     0.64967   0.40934   0.65522   0.00000  Uiso   1.00
O1141  O     0.60777   0.34467   0.64854   0.00000  Uiso   1.00
O1142  O     0.56273   0.39743   0.70944   0.00000  Uiso   1.00
H1143  H     0.54373   0.37472   0.72797   0.00000  Uiso   1.00
S1144  S     0.38448   0.62404   0.81793   0.00000  Uiso   1.00
O1145  O     0.43162   0.60397   0.79250   0.00000  Uiso   1.00
O1146  O     0.39487   0.65616   0.84945   0.00000  Uiso   1.00
O1147  O     0.34644   0.58837   0.84881   0.00000  Uiso   1.00
H1148  H     0.36260   0.57895   0.87159   0.00000  Uiso   1.00
C1149  C     0.66695   0.42078   0.74836   0.00000  Uiso   1.00
C1150  C     0.99974   0.57924   0.75166   0.00000  Uiso   1.00
C1151  C     0.86624   0.52510   0.55192   0.00000  Uiso   1.00
C1152  C     0.81501   0.55511   0.95870   0.00000  Uiso   1.00
C1153  C     0.91455   0.51635   0.52798   0.00000  Uiso   1.00
C1154  C     0.76561   0.55971   0.98305   0.00000  Uiso   1.00
C1155  C     0.97671   0.35322   0.72086   0.00000  Uiso   1.00
C1156  C     0.69051   0.64688   0.77871   0.00000  Uiso   1.00
C1157  C     0.97650   0.64381   0.72380   0.00000  Uiso   1.00
C1158  C     0.69053   0.35627   0.77587   0.00000  Uiso   1.00
C1159  C     0.66670   0.62389   0.75202   0.00000  Uiso   1.00
C1160  C     0.66686   0.37616   0.74779   0.00000  Uiso   1.00
C1161  C     0.84978   0.47306   0.77668   0.00000  Uiso   1.00
C1162  C     0.81672   0.52729   0.72382   0.00000  Uiso   1.00
C1163  C     0.80021   0.47300   0.77658   0.00000  Uiso   1.00
C1164  C     0.86639   0.52713   0.72358   0.00000  Uiso   1.00
C1165  C     0.97237   0.49964   0.83648   0.00000  Uiso   1.00
C1166  C     0.69435   0.50164   0.66360   0.00000  Uiso   1.00
C1167  C     0.95726   0.50224   0.88641   0.00000  Uiso   1.00
C1168  C     0.71029   0.51161   0.61481   0.00000  Uiso   1.00
C1169  C     0.97709   0.50242   0.95803   0.00000  Uiso   1.00
C1170  C     0.69755   0.54778   0.55011   0.00000  Uiso   1.00
C1171  C     0.99160   0.49840   0.91094   0.00000  Uiso   1.00
C1172  C     0.67934   0.53240   0.59421   0.00000  Uiso   1.00
C1173  C     0.90851   0.51071   0.90965   0.00000  Uiso   1.00
C1174  C     0.75941   0.50657   0.59073   0.00000  Uiso   1.00
C1175  C     0.89453   0.51999   0.95625   0.00000  Uiso   1.00
C1176  C     0.77950   0.52644   0.54896   0.00000  Uiso   1.00
C1177  C     0.92867   0.51258   0.98089   0.00000  Uiso   1.00
C1178  C     0.74738   0.54430   0.52703   0.00000  Uiso   1.00
C1179  C     0.84663   0.53340   0.97965   0.00000  Uiso   1.00
C1180  C     0.83044   0.52725   0.52752   0.00000  Uiso   1.00
Cu1181 Cu    0.71355   0.50001   0.75000   0.00000  Uiso   1.00
Cu1182 Cu    0.95311   0.49999   0.75000   0.00000  Uiso   1.00
H1183  H     0.94153   0.51261   0.54624   0.00000  Uiso   1.00
H1184  H     0.74099   0.57563   0.96769   0.00000  Uiso   1.00
H1185  H     0.78150   0.48645   0.60457   0.00000  Uiso   1.00
H1186  H     0.88143   0.50825   0.89153   0.00000  Uiso   1.00
H1187  H     0.97485   0.53763   0.61257   0.00000  Uiso   1.00
H1188  H     0.69613   0.49166   0.89384   0.00000  Uiso   1.00
H1189  H     0.67052   0.49796   0.97652   0.00000  Uiso   1.00
H1190  H     0.67303   0.56344   0.53450   0.00000  Uiso   1.00
H1191  H     0.95886   0.62571   0.70315   0.00000  Uiso   1.00
H1192  H     0.70815   0.37441   0.79649   0.00000  Uiso   1.00
H1193  H     0.86179   0.45145   0.79802   0.00000  Uiso   1.00
H1194  H     0.80440   0.54936   0.70323   0.00000  Uiso   1.00
H1195  H     0.77485   0.45136   0.79787   0.00000  Uiso   1.00
H1196  H     0.89169   0.54885   0.70236   0.00000  Uiso   1.00
N1197  N     0.78403   0.50001   0.74999   0.00000  Uiso   1.00
N1198  N     0.88264   0.49999   0.75001   0.00000  Uiso   1.00
O1199  O     0.70625   0.43989   0.75000   0.00000  Uiso   1.00
O1200  O     0.96042   0.56011   0.75000   0.00000  Uiso   1.00
O1201  O     0.96039   0.43988   0.75000   0.00000  Uiso   1.00
O1202  O     0.70628   0.56012   0.75000   0.00000  Uiso   1.00
O1203  O     0.68519   0.50001   0.81491   0.00000  Uiso   1.00
O1204  O     0.98148   0.49999   0.68508   0.00000  Uiso   1.00
O1205  O     0.93933   0.50000   0.81492   0.00000  Uiso   1.00
O1206  O     0.72733   0.50000   0.68508   0.00000  Uiso   1.00
C1207  C     0.85758   0.54043   0.60063   0.00000  Uiso   1.00
C1208  C     0.83983   0.58504   0.60595   0.00000  Uiso   1.00
H1209  H     0.86456   0.60490   0.57974   0.00000  Uiso   1.00
H1210  H     0.80216   0.58720   0.60284   0.00000  Uiso   1.00
H1211  H     0.83971   0.59686   0.63997   0.00000  Uiso   1.00
H1212  H     0.83270   0.52055   0.62606   0.00000  Uiso   1.00
H1213  H     0.89209   0.53988   0.61051   0.00000  Uiso   1.00
C1214  C     0.83289   0.58062   0.91522   0.00000  Uiso   1.00
C1215  C     0.87205   0.61211   0.91802   0.00000  Uiso   1.00
H1216  H     0.85872   0.63159   0.94884   0.00000  Uiso   1.00
H1217  H     0.90631   0.59676   0.91896   0.00000  Uiso   1.00
H1218  H     0.88054   0.63237   0.88760   0.00000  Uiso   1.00
H1219  H     0.84544   0.56172   0.88422   0.00000  Uiso   1.00
H1220  H     0.80225   0.59859   0.90924   0.00000  Uiso   1.00
S1221  S     0.94977   0.37624   0.68144   0.00000  Uiso   1.00
O1222  O     0.98300   0.40934   0.65522   0.00000  Uiso   1.00
O1223  O     0.94111   0.34467   0.64854   0.00000  Uiso   1.00
O1224  O     0.89607   0.39743   0.70944   0.00000  Uiso   1.00
H1225  H     0.87707   0.37472   0.72797   0.00000  Uiso   1.00
S1226  S     0.71781   0.62404   0.81793   0.00000  Uiso   1.00
O1227  O     0.76496   0.60397   0.79250   0.00000  Uiso   1.00
O1228  O     0.72820   0.65616   0.84945   0.00000  Uiso   1.00
O1229  O     0.67977   0.58837   0.84881   0.00000  Uiso   1.00
H1230  H     0.69594   0.57895   0.87159   0.00000  Uiso   1.00
C1231  C     0.00028   0.75412   0.74836   0.00000  Uiso   1.00
C1232  C     0.33307   0.91257   0.75166   0.00000  Uiso   1.00
C1233  C     0.19957   0.85843   0.55192   0.00000  Uiso   1.00
C1234  C     0.14835   0.88844   0.95870   0.00000  Uiso   1.00
C1235  C     0.24789   0.84968   0.52798   0.00000  Uiso   1.00
C1236  C     0.09894   0.89305   0.98305   0.00000  Uiso   1.00
C1237  C     0.31004   0.68655   0.72086   0.00000  Uiso   1.00
C1238  C     0.02385   0.98022   0.77871   0.00000  Uiso   1.00
C1239  C     0.30984   0.97714   0.72380   0.00000  Uiso   1.00
C1240  C     0.02386   0.68960   0.77587   0.00000  Uiso   1.00
C1241  C     0.00003   0.95722   0.75202   0.00000  Uiso   1.00
C1242  C     0.00019   0.70950   0.74779   0.00000  Uiso   1.00
C1243  C     0.18311   0.80640   0.77668   0.00000  Uiso   1.00
C1244  C     0.15005   0.86063   0.72382   0.00000  Uiso   1.00
C1245  C     0.13354   0.80633   0.77658   0.00000  Uiso   1.00
C1246  C     0.19973   0.86046   0.72358   0.00000  Uiso   1.00
C1247  C     0.30570   0.83298   0.83648   0.00000  Uiso   1.00
C1248  C     0.02768   0.83497   0.66360   0.00000  Uiso   1.00
C1249  C     0.29059   0.83557   0.88641   0.00000  Uiso   1.00
C1250  C     0.04362   0.84494   0.61481   0.00000  Uiso   1.00
C1251  C     0.31043   0.83576   0.95803   0.00000  Uiso   1.00
C1252  C     0.03088   0.88111   0.55011   0.00000  Uiso   1.00
C1253  C     0.32493   0.83173   0.91094   0.00000  Uiso   1.00
C1254  C     0.01267   0.86573   0.59421   0.00000  Uiso   1.00
C1255  C     0.24184   0.84404   0.90965   0.00000  Uiso   1.00
C1256  C     0.09274   0.83991   0.59073   0.00000  Uiso   1.00
C1257  C     0.22786   0.85332   0.95625   0.00000  Uiso   1.00
C1258  C     0.11283   0.85978   0.54896   0.00000  Uiso   1.00
C1259  C     0.26201   0.84592   0.98089   0.00000  Uiso   1.00
C1260  C     0.08072   0.87763   0.52703   0.00000  Uiso   1.00
C1261  C     0.17997   0.86674   0.97965   0.00000  Uiso   1.00
C1262  C     0.16377   0.86058   0.52752   0.00000  Uiso   1.00
Cu1263 Cu    0.04689   0.83334   0.75000   0.00000  Uiso   1.00
Cu1264 Cu    0.28645   0.83333   0.75000   0.00000  Uiso   1.00
H1265  H     0.27487   0.84594   0.54624   0.00000  Uiso   1.00
H1266  H     0.07432   0.90896   0.96769   0.00000  Uiso   1.00
H1267  H     0.11483   0.81978   0.60457   0.00000  Uiso   1.00
H1268  H     0.21477   0.84158   0.89153   0.00000  Uiso   1.00
H1269  H     0.30818   0.87096   0.61257   0.00000  Uiso   1.00
H1270  H     0.02946   0.82499   0.89384   0.00000  Uiso   1.00
H1271  H     0.00385   0.83130   0.97652   0.00000  Uiso   1.00
H1272  H     0.00636   0.89677   0.53450   0.00000  Uiso   1.00
H1273  H     0.29219   0.95905   0.70315   0.00000  Uiso   1.00
H1274  H     0.04148   0.70775   0.79649   0.00000  Uiso   1.00
H1275  H     0.19512   0.78479   0.79802   0.00000  Uiso   1.00
H1276  H     0.13773   0.88269   0.70323   0.00000  Uiso   1.00
H1277  H     0.10818   0.78470   0.79787   0.00000  Uiso   1.00
H1278  H     0.22503   0.88218   0.70236   0.00000  Uiso   1.00
N1279  N     0.11736   0.83334   0.74999   0.00000  Uiso   1.00
N1280  N     0.21597   0.83332   0.75001   0.00000  Uiso   1.00
O1281  O     0.03958   0.77322   0.75000   0.00000  Uiso   1.00
O1282  O     0.29375   0.89345   0.75000   0.00000  Uiso   1.00
O1283  O     0.29372   0.77321   0.75000   0.00000  Uiso   1.00
O1284  O     0.03961   0.89346   0.75000   0.00000  Uiso   1.00
O1285  O     0.01852   0.83334   0.81491   0.00000  Uiso   1.00
O1286  O     0.31481   0.83332   0.68508   0.00000  Uiso   1.00
O1287  O     0.27267   0.83333   0.81492   0.00000  Uiso   1.00
O1288  O     0.06067   0.83333   0.68508   0.00000  Uiso   1.00
C1289  C     0.19091   0.87376   0.60063   0.00000  Uiso   1.00
C1290  C     0.17316   0.91837   0.60595   0.00000  Uiso   1.00
H1291  H     0.19789   0.93823   0.57974   0.00000  Uiso   1.00
H1292  H     0.13549   0.92053   0.60284   0.00000  Uiso   1.00
H1293  H     0.17304   0.93019   0.63997   0.00000  Uiso   1.00
H1294  H     0.16603   0.85388   0.62606   0.00000  Uiso   1.00
H1295  H     0.22542   0.87321   0.61051   0.00000  Uiso   1.00
C1296  C     0.16623   0.91396   0.91522   0.00000  Uiso   1.00
C1297  C     0.20539   0.94544   0.91802   0.00000  Uiso   1.00
H1298  H     0.19206   0.96492   0.94884   0.00000  Uiso   1.00
H1299  H     0.23964   0.93009   0.91896   0.00000  Uiso   1.00
H1300  H     0.21387   0.96570   0.88760   0.00000  Uiso   1.00
H1301  H     0.17878   0.89506   0.88422   0.00000  Uiso   1.00
H1302  H     0.13558   0.93192   0.90924   0.00000  Uiso   1.00
S1303  S     0.28310   0.70957   0.68144   0.00000  Uiso   1.00
O1304  O     0.31634   0.74267   0.65522   0.00000  Uiso   1.00
O1305  O     0.27444   0.67800   0.64854   0.00000  Uiso   1.00
O1306  O     0.22940   0.73076   0.70944   0.00000  Uiso   1.00
H1307  H     0.21040   0.70805   0.72797   0.00000  Uiso   1.00
S1308  S     0.05115   0.95738   0.81793   0.00000  Uiso   1.00
O1309  O     0.09829   0.93730   0.79250   0.00000  Uiso   1.00
O1310  O     0.06154   0.98949   0.84945   0.00000  Uiso   1.00
O1311  O     0.01310   0.92170   0.84881   0.00000  Uiso   1.00
H1312  H     0.02927   0.91228   0.87159   0.00000  Uiso   1.00
C1313  C     0.33361   0.75412   0.74836   0.00000  Uiso   1.00
C1314  C     0.66641   0.91257   0.75166   0.00000  Uiso   1.00
C1315  C     0.53291   0.85843   0.55192   0.00000  Uiso   1.00
C1316  C     0.48168   0.88844   0.95870   0.00000  Uiso   1.00
C1317  C     0.58122   0.84968   0.52798   0.00000  Uiso   1.00
C1318  C     0.43228   0.89305   0.98305   0.00000  Uiso   1.00
C1319  C     0.64337   0.68655   0.72086   0.00000  Uiso   1.00
C1320  C     0.35718   0.98022   0.77871   0.00000  Uiso   1.00
C1321  C     0.64317   0.97714   0.72380   0.00000  Uiso   1.00
C1322  C     0.35719   0.68960   0.77587   0.00000  Uiso   1.00
C1323  C     0.33336   0.95722   0.75202   0.00000  Uiso   1.00
C1324  C     0.33353   0.70950   0.74779   0.00000  Uiso   1.00
C1325  C     0.51645   0.80640   0.77668   0.00000  Uiso   1.00
C1326  C     0.48339   0.86063   0.72382   0.00000  Uiso   1.00
C1327  C     0.46687   0.80633   0.77658   0.00000  Uiso   1.00
C1328  C     0.53306   0.86046   0.72358   0.00000  Uiso   1.00
C1329  C     0.63903   0.83298   0.83648   0.00000  Uiso   1.00
C1330  C     0.36101   0.83497   0.66360   0.00000  Uiso   1.00
C1331  C     0.62393   0.83557   0.88641   0.00000  Uiso   1.00
C1332  C     0.37696   0.84494   0.61481   0.00000  Uiso   1.00
C1333  C     0.64376   0.83576   0.95803   0.00000  Uiso   1.00
C1334  C     0.36421   0.88111   0.55011   0.00000  Uiso   1.00
C1335  C     0.65826   0.83173   0.91094   0.00000  Uiso   1.00
C1336  C     0.34600   0.86573   0.59421   0.00000  Uiso   1.00
C1337  C     0.57518   0.84404   0.90965   0.00000  Uiso   1.00
C1338  C     0.42608   0.83991   0.59073   0.00000  Uiso   1.00
C1339  C     0.56120   0.85332   0.95625   0.00000  Uiso   1.00
C1340  C     0.44616   0.85978   0.54896   0.00000  Uiso   1.00
C1341  C     0.59534   0.84592   0.98089   0.00000  Uiso   1.00
C1342  C     0.41405   0.87763   0.52703   0.00000  Uiso   1.00
C1343  C     0.51330   0.86674   0.97965   0.00000  Uiso   1.00
C1344  C     0.49711   0.86058   0.52752   0.00000  Uiso   1.00
Cu1345 Cu    0.38022   0.83334   0.75000   0.00000  Uiso   1.00
Cu1346 Cu    0.61978   0.83333   0.75000   0.00000  Uiso   1.00
H1347  H     0.60820   0.84594   0.54624   0.00000  Uiso   1.00
H1348  H     0.40765   0.90896   0.96769   0.00000  Uiso   1.00
H1349  H     0.44816   0.81978   0.60457   0.00000  Uiso   1.00
H1350  H     0.54810   0.84158   0.89153   0.00000  Uiso   1.00
H1351  H     0.64151   0.87096   0.61257   0.00000  Uiso   1.00
H1352  H     0.36280   0.82499   0.89384   0.00000  Uiso   1.00
H1353  H     0.33719   0.83130   0.97652   0.00000  Uiso   1.00
H1354  H     0.33970   0.89677   0.53450   0.00000  Uiso   1.00
H1355  H     0.62553   0.95905   0.70315   0.00000  Uiso   1.00
H1356  H     0.37481   0.70775   0.79649   0.00000  Uiso   1.00
H1357  H     0.52845   0.78479   0.79802   0.00000  Uiso   1.00
H1358  H     0.47106   0.88269   0.70323   0.00000  Uiso   1.00
H1359  H     0.44152   0.78470   0.79787   0.00000  Uiso   1.00
H1360  H     0.55836   0.88218   0.70236   0.00000  Uiso   1.00
N1361  N     0.45069   0.83334   0.74999   0.00000  Uiso   1.00
N1362  N     0.54931   0.83332   0.75001   0.00000  Uiso   1.00
O1363  O     0.37291   0.77322   0.75000   0.00000  Uiso   1.00
O1364  O     0.62709   0.89345   0.75000   0.00000  Uiso   1.00
O1365  O     0.62706   0.77321   0.75000   0.00000  Uiso   1.00
O1366  O     0.37294   0.89346   0.75000   0.00000  Uiso   1.00
O1367  O     0.35186   0.83334   0.81491   0.00000  Uiso   1.00
O1368  O     0.64814   0.83332   0.68508   0.00000  Uiso   1.00
O1369  O     0.60600   0.83333   0.81492   0.00000  Uiso   1.00
O1370  O     0.39400   0.83333   0.68508   0.00000  Uiso   1.00
C1371  C     0.52425   0.87376   0.60063   0.00000  Uiso   1.00
C1372  C     0.50649   0.91837   0.60595   0.00000  Uiso   1.00
H1373  H     0.53123   0.93823   0.57974   0.00000  Uiso   1.00
H1374  H     0.46883   0.92053   0.60284   0.00000  Uiso   1.00
H1375  H     0.50638   0.93019   0.63997   0.00000  Uiso   1.00
H1376  H     0.49937   0.85388   0.62606   0.00000  Uiso   1.00
H1377  H     0.55875   0.87321   0.61051   0.00000  Uiso   1.00
C1378  C     0.49956   0.91396   0.91522   0.00000  Uiso   1.00
C1379  C     0.53872   0.94544   0.91802   0.00000  Uiso   1.00
H1380  H     0.52539   0.96492   0.94884   0.00000  Uiso   1.00
H1381  H     0.57298   0.93009   0.91896   0.00000  Uiso   1.00
H1382  H     0.54721   0.96570   0.88760   0.00000  Uiso   1.00
H1383  H     0.51211   0.89506   0.88422   0.00000  Uiso   1.00
H1384  H     0.46891   0.93192   0.90924   0.00000  Uiso   1.00
S1385  S     0.61643   0.70957   0.68144   0.00000  Uiso   1.00
O1386  O     0.64967   0.74267   0.65522   0.00000  Uiso   1.00
O1387  O     0.60777   0.67800   0.64854   0.00000  Uiso   1.00
O1388  O     0.56273   0.73076   0.70944   0.00000  Uiso   1.00
H1389  H     0.54373   0.70805   0.72797   0.00000  Uiso   1.00
S1390  S     0.38448   0.95738   0.81793   0.00000  Uiso   1.00
O1391  O     0.43162   0.93730   0.79250   0.00000  Uiso   1.00
O1392  O     0.39487   0.98949   0.84945   0.00000  Uiso   1.00
O1393  O     0.34644   0.92170   0.84881   0.00000  Uiso   1.00
H1394  H     0.36260   0.91228   0.87159   0.00000  Uiso   1.00
C1395  C     0.66695   0.75412   0.74836   0.00000  Uiso   1.00
C1396  C     0.99974   0.91257   0.75166   0.00000  Uiso   1.00
C1397  C     0.86624   0.85843   0.55192   0.00000  Uiso   1.00
C1398  C     0.81501   0.88844   0.95870   0.00000  Uiso   1.00
C1399  C     0.91455   0.84968   0.52798   0.00000  Uiso   1.00
C1400  C     0.76561   0.89305   0.98305   0.00000  Uiso   1.00
C1401  C     0.97671   0.68655   0.72086   0.00000  Uiso   1.00
C1402  C     0.69051   0.98022   0.77871   0.00000  Uiso   1.00
C1403  C     0.97650   0.97714   0.72380   0.00000  Uiso   1.00
C1404  C     0.69053   0.68960   0.77587   0.00000  Uiso   1.00
C1405  C     0.66670   0.95722   0.75202   0.00000  Uiso   1.00
C1406  C     0.66686   0.70950   0.74779   0.00000  Uiso   1.00
C1407  C     0.84978   0.80640   0.77668   0.00000  Uiso   1.00
C1408  C     0.81672   0.86063   0.72382   0.00000  Uiso   1.00
C1409  C     0.80021   0.80633   0.77658   0.00000  Uiso   1.00
C1410  C     0.86639   0.86046   0.72358   0.00000  Uiso   1.00
C1411  C     0.97237   0.83298   0.83648   0.00000  Uiso   1.00
C1412  C     0.69435   0.83497   0.66360   0.00000  Uiso   1.00
C1413  C     0.95726   0.83557   0.88641   0.00000  Uiso   1.00
C1414  C     0.71029   0.84494   0.61481   0.00000  Uiso   1.00
C1415  C     0.97709   0.83576   0.95803   0.00000  Uiso   1.00
C1416  C     0.69755   0.88111   0.55011   0.00000  Uiso   1.00
C1417  C     0.99160   0.83173   0.91094   0.00000  Uiso   1.00
C1418  C     0.67934   0.86573   0.59421   0.00000  Uiso   1.00
C1419  C     0.90851   0.84404   0.90965   0.00000  Uiso   1.00
C1420  C     0.75941   0.83991   0.59073   0.00000  Uiso   1.00
C1421  C     0.89453   0.85332   0.95625   0.00000  Uiso   1.00
C1422  C     0.77950   0.85978   0.54896   0.00000  Uiso   1.00
C1423  C     0.92867   0.84592   0.98089   0.00000  Uiso   1.00
C1424  C     0.74738   0.87763   0.52703   0.00000  Uiso   1.00
C1425  C     0.84663   0.86674   0.97965   0.00000  Uiso   1.00
C1426  C     0.83044   0.86058   0.52752   0.00000  Uiso   1.00
Cu1427 Cu    0.71355   0.83334   0.75000   0.00000  Uiso   1.00
Cu1428 Cu    0.95311   0.83333   0.75000   0.00000  Uiso   1.00
H1429  H     0.94153   0.84594   0.54624   0.00000  Uiso   1.00
H1430  H     0.74099   0.90896   0.96769   0.00000  Uiso   1.00
H1431  H     0.78150   0.81978   0.60457   0.00000  Uiso   1.00
H1432  H     0.88143   0.84158   0.89153   0.00000  Uiso   1.00
H1433  H     0.97485   0.87096   0.61257   0.00000  Uiso   1.00
H1434  H     0.69613   0.82499   0.89384   0.00000  Uiso   1.00
H1435  H     0.67052   0.83130   0.97652   0.00000  Uiso   1.00
H1436  H     0.67303   0.89677   0.53450   0.00000  Uiso   1.00
H1437  H     0.95886   0.95905   0.70315   0.00000  Uiso   1.00
H1438  H     0.70815   0.70775   0.79649   0.00000  Uiso   1.00
H1439  H     0.86179   0.78479   0.79802   0.00000  Uiso   1.00
H1440  H     0.80440   0.88269   0.70323   0.00000  Uiso   1.00
H1441  H     0.77485   0.78470   0.79787   0.00000  Uiso   1.00
H1442  H     0.89169   0.88218   0.70236   0.00000  Uiso   1.00
N1443  N     0.78403   0.83334   0.74999   0.00000  Uiso   1.00
N1444  N     0.88264   0.83332   0.75001   0.00000  Uiso   1.00
O1445  O     0.70625   0.77322   0.75000   0.00000  Uiso   1.00
O1446  O     0.96042   0.89345   0.75000   0.00000  Uiso   1.00
O1447  O     0.96039   0.77321   0.75000   0.00000  Uiso   1.00
O1448  O     0.70628   0.89346   0.75000   0.00000  Uiso   1.00
O1449  O     0.68519   0.83334   0.81491   0.00000  Uiso   1.00
O1450  O     0.98148   0.83332   0.68508   0.00000  Uiso   1.00
O1451  O     0.93933   0.83333   0.81492   0.00000  Uiso   1.00
O1452  O     0.72733   0.83333   0.68508   0.00000  Uiso   1.00
C1453  C     0.85758   0.87376   0.60063   0.00000  Uiso   1.00
C1454  C     0.83983   0.91837   0.60595   0.00000  Uiso   1.00
H1455  H     0.86456   0.93823   0.57974   0.00000  Uiso   1.00
H1456  H     0.80216   0.92053   0.60284   0.00000  Uiso   1.00
H1457  H     0.83971   0.93019   0.63997   0.00000  Uiso   1.00
H1458  H     0.83270   0.85388   0.62606   0.00000  Uiso   1.00
H1459  H     0.89209   0.87321   0.61051   0.00000  Uiso   1.00
C1460  C     0.83289   0.91396   0.91522   0.00000  Uiso   1.00
C1461  C     0.87205   0.94544   0.91802   0.00000  Uiso   1.00
H1462  H     0.85872   0.96492   0.94884   0.00000  Uiso   1.00
H1463  H     0.90631   0.93009   0.91896   0.00000  Uiso   1.00
H1464  H     0.88054   0.96570   0.88760   0.00000  Uiso   1.00
H1465  H     0.84544   0.89506   0.88422   0.00000  Uiso   1.00
H1466  H     0.80225   0.93192   0.90924   0.00000  Uiso   1.00
S1467  S     0.94977   0.70957   0.68144   0.00000  Uiso   1.00
O1468  O     0.98300   0.74267   0.65522   0.00000  Uiso   1.00
O1469  O     0.94111   0.67800   0.64854   0.00000  Uiso   1.00
O1470  O     0.89607   0.73076   0.70944   0.00000  Uiso   1.00
H1471  H     0.87707   0.70805   0.72797   0.00000  Uiso   1.00
S1472  S     0.71781   0.95738   0.81793   0.00000  Uiso   1.00
O1473  O     0.76496   0.93730   0.79250   0.00000  Uiso   1.00
O1474  O     0.72820   0.98949   0.84945   0.00000  Uiso   1.00
O1475  O     0.67977   0.92170   0.84881   0.00000  Uiso   1.00
H1476  H     0.69594   0.91228   0.87159   0.00000  Uiso   1.00
loop_
_geom_bond_atom_site_label_1
_geom_bond_atom_site_label_2
_geom_bond_distance
_geom_bond_site_symmetry_2
_ccdc_geom_bond_type
C1     C12     1.447   .     S
C1     O51     1.292   .     A
C1     O217    1.289   1_455 S
C2     O52     1.293   .     A
C2     C93     1.448   .     S
C2     O136    1.288   .     S
C3     C5      1.398   .     A
C3     C32     1.430   .     A
C3     C59     1.527   .     S
C4     C6      1.406   .     A
C4     C66     1.529   .     S
C4     C31     1.437   .     A
C5     H35     1.081   .     S
C5     C767    1.391   1_554 S
C6     H36     1.085   .     S
C6     C768    1.394   .     S
C7     S73     1.775   .     S
C7     C501    1.389   1_545 S
C7     C94     1.411   .     S
C8     S78     1.774   .     S
C8     C11     1.412   .     A
C8     C256    1.388   .     S
C9     H43     1.084   .     S
C9     C253    1.389   .     S
C9     C93     1.399   .     S
C10    H44     1.084   .     S
C10    C12     1.398   .     A
C10    C500    1.388   1_545 S
C11    C173    1.399   1_455 S
C11    C166    1.448   1_455 S
C12    C171    1.411   1_455 S
C13    H45     1.082   .     S
C13    C15     1.417   .     A
C13    N50     1.367   .     A
C14    H46     1.080   .     S
C14    N49     1.366   .     A
C14    C16     1.417   .     A
C15    H47     1.082   .     S
C15    N49     1.367   .     A
C16    H48     1.082   .     S
C16    N50     1.367   .     A
C17    C19     1.471   .     S
C17    O57     1.297   .     A
C17    O137    1.296   .     S
C18    O58     1.295   .     A
C18    C20     1.472   .     S
C18    O220    1.298   1_455 S
C19    C23     1.401   .     A
C19    C25     1.401   .     A
C20    C24     1.401   .     A
C20    C26     1.398   .     A
C21    C29     1.403   .     A
C21    C23     1.391   .     A
C21    H123    1.084   .     S
C22    C30     1.404   .     A
C22    H42     1.083   .     S
C22    C24     1.397   .     A
C23    H122    1.083   .     S
C24    H203    1.082   1_455 S
C25    H38     1.075   .     S
C25    C27     1.403   .     A
C26    H37     1.078   .     S
C26    C28     1.403   .     A
C27    C29     1.415   .     A
C27    C31     1.423   .     A
C28    C32     1.416   .     A
C28    C30     1.410   .     A
C29    C743    1.391   .     S
C30    C744    1.394   1_554 S
C31    C770    1.423   .     S
C32    C769    1.423   1_554 S
Cu33   O55     1.926   .     S
Cu33   O58     1.918   .     S
Cu33   N49     2.013   .     S
Cu33   O54     1.962   .     S
Cu33   O51     1.959   .     S
Cu33   Cu198   2.678   1_455 S
Cu34   O56     1.926   .     S
Cu34   O57     1.918   .     S
Cu34   N50     2.013   .     S
Cu34   O52     1.959   .     S
Cu34   O53     1.962   .     S
Cu34   Cu115   2.678   .     S
H39    C106    1.082   .     S
H40    C187    1.083   1_455 S
H41    C185    1.084   1_455 S
O53    C83     1.289   .     S
O54    C166    1.288   1_455 S
O55    C181    1.296   1_455 S
O56    C100    1.298   .     S
C59    H64     1.100   .     S
C59    C60     1.529   .     S
C59    H65     1.110   .     S
C60    H63     1.110   .     S
C60    H62     1.109   .     S
C60    H61     1.111   .     S
C66    H72     1.112   .     S
C66    C67     1.529   .     S
C66    H71     1.102   .     S
C67    H68     1.111   .     S
C67    H69     1.108   .     S
C67    H70     1.111   .     S
S73    O74     1.502   .     D
S73    O75     1.504   .     D
S73    O76     1.681   .     S
O76    H77     0.991   .     S
S78    O80     1.504   .     D
S78    O79     1.503   .     D
S78    O81     1.679   .     S
O81    H82     0.990   .     S
C83    C94     1.447   .     S
C83    O133    1.292   .     A
C84    O134    1.293   .     A
C84    C175    1.448   .     S
C84    O218    1.288   .     S
C85    C87     1.398   .     A
C85    C114    1.430   .     A
C85    C141    1.527   .     S
C86    C88     1.406   .     A
C86    C148    1.529   .     S
C86    C113    1.437   .     A
C87    H117    1.081   .     S
C87    C849    1.391   1_554 S
C88    H118    1.085   .     S
C88    C850    1.394   .     S
C89    S155    1.775   .     S
C89    C583    1.389   1_545 S
C89    C176    1.411   .     S
C90    S160    1.774   .     S
C90    C93     1.412   .     A
C90    C338    1.388   .     S
C91    H125    1.084   .     S
C91    C335    1.389   .     S
C91    C175    1.399   .     S
C92    H126    1.084   .     S
C92    C94     1.398   .     A
C92    C582    1.388   1_545 S
C95    H127    1.082   .     S
C95    C97     1.417   .     A
C95    N132    1.367   .     A
C96    H128    1.080   .     S
C96    N131    1.366   .     A
C96    C98     1.417   .     A
C97    H129    1.082   .     S
C97    N131    1.367   .     A
C98    H130    1.082   .     S
C98    N132    1.367   .     A
C99    C101    1.471   .     S
C99    O139    1.297   .     A
C99    O219    1.296   .     S
C100   O140    1.295   .     A
C100   C102    1.472   .     S
C101   C105    1.401   .     A
C101   C107    1.401   .     A
C102   C106    1.401   .     A
C102   C108    1.398   .     A
C103   C111    1.403   .     A
C103   C105    1.391   .     A
C103   H205    1.084   .     S
C104   C112    1.404   .     A
C104   H124    1.083   .     S
C104   C106    1.397   .     A
C105   H204    1.083   .     S
C107   H120    1.075   .     S
C107   C109    1.403   .     A
C108   H119    1.078   .     S
C108   C110    1.403   .     A
C109   C111    1.415   .     A
C109   C113    1.423   .     A
C110   C114    1.416   .     A
C110   C112    1.410   .     A
C111   C825    1.391   .     S
C112   C826    1.394   1_554 S
C113   C852    1.423   .     S
C114   C851    1.423   1_554 S
Cu115  O137    1.926   .     S
Cu115  O140    1.918   .     S
Cu115  N131    2.013   .     S
Cu115  O136    1.962   .     S
Cu115  O133    1.959   .     S
Cu116  O138    1.926   .     S
Cu116  O139    1.918   .     S
Cu116  N132    2.013   .     S
Cu116  O134    1.959   .     S
Cu116  O135    1.962   .     S
Cu116  Cu197   2.678   .     S
H121   C188    1.082   .     S
O135   C165    1.289   .     S
O138   C182    1.298   .     S
C141   H146    1.100   .     S
C141   C142    1.529   .     S
C141   H147    1.110   .     S
C142   H145    1.110   .     S
C142   H144    1.109   .     S
C142   H143    1.111   .     S
C148   H154    1.112   .     S
C148   C149    1.529   .     S
C148   H153    1.102   .     S
C149   H150    1.111   .     S
C149   H151    1.108   .     S
C149   H152    1.111   .     S
S155   O156    1.502   .     D
S155   O157    1.504   .     D
S155   O158    1.681   .     S
O158   H159    0.991   .     S
S160   O162    1.504   .     D
S160   O161    1.503   .     D
S160   O163    1.679   .     S
O163   H164    0.990   .     S
C165   C176    1.447   .     S
C165   O215    1.292   .     A
C166   O216    1.293   .     A
C166   C11     1.448   1_655 S
C166   O54     1.288   1_655 S
C167   C169    1.398   .     A
C167   C196    1.430   .     A
C167   C223    1.527   .     S
C168   C170    1.406   .     A
C168   C230    1.529   .     S
C168   C195    1.437   .     A
C169   H199    1.081   .     S
C169   C931    1.391   1_554 S
C170   H200    1.085   .     S
C170   C932    1.394   .     S
C171   S237    1.775   .     S
C171   C665    1.389   1_545 S
C171   C12     1.411   1_655 S
C172   S242    1.774   .     S
C172   C175    1.412   .     A
C172   C420    1.388   .     S
C173   H207    1.084   .     S
C173   C417    1.389   .     S
C173   C11     1.399   1_655 S
C174   H208    1.084   .     S
C174   C176    1.398   .     A
C174   C664    1.388   1_545 S
C177   H209    1.082   .     S
C177   C179    1.417   .     A
C177   N214    1.367   .     A
C178   H210    1.080   .     S
C178   N213    1.366   .     A
C178   C180    1.417   .     A
C179   H211    1.082   .     S
C179   N213    1.367   .     A
C180   H212    1.082   .     S
C180   N214    1.367   .     A
C181   C183    1.471   .     S
C181   O221    1.297   .     A
C181   O55     1.296   1_655 S
C182   O222    1.295   .     A
C182   C184    1.472   .     S
C183   C187    1.401   .     A
C183   C189    1.401   .     A
C184   C188    1.401   .     A
C184   C190    1.398   .     A
C185   C193    1.403   .     A
C185   C187    1.391   .     A
C185   H41     1.084   1_655 S
C186   C194    1.404   .     A
C186   H206    1.083   .     S
C186   C188    1.397   .     A
C187   H40     1.083   1_655 S
C189   H202    1.075   .     S
C189   C191    1.403   .     A
C190   H201    1.078   .     S
C190   C192    1.403   .     A
C191   C193    1.415   .     A
C191   C195    1.423   .     A
C192   C196    1.416   .     A
C192   C194    1.410   .     A
C193   C907    1.391   .     S
C194   C908    1.394   1_554 S
C195   C934    1.423   .     S
C196   C933    1.423   1_554 S
Cu197  O219    1.926   .     S
Cu197  O222    1.918   .     S
Cu197  N213    2.013   .     S
Cu197  O218    1.962   .     S
Cu197  O215    1.959   .     S
Cu198  O220    1.926   .     S
Cu198  O221    1.918   .     S
Cu198  N214    2.013   .     S
Cu198  O216    1.959   .     S
Cu198  O217    1.962   .     S
Cu198  Cu33    2.678   1_655 S
H203   C24     1.082   1_655 S
O217   C1      1.289   1_655 S
O220   C18     1.298   1_655 S
C223   H228    1.100   .     S
C223   C224    1.529   .     S
C223   H229    1.110   .     S
C224   H227    1.110   .     S
C224   H226    1.109   .     S
C224   H225    1.111   .     S
C230   H236    1.112   .     S
C230   C231    1.529   .     S
C230   H235    1.102   .     S
C231   H232    1.111   .     S
C231   H233    1.108   .     S
C231   H234    1.111   .     S
S237   O238    1.502   .     D
S237   O239    1.504   .     D
S237   O240    1.681   .     S
O240   H241    0.991   .     S
S242   O244    1.504   .     D
S242   O243    1.503   .     D
S242   O245    1.679   .     S
O245   H246    0.990   .     S
C247   C258    1.447   .     S
C247   O297    1.292   .     A
C247   O463    1.289   1_455 S
C248   O298    1.293   .     A
C248   C339    1.448   .     S
C248   O382    1.288   .     S
C249   C251    1.398   .     A
C249   C278    1.430   .     A
C249   C305    1.527   .     S
C250   C252    1.406   .     A
C250   C312    1.529   .     S
C250   C277    1.437   .     A
C251   H281    1.081   .     S
C251   C1013   1.391   1_554 S
C252   H282    1.085   .     S
C252   C1014   1.394   .     S
C253   S319    1.775   .     S
C253   C340    1.411   .     S
C254   S324    1.774   .     S
C254   C257    1.412   .     A
C254   C502    1.388   .     S
C255   H289    1.084   .     S
C255   C499    1.389   .     S
C255   C339    1.399   .     S
C256   H290    1.084   .     S
C256   C258    1.398   .     A
C257   C419    1.399   1_455 S
C257   C412    1.448   1_455 S
C258   C417    1.411   1_455 S
C259   H291    1.082   .     S
C259   C261    1.417   .     A
C259   N296    1.367   .     A
C260   H292    1.080   .     S
C260   N295    1.366   .     A
C260   C262    1.417   .     A
C261   H293    1.082   .     S
C261   N295    1.367   .     A
C262   H294    1.082   .     S
C262   N296    1.367   .     A
C263   C265    1.471   .     S
C263   O303    1.297   .     A
C263   O383    1.296   .     S
C264   O304    1.295   .     A
C264   C266    1.472   .     S
C264   O466    1.298   1_455 S
C265   C269    1.401   .     A
C265   C271    1.401   .     A
C266   C270    1.401   .     A
C266   C272    1.398   .     A
C267   C275    1.403   .     A
C267   C269    1.391   .     A
C267   H369    1.084   .     S
C268   C276    1.404   .     A
C268   H288    1.083   .     S
C268   C270    1.397   .     A
C269   H368    1.083   .     S
C270   H449    1.082   1_455 S
C271   H284    1.075   .     S
C271   C273    1.403   .     A
C272   H283    1.078   .     S
C272   C274    1.403   .     A
C273   C275    1.415   .     A
C273   C277    1.423   .     A
C274   C278    1.416   .     A
C274   C276    1.410   .     A
C275   C989    1.391   .     S
C276   C990    1.394   1_554 S
C277   C1016   1.423   .     S
C278   C1015   1.423   1_554 S
Cu279  O301    1.926   .     S
Cu279  O304    1.918   .     S
Cu279  N295    2.013   .     S
Cu279  O300    1.962   .     S
Cu279  O297    1.959   .     S
Cu279  Cu444   2.678   1_455 S
Cu280  O302    1.926   .     S
Cu280  O303    1.918   .     S
Cu280  N296    2.013   .     S
Cu280  O298    1.959   .     S
Cu280  O299    1.962   .     S
Cu280  Cu361   2.678   .     S
H285   C352    1.082   .     S
H286   C433    1.083   1_455 S
H287   C431    1.084   1_455 S
O299   C329    1.289   .     S
O300   C412    1.288   1_455 S
O301   C427    1.296   1_455 S
O302   C346    1.298   .     S
C305   H310    1.100   .     S
C305   C306    1.529   .     S
C305   H311    1.110   .     S
C306   H309    1.110   .     S
C306   H308    1.109   .     S
C306   H307    1.111   .     S
C312   H318    1.112   .     S
C312   C313    1.529   .     S
C312   H317    1.102   .     S
C313   H314    1.111   .     S
C313   H315    1.108   .     S
C313   H316    1.111   .     S
S319   O320    1.502   .     D
S319   O321    1.504   .     D
S319   O322    1.681   .     S
O322   H323    0.991   .     S
S324   O326    1.504   .     D
S324   O325    1.503   .     D
S324   O327    1.679   .     S
O327   H328    0.990   .     S
C329   C340    1.447   .     S
C329   O379    1.292   .     A
C330   O380    1.293   .     A
C330   C421    1.448   .     S
C330   O464    1.288   .     S
C331   C333    1.398   .     A
C331   C360    1.430   .     A
C331   C387    1.527   .     S
C332   C334    1.406   .     A
C332   C394    1.529   .     S
C332   C359    1.437   .     A
C333   H363    1.081   .     S
C333   C1095   1.391   1_554 S
C334   H364    1.085   .     S
C334   C1096   1.394   .     S
C335   S401    1.775   .     S
C335   C422    1.411   .     S
C336   S406    1.774   .     S
C336   C339    1.412   .     A
C336   C584    1.388   .     S
C337   H371    1.084   .     S
C337   C581    1.389   .     S
C337   C421    1.399   .     S
C338   H372    1.084   .     S
C338   C340    1.398   .     A
C341   H373    1.082   .     S
C341   C343    1.417   .     A
C341   N378    1.367   .     A
C342   H374    1.080   .     S
C342   N377    1.366   .     A
C342   C344    1.417   .     A
C343   H375    1.082   .     S
C343   N377    1.367   .     A
C344   H376    1.082   .     S
C344   N378    1.367   .     A
C345   C347    1.471   .     S
C345   O385    1.297   .     A
C345   O465    1.296   .     S
C346   O386    1.295   .     A
C346   C348    1.472   .     S
C347   C351    1.401   .     A
C347   C353    1.401   .     A
C348   C352    1.401   .     A
C348   C354    1.398   .     A
C349   C357    1.403   .     A
C349   C351    1.391   .     A
C349   H451    1.084   .     S
C350   C358    1.404   .     A
C350   H370    1.083   .     S
C350   C352    1.397   .     A
C351   H450    1.083   .     S
C353   H366    1.075   .     S
C353   C355    1.403   .     A
C354   H365    1.078   .     S
C354   C356    1.403   .     A
C355   C357    1.415   .     A
C355   C359    1.423   .     A
C356   C360    1.416   .     A
C356   C358    1.410   .     A
C357   C1071   1.391   .     S
C358   C1072   1.394   1_554 S
C359   C1098   1.423   .     S
C360   C1097   1.423   1_554 S
Cu361  O383    1.926   .     S
Cu361  O386    1.918   .     S
Cu361  N377    2.013   .     S
Cu361  O382    1.962   .     S
Cu361  O379    1.959   .     S
Cu362  O384    1.926   .     S
Cu362  O385    1.918   .     S
Cu362  N378    2.013   .     S
Cu362  O380    1.959   .     S
Cu362  O381    1.962   .     S
Cu362  Cu443   2.678   .     S
H367   C434    1.082   .     S
O381   C411    1.289   .     S
O384   C428    1.298   .     S
C387   H392    1.100   .     S
C387   C388    1.529   .     S
C387   H393    1.110   .     S
C388   H391    1.110   .     S
C388   H390    1.109   .     S
C388   H389    1.111   .     S
C394   H400    1.112   .     S
C394   C395    1.529   .     S
C394   H399    1.102   .     S
C395   H396    1.111   .     S
C395   H397    1.108   .     S
C395   H398    1.111   .     S
S401   O402    1.502   .     D
S401   O403    1.504   .     D
S401   O404    1.681   .     S
O404   H405    0.991   .     S
S406   O408    1.504   .     D
S406   O407    1.503   .     D
S406   O409    1.679   .     S
O409   H410    0.990   .     S
C411   C422    1.447   .     S
C411   O461    1.292   .     A
C412   O462    1.293   .     A
C412   C257    1.448   1_655 S
C412   O300    1.288   1_655 S
C413   C415    1.398   .     A
C413   C442    1.430   .     A
C413   C469    1.527   .     S
C414   C416    1.406   .     A
C414   C476    1.529   .     S
C414   C441    1.437   .     A
C415   H445    1.081   .     S
C415   C1177   1.391   1_554 S
C416   H446    1.085   .     S
C416   C1178   1.394   .     S
C417   S483    1.775   .     S
C417   C258    1.411   1_655 S
C418   S488    1.774   .     S
C418   C421    1.412   .     A
C418   C666    1.388   .     S
C419   H453    1.084   .     S
C419   C663    1.389   .     S
C419   C257    1.399   1_655 S
C420   H454    1.084   .     S
C420   C422    1.398   .     A
C423   H455    1.082   .     S
C423   C425    1.417   .     A
C423   N460    1.367   .     A
C424   H456    1.080   .     S
C424   N459    1.366   .     A
C424   C426    1.417   .     A
C425   H457    1.082   .     S
C425   N459    1.367   .     A
C426   H458    1.082   .     S
C426   N460    1.367   .     A
C427   C429    1.471   .     S
C427   O467    1.297   .     A
C427   O301    1.296   1_655 S
C428   O468    1.295   .     A
C428   C430    1.472   .     S
C429   C433    1.401   .     A
C429   C435    1.401   .     A
C430   C434    1.401   .     A
C430   C436    1.398   .     A
C431   C439    1.403   .     A
C431   C433    1.391   .     A
C431   H287    1.084   1_655 S
C432   C440    1.404   .     A
C432   H452    1.083   .     S
C432   C434    1.397   .     A
C433   H286    1.083   1_655 S
C435   H448    1.075   .     S
C435   C437    1.403   .     A
C436   H447    1.078   .     S
C436   C438    1.403   .     A
C437   C439    1.415   .     A
C437   C441    1.423   .     A
C438   C442    1.416   .     A
C438   C440    1.410   .     A
C439   C1153   1.391   .     S
C440   C1154   1.394   1_554 S
C441   C1180   1.423   .     S
C442   C1179   1.423   1_554 S
Cu443  O465    1.926   .     S
Cu443  O468    1.918   .     S
Cu443  N459    2.013   .     S
Cu443  O464    1.962   .     S
Cu443  O461    1.959   .     S
Cu444  O466    1.926   .     S
Cu444  O467    1.918   .     S
Cu444  N460    2.013   .     S
Cu444  O462    1.959   .     S
Cu444  O463    1.962   .     S
Cu444  Cu279   2.678   1_655 S
H449   C270    1.082   1_655 S
O463   C247    1.289   1_655 S
O466   C264    1.298   1_655 S
C469   H474    1.100   .     S
C469   C470    1.529   .     S
C469   H475    1.110   .     S
C470   H473    1.110   .     S
C470   H472    1.109   .     S
C470   H471    1.111   .     S
C476   H482    1.112   .     S
C476   C477    1.529   .     S
C476   H481    1.102   .     S
C477   H478    1.111   .     S
C477   H479    1.108   .     S
C477   H480    1.111   .     S
S483   O484    1.502   .     D
S483   O485    1.504   .     D
S483   O486    1.681   .     S
O486   H487    0.991   .     S
S488   O490    1.504   .     D
S488   O489    1.503   .     D
S488   O491    1.679   .     S
O491   H492    0.990   .     S
C493   C504    1.447   .     S
C493   O543    1.292   .     A
C493   O709    1.289   1_455 S
C494   O544    1.293   .     A
C494   C585    1.448   .     S
C494   O628    1.288   .     S
C495   C497    1.398   .     A
C495   C524    1.430   .     A
C495   C551    1.527   .     S
C496   C498    1.406   .     A
C496   C558    1.529   .     S
C496   C523    1.437   .     A
C497   H527    1.081   .     S
C497   C1259   1.391   1_554 S
C498   H528    1.085   .     S
C498   C1260   1.394   .     S
C499   S565    1.775   .     S
C499   C586    1.411   .     S
C500   S570    1.774   .     S
C500   C503    1.412   .     A
C500   C10     1.388   1_565 S
C501   H535    1.084   .     S
C501   C7      1.389   1_565 S
C501   C585    1.399   .     S
C502   H536    1.084   .     S
C502   C504    1.398   .     A
C503   C665    1.399   1_455 S
C503   C658    1.448   1_455 S
C504   C663    1.411   1_455 S
C505   H537    1.082   .     S
C505   C507    1.417   .     A
C505   N542    1.367   .     A
C506   H538    1.080   .     S
C506   N541    1.366   .     A
C506   C508    1.417   .     A
C507   H539    1.082   .     S
C507   N541    1.367   .     A
C508   H540    1.082   .     S
C508   N542    1.367   .     A
C509   C511    1.471   .     S
C509   O549    1.297   .     A
C509   O629    1.296   .     S
C510   O550    1.295   .     A
C510   C512    1.472   .     S
C510   O712    1.298   1_455 S
C511   C515    1.401   .     A
C511   C517    1.401   .     A
C512   C516    1.401   .     A
C512   C518    1.398   .     A
C513   C521    1.403   .     A
C513   C515    1.391   .     A
C513   H615    1.084   .     S
C514   C522    1.404   .     A
C514   H534    1.083   .     S
C514   C516    1.397   .     A
C515   H614    1.083   .     S
C516   H695    1.082   1_455 S
C517   H530    1.075   .     S
C517   C519    1.403   .     A
C518   H529    1.078   .     S
C518   C520    1.403   .     A
C519   C521    1.415   .     A
C519   C523    1.423   .     A
C520   C524    1.416   .     A
C520   C522    1.410   .     A
C521   C1235   1.391   .     S
C522   C1236   1.394   1_554 S
C523   C1262   1.423   .     S
C524   C1261   1.423   1_554 S
Cu525  O547    1.926   .     S
Cu525  O550    1.918   .     S
Cu525  N541    2.013   .     S
Cu525  O546    1.962   .     S
Cu525  O543    1.959   .     S
Cu525  Cu690   2.678   1_455 S
Cu526  O548    1.926   .     S
Cu526  O549    1.918   .     S
Cu526  N542    2.013   .     S
Cu526  O544    1.959   .     S
Cu526  O545    1.962   .     S
Cu526  Cu607   2.678   .     S
H531   C598    1.082   .     S
H532   C679    1.083   1_455 S
H533   C677    1.084   1_455 S
O545   C575    1.289   .     S
O546   C658    1.288   1_455 S
O547   C673    1.296   1_455 S
O548   C592    1.298   .     S
C551   H556    1.100   .     S
C551   C552    1.529   .     S
C551   H557    1.110   .     S
C552   H555    1.110   .     S
C552   H554    1.109   .     S
C552   H553    1.111   .     S
C558   H564    1.112   .     S
C558   C559    1.529   .     S
C558   H563    1.102   .     S
C559   H560    1.111   .     S
C559   H561    1.108   .     S
C559   H562    1.111   .     S
S565   O566    1.502   .     D
S565   O567    1.504   .     D
S565   O568    1.681   .     S
O568   H569    0.991   .     S
S570   O572    1.504   .     D
S570   O571    1.503   .     D
S570   O573    1.679   .     S
O573   H574    0.990   .     S
C575   C586    1.447   .     S
C575   O625    1.292   .     A
C576   O626    1.293   .     A
C576   C667    1.448   .     S
C576   O710    1.288   .     S
C577   C579    1.398   .     A
C577   C606    1.430   .     A
C577   C633    1.527   .     S
C578   C580    1.406   .     A
C578   C640    1.529   .     S
C578   C605    1.437   .     A
C579   H609    1.081   .     S
C579   C1341   1.391   1_554 S
C580   H610    1.085   .     S
C580   C1342   1.394   .     S
C581   S647    1.775   .     S
C581   C668    1.411   .     S
C582   S652    1.774   .     S
C582   C585    1.412   .     A
C582   C92     1.388   1_565 S
C583   H617    1.084   .     S
C583   C89     1.389   1_565 S
C583   C667    1.399   .     S
C584   H618    1.084   .     S
C584   C586    1.398   .     A
C587   H619    1.082   .     S
C587   C589    1.417   .     A
C587   N624    1.367   .     A
C588   H620    1.080   .     S
C588   N623    1.366   .     A
C588   C590    1.417   .     A
C589   H621    1.082   .     S
C589   N623    1.367   .     A
C590   H622    1.082   .     S
C590   N624    1.367   .     A
C591   C593    1.471   .     S
C591   O631    1.297   .     A
C591   O711    1.296   .     S
C592   O632    1.295   .     A
C592   C594    1.472   .     S
C593   C597    1.401   .     A
C593   C599    1.401   .     A
C594   C598    1.401   .     A
C594   C600    1.398   .     A
C595   C603    1.403   .     A
C595   C597    1.391   .     A
C595   H697    1.084   .     S
C596   C604    1.404   .     A
C596   H616    1.083   .     S
C596   C598    1.397   .     A
C597   H696    1.083   .     S
C599   H612    1.075   .     S
C599   C601    1.403   .     A
C600   H611    1.078   .     S
C600   C602    1.403   .     A
C601   C603    1.415   .     A
C601   C605    1.423   .     A
C602   C606    1.416   .     A
C602   C604    1.410   .     A
C603   C1317   1.391   .     S
C604   C1318   1.394   1_554 S
C605   C1344   1.423   .     S
C606   C1343   1.423   1_554 S
Cu607  O629    1.926   .     S
Cu607  O632    1.918   .     S
Cu607  N623    2.013   .     S
Cu607  O628    1.962   .     S
Cu607  O625    1.959   .     S
Cu608  O630    1.926   .     S
Cu608  O631    1.918   .     S
Cu608  N624    2.013   .     S
Cu608  O626    1.959   .     S
Cu608  O627    1.962   .     S
Cu608  Cu689   2.678   .     S
H613   C680    1.082   .     S
O627   C657    1.289   .     S
O630   C674    1.298   .     S
C633   H638    1.100   .     S
C633   C634    1.529   .     S
C633   H639    1.110   .     S
C634   H637    1.110   .     S
C634   H636    1.109   .     S
C634   H635    1.111   .     S
C640   H646    1.112   .     S
C640   C641    1.529   .     S
C640   H645    1.102   .     S
C641   H642    1.111   .     S
C641   H643    1.108   .     S
C641   H644    1.111   .     S
S647   O648    1.502   .     D
S647   O649    1.504   .     D
S647   O650    1.681   .     S
O650   H651    0.991   .     S
S652   O654    1.504   .     D
S652   O653    1.503   .     D
S652   O655    1.679   .     S
O655   H656    0.990   .     S
C657   C668    1.447   .     S
C657   O707    1.292   .     A
C658   O708    1.293   .     A
C658   C503    1.448   1_655 S
C658   O546    1.288   1_655 S
C659   C661    1.398   .     A
C659   C688    1.430   .     A
C659   C715    1.527   .     S
C660   C662    1.406   .     A
C660   C722    1.529   .     S
C660   C687    1.437   .     A
C661   H691    1.081   .     S
C661   C1423   1.391   1_554 S
C662   H692    1.085   .     S
C662   C1424   1.394   .     S
C663   S729    1.775   .     S
C663   C504    1.411   1_655 S
C664   S734    1.774   .     S
C664   C667    1.412   .     A
C664   C174    1.388   1_565 S
C665   H699    1.084   .     S
C665   C171    1.389   1_565 S
C665   C503    1.399   1_655 S
C666   H700    1.084   .     S
C666   C668    1.398   .     A
C669   H701    1.082   .     S
C669   C671    1.417   .     A
C669   N706    1.367   .     A
C670   H702    1.080   .     S
C670   N705    1.366   .     A
C670   C672    1.417   .     A
C671   H703    1.082   .     S
C671   N705    1.367   .     A
C672   H704    1.082   .     S
C672   N706    1.367   .     A
C673   C675    1.471   .     S
C673   O713    1.297   .     A
C673   O547    1.296   1_655 S
C674   O714    1.295   .     A
C674   C676    1.472   .     S
C675   C679    1.401   .     A
C675   C681    1.401   .     A
C676   C680    1.401   .     A
C676   C682    1.398   .     A
C677   C685    1.403   .     A
C677   C679    1.391   .     A
C677   H533    1.084   1_655 S
C678   C686    1.404   .     A
C678   H698    1.083   .     S
C678   C680    1.397   .     A
C679   H532    1.083   1_655 S
C681   H694    1.075   .     S
C681   C683    1.403   .     A
C682   H693    1.078   .     S
C682   C684    1.403   .     A
C683   C685    1.415   .     A
C683   C687    1.423   .     A
C684   C688    1.416   .     A
C684   C686    1.410   .     A
C685   C1399   1.391   .     S
C686   C1400   1.394   1_554 S
C687   C1426   1.423   .     S
C688   C1425   1.423   1_554 S
Cu689  O711    1.926   .     S
Cu689  O714    1.918   .     S
Cu689  N705    2.013   .     S
Cu689  O710    1.962   .     S
Cu689  O707    1.959   .     S
Cu690  O712    1.926   .     S
Cu690  O713    1.918   .     S
Cu690  N706    2.013   .     S
Cu690  O708    1.959   .     S
Cu690  O709    1.962   .     S
Cu690  Cu525   2.678   1_655 S
H695   C516    1.082   1_655 S
O709   C493    1.289   1_655 S
O712   C510    1.298   1_655 S
C715   H720    1.100   .     S
C715   C716    1.529   .     S
C715   H721    1.110   .     S
C716   H719    1.110   .     S
C716   H718    1.109   .     S
C716   H717    1.111   .     S
C722   H728    1.112   .     S
C722   C723    1.529   .     S
C722   H727    1.102   .     S
C723   H724    1.111   .     S
C723   H725    1.108   .     S
C723   H726    1.111   .     S
S729   O730    1.502   .     D
S729   O731    1.504   .     D
S729   O732    1.681   .     S
O732   H733    0.991   .     S
S734   O736    1.504   .     D
S734   O735    1.503   .     D
S734   O737    1.679   .     S
O737   H738    0.990   .     S
C739   C750    1.447   .     S
C739   O789    1.292   .     A
C739   O955    1.289   1_455 S
C740   O790    1.293   .     A
C740   C831    1.448   .     S
C740   O874    1.288   .     S
C741   C743    1.398   .     A
C741   C770    1.430   .     A
C741   C797    1.527   .     S
C742   C744    1.406   .     A
C742   C804    1.529   .     S
C742   C769    1.437   .     A
C743   H773    1.081   .     S
C744   H774    1.085   .     S
C744   C30     1.394   1_556 S
C745   S811    1.775   .     S
C745   C1239   1.389   1_545 S
C745   C832    1.411   .     S
C746   S816    1.774   .     S
C746   C749    1.412   .     A
C746   C994    1.388   .     S
C747   H781    1.084   .     S
C747   C991    1.389   .     S
C747   C831    1.399   .     S
C748   H782    1.084   .     S
C748   C750    1.398   .     A
C748   C1238   1.388   1_545 S
C749   C911    1.399   1_455 S
C749   C904    1.448   1_455 S
C750   C909    1.411   1_455 S
C751   H783    1.082   .     S
C751   C753    1.417   .     A
C751   N788    1.367   .     A
C752   H784    1.080   .     S
C752   N787    1.366   .     A
C752   C754    1.417   .     A
C753   H785    1.082   .     S
C753   N787    1.367   .     A
C754   H786    1.082   .     S
C754   N788    1.367   .     A
C755   C757    1.471   .     S
C755   O795    1.297   .     A
C755   O875    1.296   .     S
C756   O796    1.295   .     A
C756   C758    1.472   .     S
C756   O958    1.298   1_455 S
C757   C761    1.401   .     A
C757   C763    1.401   .     A
C758   C762    1.401   .     A
C758   C764    1.398   .     A
C759   C767    1.403   .     A
C759   C761    1.391   .     A
C759   H861    1.084   .     S
C760   C768    1.404   .     A
C760   H780    1.083   .     S
C760   C762    1.397   .     A
C761   H860    1.083   .     S
C762   H941    1.082   1_455 S
C763   H776    1.075   .     S
C763   C765    1.403   .     A
C764   H775    1.078   .     S
C764   C766    1.403   .     A
C765   C767    1.415   .     A
C765   C769    1.423   .     A
C766   C770    1.416   .     A
C766   C768    1.410   .     A
C767   C5      1.391   1_556 S
C769   C32     1.423   1_556 S
Cu771  O793    1.926   .     S
Cu771  O796    1.918   .     S
Cu771  N787    2.013   .     S
Cu771  O792    1.962   .     S
Cu771  O789    1.959   .     S
Cu771  Cu936   2.678   1_455 S
Cu772  O794    1.926   .     S
Cu772  O795    1.918   .     S
Cu772  N788    2.013   .     S
Cu772  O790    1.959   .     S
Cu772  O791    1.962   .     S
Cu772  Cu853   2.678   .     S
H777   C844    1.082   .     S
H778   C925    1.083   1_455 S
H779   C923    1.084   1_455 S
O791   C821    1.289   .     S
O792   C904    1.288   1_455 S
O793   C919    1.296   1_455 S
O794   C838    1.298   .     S
C797   H802    1.100   .     S
C797   C798    1.529   .     S
C797   H803    1.110   .     S
C798   H801    1.110   .     S
C798   H800    1.109   .     S
C798   H799    1.111   .     S
C804   H810    1.112   .     S
C804   C805    1.529   .     S
C804   H809    1.102   .     S
C805   H806    1.111   .     S
C805   H807    1.108   .     S
C805   H808    1.111   .     S
S811   O812    1.502   .     D
S811   O813    1.504   .     D
S811   O814    1.681   .     S
O814   H815    0.991   .     S
S816   O818    1.504   .     D
S816   O817    1.503   .     D
S816   O819    1.679   .     S
O819   H820    0.990   .     S
C821   C832    1.447   .     S
C821   O871    1.292   .     A
C822   O872    1.293   .     A
C822   C913    1.448   .     S
C822   O956    1.288   .     S
C823   C825    1.398   .     A
C823   C852    1.430   .     A
C823   C879    1.527   .     S
C824   C826    1.406   .     A
C824   C886    1.529   .     S
C824   C851    1.437   .     A
C825   H855    1.081   .     S
C826   H856    1.085   .     S
C826   C112    1.394   1_556 S
C827   S893    1.775   .     S
C827   C1321   1.389   1_545 S
C827   C914    1.411   .     S
C828   S898    1.774   .     S
C828   C831    1.412   .     A
C828   C1076   1.388   .     S
C829   H863    1.084   .     S
C829   C1073   1.389   .     S
C829   C913    1.399   .     S
C830   H864    1.084   .     S
C830   C832    1.398   .     A
C830   C1320   1.388   1_545 S
C833   H865    1.082   .     S
C833   C835    1.417   .     A
C833   N870    1.367   .     A
C834   H866    1.080   .     S
C834   N869    1.366   .     A
C834   C836    1.417   .     A
C835   H867    1.082   .     S
C835   N869    1.367   .     A
C836   H868    1.082   .     S
C836   N870    1.367   .     A
C837   C839    1.471   .     S
C837   O877    1.297   .     A
C837   O957    1.296   .     S
C838   O878    1.295   .     A
C838   C840    1.472   .     S
C839   C843    1.401   .     A
C839   C845    1.401   .     A
C840   C844    1.401   .     A
C840   C846    1.398   .     A
C841   C849    1.403   .     A
C841   C843    1.391   .     A
C841   H943    1.084   .     S
C842   C850    1.404   .     A
C842   H862    1.083   .     S
C842   C844    1.397   .     A
C843   H942    1.083   .     S
C845   H858    1.075   .     S
C845   C847    1.403   .     A
C846   H857    1.078   .     S
C846   C848    1.403   .     A
C847   C849    1.415   .     A
C847   C851    1.423   .     A
C848   C852    1.416   .     A
C848   C850    1.410   .     A
C849   C87     1.391   1_556 S
C851   C114    1.423   1_556 S
Cu853  O875    1.926   .     S
Cu853  O878    1.918   .     S
Cu853  N869    2.013   .     S
Cu853  O874    1.962   .     S
Cu853  O871    1.959   .     S
Cu854  O876    1.926   .     S
Cu854  O877    1.918   .     S
Cu854  N870    2.013   .     S
Cu854  O872    1.959   .     S
Cu854  O873    1.962   .     S
Cu854  Cu935   2.678   .     S
H859   C926    1.082   .     S
O873   C903    1.289   .     S
O876   C920    1.298   .     S
C879   H884    1.100   .     S
C879   C880    1.529   .     S
C879   H885    1.110   .     S
C880   H883    1.110   .     S
C880   H882    1.109   .     S
C880   H881    1.111   .     S
C886   H892    1.112   .     S
C886   C887    1.529   .     S
C886   H891    1.102   .     S
C887   H888    1.111   .     S
C887   H889    1.108   .     S
C887   H890    1.111   .     S
S893   O894    1.502   .     D
S893   O895    1.504   .     D
S893   O896    1.681   .     S
O896   H897    0.991   .     S
S898   O900    1.504   .     D
S898   O899    1.503   .     D
S898   O901    1.679   .     S
O901   H902    0.990   .     S
C903   C914    1.447   .     S
C903   O953    1.292   .     A
C904   O954    1.293   .     A
C904   C749    1.448   1_655 S
C904   O792    1.288   1_655 S
C905   C907    1.398   .     A
C905   C934    1.430   .     A
C905   C961    1.527   .     S
C906   C908    1.406   .     A
C906   C968    1.529   .     S
C906   C933    1.437   .     A
C907   H937    1.081   .     S
C908   H938    1.085   .     S
C908   C194    1.394   1_556 S
C909   S975    1.775   .     S
C909   C1403   1.389   1_545 S
C909   C750    1.411   1_655 S
C910   S980    1.774   .     S
C910   C913    1.412   .     A
C910   C1158   1.388   .     S
C911   H945    1.084   .     S
C911   C1155   1.389   .     S
C911   C749    1.399   1_655 S
C912   H946    1.084   .     S
C912   C914    1.398   .     A
C912   C1402   1.388   1_545 S
C915   H947    1.082   .     S
C915   C917    1.417   .     A
C915   N952    1.367   .     A
C916   H948    1.080   .     S
C916   N951    1.366   .     A
C916   C918    1.417   .     A
C917   H949    1.082   .     S
C917   N951    1.367   .     A
C918   H950    1.082   .     S
C918   N952    1.367   .     A
C919   C921    1.471   .     S
C919   O959    1.297   .     A
C919   O793    1.296   1_655 S
C920   O960    1.295   .     A
C920   C922    1.472   .     S
C921   C925    1.401   .     A
C921   C927    1.401   .     A
C922   C926    1.401   .     A
C922   C928    1.398   .     A
C923   C931    1.403   .     A
C923   C925    1.391   .     A
C923   H779    1.084   1_655 S
C924   C932    1.404   .     A
C924   H944    1.083   .     S
C924   C926    1.397   .     A
C925   H778    1.083   1_655 S
C927   H940    1.075   .     S
C927   C929    1.403   .     A
C928   H939    1.078   .     S
C928   C930    1.403   .     A
C929   C931    1.415   .     A
C929   C933    1.423   .     A
C930   C934    1.416   .     A
C930   C932    1.410   .     A
C931   C169    1.391   1_556 S
C933   C196    1.423   1_556 S
Cu935  O957    1.926   .     S
Cu935  O960    1.918   .     S
Cu935  N951    2.013   .     S
Cu935  O956    1.962   .     S
Cu935  O953    1.959   .     S
Cu936  O958    1.926   .     S
Cu936  O959    1.918   .     S
Cu936  N952    2.013   .     S
Cu936  O954    1.959   .     S
Cu936  O955    1.962   .     S
Cu936  Cu771   2.678   1_655 S
H941   C762    1.082   1_655 S
O955   C739    1.289   1_655 S
O958   C756    1.298   1_655 S
C961   H966    1.100   .     S
C961   C962    1.529   .     S
C961   H967    1.110   .     S
C962   H965    1.110   .     S
C962   H964    1.109   .     S
C962   H963    1.111   .     S
C968   H974    1.112   .     S
C968   C969    1.529   .     S
C968   H973    1.102   .     S
C969   H970    1.111   .     S
C969   H971    1.108   .     S
C969   H972    1.111   .     S
S975   O976    1.502   .     D
S975   O977    1.504   .     D
S975   O978    1.681   .     S
O978   H979    0.991   .     S
S980   O982    1.504   .     D
S980   O981    1.503   .     D
S980   O983    1.679   .     S
O983   H984    0.990   .     S
C985   C996    1.447   .     S
C985   O1035   1.292   .     A
C985   O1201   1.289   1_455 S
C986   O1036   1.293   .     A
C986   C1077   1.448   .     S
C986   O1120   1.288   .     S
C987   C989    1.398   .     A
C987   C1016   1.430   .     A
C987   C1043   1.527   .     S
C988   C990    1.406   .     A
C988   C1050   1.529   .     S
C988   C1015   1.437   .     A
C989   H1019   1.081   .     S
C990   H1020   1.085   .     S
C990   C276    1.394   1_556 S
C991   S1057   1.775   .     S
C991   C1078   1.411   .     S
C992   S1062   1.774   .     S
C992   C995    1.412   .     A
C992   C1240   1.388   .     S
C993   H1027   1.084   .     S
C993   C1237   1.389   .     S
C993   C1077   1.399   .     S
C994   H1028   1.084   .     S
C994   C996    1.398   .     A
C995   C1157   1.399   1_455 S
C995   C1150   1.448   1_455 S
C996   C1155   1.411   1_455 S
C997   H1029   1.082   .     S
C997   C999    1.417   .     A
C997   N1034   1.367   .     A
C998   H1030   1.080   .     S
C998   N1033   1.366   .     A
C998   C1000   1.417   .     A
C999   H1031   1.082   .     S
C999   N1033   1.367   .     A
C1000  H1032   1.082   .     S
C1000  N1034   1.367   .     A
C1001  C1003   1.471   .     S
C1001  O1041   1.297   .     A
C1001  O1121   1.296   .     S
C1002  O1042   1.295   .     A
C1002  C1004   1.472   .     S
C1002  O1204   1.298   1_455 S
C1003  C1007   1.401   .     A
C1003  C1009   1.401   .     A
C1004  C1008   1.401   .     A
C1004  C1010   1.398   .     A
C1005  C1013   1.403   .     A
C1005  C1007   1.391   .     A
C1005  H1107   1.084   .     S
C1006  C1014   1.404   .     A
C1006  H1026   1.083   .     S
C1006  C1008   1.397   .     A
C1007  H1106   1.083   .     S
C1008  H1187   1.082   1_455 S
C1009  H1022   1.075   .     S
C1009  C1011   1.403   .     A
C1010  H1021   1.078   .     S
C1010  C1012   1.403   .     A
C1011  C1013   1.415   .     A
C1011  C1015   1.423   .     A
C1012  C1016   1.416   .     A
C1012  C1014   1.410   .     A
C1013  C251    1.391   1_556 S
C1015  C278    1.423   1_556 S
Cu1017 O1039   1.926   .     S
Cu1017 O1042   1.918   .     S
Cu1017 N1033   2.013   .     S
Cu1017 O1038   1.962   .     S
Cu1017 O1035   1.959   .     S
Cu1017 Cu1182  2.678   1_455 S
Cu1018 O1040   1.926   .     S
Cu1018 O1041   1.918   .     S
Cu1018 N1034   2.013   .     S
Cu1018 O1036   1.959   .     S
Cu1018 O1037   1.962   .     S
Cu1018 Cu1099  2.678   .     S
H1023  C1090   1.082   .     S
H1024  C1171   1.083   1_455 S
H1025  C1169   1.084   1_455 S
O1037  C1067   1.289   .     S
O1038  C1150   1.288   1_455 S
O1039  C1165   1.296   1_455 S
O1040  C1084   1.298   .     S
C1043  H1048   1.100   .     S
C1043  C1044   1.529   .     S
C1043  H1049   1.110   .     S
C1044  H1047   1.110   .     S
C1044  H1046   1.109   .     S
C1044  H1045   1.111   .     S
C1050  H1056   1.112   .     S
C1050  C1051   1.529   .     S
C1050  H1055   1.102   .     S
C1051  H1052   1.111   .     S
C1051  H1053   1.108   .     S
C1051  H1054   1.111   .     S
S1057  O1058   1.502   .     D
S1057  O1059   1.504   .     D
S1057  O1060   1.681   .     S
O1060  H1061   0.991   .     S
S1062  O1064   1.504   .     D
S1062  O1063   1.503   .     D
S1062  O1065   1.679   .     S
O1065  H1066   0.990   .     S
C1067  C1078   1.447   .     S
C1067  O1117   1.292   .     A
C1068  O1118   1.293   .     A
C1068  C1159   1.448   .     S
C1068  O1202   1.288   .     S
C1069  C1071   1.398   .     A
C1069  C1098   1.430   .     A
C1069  C1125   1.527   .     S
C1070  C1072   1.406   .     A
C1070  C1132   1.529   .     S
C1070  C1097   1.437   .     A
C1071  H1101   1.081   .     S
C1072  H1102   1.085   .     S
C1072  C358    1.394   1_556 S
C1073  S1139   1.775   .     S
C1073  C1160   1.411   .     S
C1074  S1144   1.774   .     S
C1074  C1077   1.412   .     A
C1074  C1322   1.388   .     S
C1075  H1109   1.084   .     S
C1075  C1319   1.389   .     S
C1075  C1159   1.399   .     S
C1076  H1110   1.084   .     S
C1076  C1078   1.398   .     A
C1079  H1111   1.082   .     S
C1079  C1081   1.417   .     A
C1079  N1116   1.367   .     A
C1080  H1112   1.080   .     S
C1080  N1115   1.366   .     A
C1080  C1082   1.417   .     A
C1081  H1113   1.082   .     S
C1081  N1115   1.367   .     A
C1082  H1114   1.082   .     S
C1082  N1116   1.367   .     A
C1083  C1085   1.471   .     S
C1083  O1123   1.297   .     A
C1083  O1203   1.296   .     S
C1084  O1124   1.295   .     A
C1084  C1086   1.472   .     S
C1085  C1089   1.401   .     A
C1085  C1091   1.401   .     A
C1086  C1090   1.401   .     A
C1086  C1092   1.398   .     A
C1087  C1095   1.403   .     A
C1087  C1089   1.391   .     A
C1087  H1189   1.084   .     S
C1088  C1096   1.404   .     A
C1088  H1108   1.083   .     S
C1088  C1090   1.397   .     A
C1089  H1188   1.083   .     S
C1091  H1104   1.075   .     S
C1091  C1093   1.403   .     A
C1092  H1103   1.078   .     S
C1092  C1094   1.403   .     A
C1093  C1095   1.415   .     A
C1093  C1097   1.423   .     A
C1094  C1098   1.416   .     A
C1094  C1096   1.410   .     A
C1095  C333    1.391   1_556 S
C1097  C360    1.423   1_556 S
Cu1099 O1121   1.926   .     S
Cu1099 O1124   1.918   .     S
Cu1099 N1115   2.013   .     S
Cu1099 O1120   1.962   .     S
Cu1099 O1117   1.959   .     S
Cu1100 O1122   1.926   .     S
Cu1100 O1123   1.918   .     S
Cu1100 N1116   2.013   .     S
Cu1100 O1118   1.959   .     S
Cu1100 O1119   1.962   .     S
Cu1100 Cu1181  2.678   .     S
H1105  C1172   1.082   .     S
O1119  C1149   1.289   .     S
O1122  C1166   1.298   .     S
C1125  H1130   1.100   .     S
C1125  C1126   1.529   .     S
C1125  H1131   1.110   .     S
C1126  H1129   1.110   .     S
C1126  H1128   1.109   .     S
C1126  H1127   1.111   .     S
C1132  H1138   1.112   .     S
C1132  C1133   1.529   .     S
C1132  H1137   1.102   .     S
C1133  H1134   1.111   .     S
C1133  H1135   1.108   .     S
C1133  H1136   1.111   .     S
S1139  O1140   1.502   .     D
S1139  O1141   1.504   .     D
S1139  O1142   1.681   .     S
O1142  H1143   0.991   .     S
S1144  O1146   1.504   .     D
S1144  O1145   1.503   .     D
S1144  O1147   1.679   .     S
O1147  H1148   0.990   .     S
C1149  C1160   1.447   .     S
C1149  O1199   1.292   .     A
C1150  O1200   1.293   .     A
C1150  C995    1.448   1_655 S
C1150  O1038   1.288   1_655 S
C1151  C1153   1.398   .     A
C1151  C1180   1.430   .     A
C1151  C1207   1.527   .     S
C1152  C1154   1.406   .     A
C1152  C1214   1.529   .     S
C1152  C1179   1.437   .     A
C1153  H1183   1.081   .     S
C1154  H1184   1.085   .     S
C1154  C440    1.394   1_556 S
C1155  S1221   1.775   .     S
C1155  C996    1.411   1_655 S
C1156  S1226   1.774   .     S
C1156  C1159   1.412   .     A
C1156  C1404   1.388   .     S
C1157  H1191   1.084   .     S
C1157  C1401   1.389   .     S
C1157  C995    1.399   1_655 S
C1158  H1192   1.084   .     S
C1158  C1160   1.398   .     A
C1161  H1193   1.082   .     S
C1161  C1163   1.417   .     A
C1161  N1198   1.367   .     A
C1162  H1194   1.080   .     S
C1162  N1197   1.366   .     A
C1162  C1164   1.417   .     A
C1163  H1195   1.082   .     S
C1163  N1197   1.367   .     A
C1164  H1196   1.082   .     S
C1164  N1198   1.367   .     A
C1165  C1167   1.471   .     S
C1165  O1205   1.297   .     A
C1165  O1039   1.296   1_655 S
C1166  O1206   1.295   .     A
C1166  C1168   1.472   .     S
C1167  C1171   1.401   .     A
C1167  C1173   1.401   .     A
C1168  C1172   1.401   .     A
C1168  C1174   1.398   .     A
C1169  C1177   1.403   .     A
C1169  C1171   1.391   .     A
C1169  H1025   1.084   1_655 S
C1170  C1178   1.404   .     A
C1170  H1190   1.083   .     S
C1170  C1172   1.397   .     A
C1171  H1024   1.083   1_655 S
C1173  H1186   1.075   .     S
C1173  C1175   1.403   .     A
C1174  H1185   1.078   .     S
C1174  C1176   1.403   .     A
C1175  C1177   1.415   .     A
C1175  C1179   1.423   .     A
C1176  C1180   1.416   .     A
C1176  C1178   1.410   .     A
C1177  C415    1.391   1_556 S
C1179  C442    1.423   1_556 S
Cu1181 O1203   1.926   .     S
Cu1181 O1206   1.918   .     S
Cu1181 N1197   2.013   .     S
Cu1181 O1202   1.962   .     S
Cu1181 O1199   1.959   .     S
Cu1182 O1204   1.926   .     S
Cu1182 O1205   1.918   .     S
Cu1182 N1198   2.013   .     S
Cu1182 O1200   1.959   .     S
Cu1182 O1201   1.962   .     S
Cu1182 Cu1017  2.678   1_655 S
H1187  C1008   1.082   1_655 S
O1201  C985    1.289   1_655 S
O1204  C1002   1.298   1_655 S
C1207  H1212   1.100   .     S
C1207  C1208   1.529   .     S
C1207  H1213   1.110   .     S
C1208  H1211   1.110   .     S
C1208  H1210   1.109   .     S
C1208  H1209   1.111   .     S
C1214  H1220   1.112   .     S
C1214  C1215   1.529   .     S
C1214  H1219   1.102   .     S
C1215  H1216   1.111   .     S
C1215  H1217   1.108   .     S
C1215  H1218   1.111   .     S
S1221  O1222   1.502   .     D
S1221  O1223   1.504   .     D
S1221  O1224   1.681   .     S
O1224  H1225   0.991   .     S
S1226  O1228   1.504   .     D
S1226  O1227   1.503   .     D
S1226  O1229   1.679   .     S
O1229  H1230   0.990   .     S
C1231  C1242   1.447   .     S
C1231  O1281   1.292   .     A
C1231  O1447   1.289   1_455 S
C1232  O1282   1.293   .     A
C1232  C1323   1.448   .     S
C1232  O1366   1.288   .     S
C1233  C1235   1.398   .     A
C1233  C1262   1.430   .     A
C1233  C1289   1.527   .     S
C1234  C1236   1.406   .     A
C1234  C1296   1.529   .     S
C1234  C1261   1.437   .     A
C1235  H1265   1.081   .     S
C1236  H1266   1.085   .     S
C1236  C522    1.394   1_556 S
C1237  S1303   1.775   .     S
C1237  C1324   1.411   .     S
C1238  S1308   1.774   .     S
C1238  C1241   1.412   .     A
C1238  C748    1.388   1_565 S
C1239  H1273   1.084   .     S
C1239  C745    1.389   1_565 S
C1239  C1323   1.399   .     S
C1240  H1274   1.084   .     S
C1240  C1242   1.398   .     A
C1241  C1403   1.399   1_455 S
C1241  C1396   1.448   1_455 S
C1242  C1401   1.411   1_455 S
C1243  H1275   1.082   .     S
C1243  C1245   1.417   .     A
C1243  N1280   1.367   .     A
C1244  H1276   1.080   .     S
C1244  N1279   1.366   .     A
C1244  C1246   1.417   .     A
C1245  H1277   1.082   .     S
C1245  N1279   1.367   .     A
C1246  H1278   1.082   .     S
C1246  N1280   1.367   .     A
C1247  C1249   1.471   .     S
C1247  O1287   1.297   .     A
C1247  O1367   1.296   .     S
C1248  O1288   1.295   .     A
C1248  C1250   1.472   .     S
C1248  O1450   1.298   1_455 S
C1249  C1253   1.401   .     A
C1249  C1255   1.401   .     A
C1250  C1254   1.401   .     A
C1250  C1256   1.398   .     A
C1251  C1259   1.403   .     A
C1251  C1253   1.391   .     A
C1251  H1353   1.084   .     S
C1252  C1260   1.404   .     A
C1252  H1272   1.083   .     S
C1252  C1254   1.397   .     A
C1253  H1352   1.083   .     S
C1254  H1433   1.082   1_455 S
C1255  H1268   1.075   .     S
C1255  C1257   1.403   .     A
C1256  H1267   1.078   .     S
C1256  C1258   1.403   .     A
C1257  C1259   1.415   .     A
C1257  C1261   1.423   .     A
C1258  C1262   1.416   .     A
C1258  C1260   1.410   .     A
C1259  C497    1.391   1_556 S
C1261  C524    1.423   1_556 S
Cu1263 O1285   1.926   .     S
Cu1263 O1288   1.918   .     S
Cu1263 N1279   2.013   .     S
Cu1263 O1284   1.962   .     S
Cu1263 O1281   1.959   .     S
Cu1263 Cu1428  2.678   1_455 S
Cu1264 O1286   1.926   .     S
Cu1264 O1287   1.918   .     S
Cu1264 N1280   2.013   .     S
Cu1264 O1282   1.959   .     S
Cu1264 O1283   1.962   .     S
Cu1264 Cu1345  2.678   .     S
H1269  C1336   1.082   .     S
H1270  C1417   1.083   1_455 S
H1271  C1415   1.084   1_455 S
O1283  C1313   1.289   .     S
O1284  C1396   1.288   1_455 S
O1285  C1411   1.296   1_455 S
O1286  C1330   1.298   .     S
C1289  H1294   1.100   .     S
C1289  C1290   1.529   .     S
C1289  H1295   1.110   .     S
C1290  H1293   1.110   .     S
C1290  H1292   1.109   .     S
C1290  H1291   1.111   .     S
C1296  H1302   1.112   .     S
C1296  C1297   1.529   .     S
C1296  H1301   1.102   .     S
C1297  H1298   1.111   .     S
C1297  H1299   1.108   .     S
C1297  H1300   1.111   .     S
S1303  O1304   1.502   .     D
S1303  O1305   1.504   .     D
S1303  O1306   1.681   .     S
O1306  H1307   0.991   .     S
S1308  O1310   1.504   .     D
S1308  O1309   1.503   .     D
S1308  O1311   1.679   .     S
O1311  H1312   0.990   .     S
C1313  C1324   1.447   .     S
C1313  O1363   1.292   .     A
C1314  O1364   1.293   .     A
C1314  C1405   1.448   .     S
C1314  O1448   1.288   .     S
C1315  C1317   1.398   .     A
C1315  C1344   1.430   .     A
C1315  C1371   1.527   .     S
C1316  C1318   1.406   .     A
C1316  C1378   1.529   .     S
C1316  C1343   1.437   .     A
C1317  H1347   1.081   .     S
C1318  H1348   1.085   .     S
C1318  C604    1.394   1_556 S
C1319  S1385   1.775   .     S
C1319  C1406   1.411   .     S
C1320  S1390   1.774   .     S
C1320  C1323   1.412   .     A
C1320  C830    1.388   1_565 S
C1321  H1355   1.084   .     S
C1321  C827    1.389   1_565 S
C1321  C1405   1.399   .     S
C1322  H1356   1.084   .     S
C1322  C1324   1.398   .     A
C1325  H1357   1.082   .     S
C1325  C1327   1.417   .     A
C1325  N1362   1.367   .     A
C1326  H1358   1.080   .     S
C1326  N1361   1.366   .     A
C1326  C1328   1.417   .     A
C1327  H1359   1.082   .     S
C1327  N1361   1.367   .     A
C1328  H1360   1.082   .     S
C1328  N1362   1.367   .     A
C1329  C1331   1.471   .     S
C1329  O1369   1.297   .     A
C1329  O1449   1.296   .     S
C1330  O1370   1.295   .     A
C1330  C1332   1.472   .     S
C1331  C1335   1.401   .     A
C1331  C1337   1.401   .     A
C1332  C1336   1.401   .     A
C1332  C1338   1.398   .     A
C1333  C1341   1.403   .     A
C1333  C1335   1.391   .     A
C1333  H1435   1.084   .     S
C1334  C1342   1.404   .     A
C1334  H1354   1.083   .     S
C1334  C1336   1.397   .     A
C1335  H1434   1.083   .     S
C1337  H1350   1.075   .     S
C1337  C1339   1.403   .     A
C1338  H1349   1.078   .     S
C1338  C1340   1.403   .     A
C1339  C1341   1.415   .     A
C1339  C1343   1.423   .     A
C1340  C1344   1.416   .     A
C1340  C1342   1.410   .     A
C1341  C579    1.391   1_556 S
C1343  C606    1.423   1_556 S
Cu1345 O1367   1.926   .     S
Cu1345 O1370   1.918   .     S
Cu1345 N1361   2.013   .     S
Cu1345 O1366   1.962   .     S
Cu1345 O1363   1.959   .     S
Cu1346 O1368   1.926   .     S
Cu1346 O1369   1.918   .     S
Cu1346 N1362   2.013   .     S
Cu1346 O1364   1.959   .     S
Cu1346 O1365   1.962   .     S
Cu1346 Cu1427  2.678   .     S
H1351  C1418   1.082   .     S
O1365  C1395   1.289   .     S
O1368  C1412   1.298   .     S
C1371  H1376   1.100   .     S
C1371  C1372   1.529   .     S
C1371  H1377   1.110   .     S
C1372  H1375   1.110   .     S
C1372  H1374   1.109   .     S
C1372  H1373   1.111   .     S
C1378  H1384   1.112   .     S
C1378  C1379   1.529   .     S
C1378  H1383   1.102   .     S
C1379  H1380   1.111   .     S
C1379  H1381   1.108   .     S
C1379  H1382   1.111   .     S
S1385  O1386   1.502   .     D
S1385  O1387   1.504   .     D
S1385  O1388   1.681   .     S
O1388  H1389   0.991   .     S
S1390  O1392   1.504   .     D
S1390  O1391   1.503   .     D
S1390  O1393   1.679   .     S
O1393  H1394   0.990   .     S
C1395  C1406   1.447   .     S
C1395  O1445   1.292   .     A
C1396  O1446   1.293   .     A
C1396  C1241   1.448   1_655 S
C1396  O1284   1.288   1_655 S
C1397  C1399   1.398   .     A
C1397  C1426   1.430   .     A
C1397  C1453   1.527   .     S
C1398  C1400   1.406   .     A
C1398  C1460   1.529   .     S
C1398  C1425   1.437   .     A
C1399  H1429   1.081   .     S
C1400  H1430   1.085   .     S
C1400  C686    1.394   1_556 S
C1401  S1467   1.775   .     S
C1401  C1242   1.411   1_655 S
C1402  S1472   1.774   .     S
C1402  C1405   1.412   .     A
C1402  C912    1.388   1_565 S
C1403  H1437   1.084   .     S
C1403  C909    1.389   1_565 S
C1403  C1241   1.399   1_655 S
C1404  H1438   1.084   .     S
C1404  C1406   1.398   .     A
C1407  H1439   1.082   .     S
C1407  C1409   1.417   .     A
C1407  N1444   1.367   .     A
C1408  H1440   1.080   .     S
C1408  N1443   1.366   .     A
C1408  C1410   1.417   .     A
C1409  H1441   1.082   .     S
C1409  N1443   1.367   .     A
C1410  H1442   1.082   .     S
C1410  N1444   1.367   .     A
C1411  C1413   1.471   .     S
C1411  O1451   1.297   .     A
C1411  O1285   1.296   1_655 S
C1412  O1452   1.295   .     A
C1412  C1414   1.472   .     S
C1413  C1417   1.401   .     A
C1413  C1419   1.401   .     A
C1414  C1418   1.401   .     A
C1414  C1420   1.398   .     A
C1415  C1423   1.403   .     A
C1415  C1417   1.391   .     A
C1415  H1271   1.084   1_655 S
C1416  C1424   1.404   .     A
C1416  H1436   1.083   .     S
C1416  C1418   1.397   .     A
C1417  H1270   1.083   1_655 S
C1419  H1432   1.075   .     S
C1419  C1421   1.403   .     A
C1420  H1431   1.078   .     S
C1420  C1422   1.403   .     A
C1421  C1423   1.415   .     A
C1421  C1425   1.423   .     A
C1422  C1426   1.416   .     A
C1422  C1424   1.410   .     A
C1423  C661    1.391   1_556 S
C1425  C688    1.423   1_556 S
Cu1427 O1449   1.926   .     S
Cu1427 O1452   1.918   .     S
Cu1427 N1443   2.013   .     S
Cu1427 O1448   1.962   .     S
Cu1427 O1445   1.959   .     S
Cu1428 O1450   1.926   .     S
Cu1428 O1451   1.918   .     S
Cu1428 N1444   2.013   .     S
Cu1428 O1446   1.959   .     S
Cu1428 O1447   1.962   .     S
Cu1428 Cu1263  2.678   1_655 S
H1433  C1254   1.082   1_655 S
O1447  C1231   1.289   1_655 S
O1450  C1248   1.298   1_655 S
C1453  H1458   1.100   .     S
C1453  C1454   1.529   .     S
C1453  H1459   1.110   .     S
C1454  H1457   1.110   .     S
C1454  H1456   1.109   .     S
C1454  H1455   1.111   .     S
C1460  H1466   1.112   .     S
C1460  C1461   1.529   .     S
C1460  H1465   1.102   .     S
C1461  H1462   1.111   .     S
C1461  H1463   1.108   .     S
C1461  H1464   1.111   .     S
S1467  O1468   1.502   .     D
S1467  O1469   1.504   .     D
S1467  O1470   1.681   .     S
O1470  H1471   0.991   .     S
S1472  O1474   1.504   .     D
S1472  O1473   1.503   .     D
S1472  O1475   1.679   .     S
O1475  H1476   0.990   .     S
