data_str_m3_o10_o18_pcu_sym.9
_audit_creation_date              2020-01-03
_audit_creation_method            'Materials Studio'
_symmetry_space_group_name_H-M    'P1'
_symmetry_Int_Tables_number       1
_symmetry_cell_setting            triclinic
loop_
_symmetry_equiv_pos_as_xyz
  x,y,z
_cell_length_a                    23.5905
_cell_length_b                    25.6789
_cell_length_c                    27.3057
_cell_angle_alpha                 93.6167
_cell_angle_beta                  93.6188
_cell_angle_gamma                 93.8434
loop_
_atom_site_label
_atom_site_type_symbol
_atom_site_fract_x
_atom_site_fract_y
_atom_site_fract_z
_atom_site_U_iso_or_equiv
_atom_site_adp_type
_atom_site_occupancy
C1     C     0.01494   0.26483   0.24886   0.00000  Uiso   1.00
C2     C     0.31211   0.16283   0.15873   0.00000  Uiso   1.00
C3     C     0.03496   0.18618   0.39307   0.00000  Uiso   1.00
C4     C     0.30266   0.16153   0.10551   0.00000  Uiso   1.00
C5     C     0.03455   0.25071   0.46132   0.00000  Uiso   1.00
C6     C     0.32513   0.13105   0.02406   0.00000  Uiso   1.00
C7     C     0.00932   0.22739   0.41701   0.00000  Uiso   1.00
C8     C     0.00588   0.13685   0.07446   0.00000  Uiso   1.00
C9     C     0.08393   0.16761   0.41416   0.00000  Uiso   1.00
C10    C     0.25518   0.18420   0.08582   0.00000  Uiso   1.00
C11    C     0.11487   0.19617   0.45327   0.00000  Uiso   1.00
C12    C     0.31840   0.06851   0.25121   0.00000  Uiso   1.00
C13    C     0.24254   0.18216   0.03509   0.00000  Uiso   1.00
C14    C     0.08789   0.23596   0.47919   0.00000  Uiso   1.00
C15    C     0.27549   0.15141   0.00456   0.00000  Uiso   1.00
C16    C     0.17128   0.18533   0.46764   0.00000  Uiso   1.00
C17    C     0.19415   0.20492   0.01487   0.00000  Uiso   1.00
C18    C     0.16829   0.24673   0.03975   0.00000  Uiso   1.00
C19    C     0.20626   0.15713   0.43611   0.00000  Uiso   1.00
C20    C     0.11535   0.26168   0.02135   0.00000  Uiso   1.00
C21    C     0.25791   0.14045   0.45529   0.00000  Uiso   1.00
C22    C     0.02275   0.31936   0.24818   0.00000  Uiso   1.00
C23    C     0.31061   0.01399   0.25198   0.00000  Uiso   1.00
C24    C     0.02150   0.17166   0.34121   0.00000  Uiso   1.00
H25    H     0.09562   0.29360   0.03999   0.00000  Uiso   1.00
H26    H     0.26769   0.33038   0.25565   0.00000  Uiso   1.00
H27    H     0.17388   0.30353   0.09134   0.00000  Uiso   1.00
H28    H     0.22002   0.12872   0.37015   0.00000  Uiso   1.00
H29    H     0.13119   0.09649   0.19080   0.00000  Uiso   1.00
H30    H     0.20215   0.23671   0.30935   0.00000  Uiso   1.00
H31    H     0.28405   0.11807   0.43173   0.00000  Uiso   1.00
H32    H     0.22621   0.20035   0.11082   0.00000  Uiso   1.00
H33    H     0.09871   0.13213   0.39758   0.00000  Uiso   1.00
H34    H     0.04340   0.11965   0.08933   0.00000  Uiso   1.00
H35    H     0.30457   0.24252   0.40075   0.00000  Uiso   1.00
H36    H     0.01404   0.28201   0.48008   0.00000  Uiso   1.00
H37    H     0.01857   0.10926   0.00062   0.00000  Uiso   1.00
H38    H     0.06567   0.00296   0.24452   0.00000  Uiso   1.00
N39    N     0.14695   0.15216   0.23739   0.00000  Uiso   1.00
N40    N     0.18638   0.18117   0.26260   0.00000  Uiso   1.00
O41    O     0.29719   0.24631   0.25309   0.00000  Uiso   1.00
O42    O     0.19237   0.15059   0.38605   0.00000  Uiso   1.00
O43    O     0.16605   0.11525   0.20710   0.00000  Uiso   1.00
O44    O     0.16729   0.21806   0.29292   0.00000  Uiso   1.00
O45    O     0.03614   0.08702   0.24690   0.00000  Uiso   1.00
O46    O     0.05822   0.23702   0.24501   0.00000  Uiso   1.00
O47    O     0.27512   0.09632   0.25498   0.00000  Uiso   1.00
O48    O     0.30328   0.17397   0.32247   0.00000  Uiso   1.00
O49    O     0.03005   0.15937   0.17753   0.00000  Uiso   1.00
O50    O     0.06431   0.16467   0.31439   0.00000  Uiso   1.00
O51    O     0.26902   0.16866   0.18561   0.00000  Uiso   1.00
O52    O     0.19766   0.27585   0.07880   0.00000  Uiso   1.00
Zn53   Zn    0.27033   0.17287   0.25539   0.00000  Uiso   1.00
Zn54   Zn    0.06300   0.16046   0.24460   0.00000  Uiso   1.00
C55    C     0.34828   0.26483   0.24886   0.00000  Uiso   1.00
C56    C     0.64545   0.16283   0.15873   0.00000  Uiso   1.00
C57    C     0.36829   0.18618   0.39307   0.00000  Uiso   1.00
C58    C     0.63599   0.16153   0.10551   0.00000  Uiso   1.00
C59    C     0.36788   0.25071   0.46132   0.00000  Uiso   1.00
C60    C     0.65847   0.13105   0.02406   0.00000  Uiso   1.00
C61    C     0.34265   0.22739   0.41701   0.00000  Uiso   1.00
C62    C     0.33921   0.13685   0.07446   0.00000  Uiso   1.00
C63    C     0.41726   0.16761   0.41416   0.00000  Uiso   1.00
C64    C     0.58851   0.18420   0.08582   0.00000  Uiso   1.00
C65    C     0.44820   0.19617   0.45327   0.00000  Uiso   1.00
C66    C     0.65173   0.06851   0.25121   0.00000  Uiso   1.00
C67    C     0.57587   0.18216   0.03509   0.00000  Uiso   1.00
C68    C     0.42123   0.23596   0.47919   0.00000  Uiso   1.00
C69    C     0.60882   0.15141   0.00456   0.00000  Uiso   1.00
C70    C     0.50461   0.18533   0.46764   0.00000  Uiso   1.00
C71    C     0.52749   0.20492   0.01487   0.00000  Uiso   1.00
C72    C     0.50163   0.24673   0.03975   0.00000  Uiso   1.00
C73    C     0.53959   0.15713   0.43611   0.00000  Uiso   1.00
C74    C     0.44868   0.26168   0.02135   0.00000  Uiso   1.00
C75    C     0.59124   0.14045   0.45529   0.00000  Uiso   1.00
C76    C     0.35608   0.31936   0.24818   0.00000  Uiso   1.00
C77    C     0.64394   0.01399   0.25198   0.00000  Uiso   1.00
C78    C     0.35483   0.17166   0.34121   0.00000  Uiso   1.00
H79    H     0.42895   0.29360   0.03999   0.00000  Uiso   1.00
H80    H     0.60102   0.33038   0.25565   0.00000  Uiso   1.00
H81    H     0.50721   0.30353   0.09134   0.00000  Uiso   1.00
H82    H     0.55335   0.12872   0.37015   0.00000  Uiso   1.00
H83    H     0.46452   0.09649   0.19080   0.00000  Uiso   1.00
H84    H     0.53548   0.23671   0.30935   0.00000  Uiso   1.00
H85    H     0.61739   0.11807   0.43173   0.00000  Uiso   1.00
H86    H     0.55955   0.20035   0.11082   0.00000  Uiso   1.00
H87    H     0.43204   0.13213   0.39758   0.00000  Uiso   1.00
H88    H     0.37674   0.11965   0.08933   0.00000  Uiso   1.00
H89    H     0.63790   0.24252   0.40075   0.00000  Uiso   1.00
H90    H     0.34737   0.28201   0.48008   0.00000  Uiso   1.00
H91    H     0.35191   0.10926   0.00062   0.00000  Uiso   1.00
H92    H     0.39900   0.00296   0.24452   0.00000  Uiso   1.00
N93    N     0.48029   0.15216   0.23739   0.00000  Uiso   1.00
N94    N     0.51971   0.18117   0.26260   0.00000  Uiso   1.00
O95    O     0.63052   0.24631   0.25309   0.00000  Uiso   1.00
O96    O     0.52571   0.15059   0.38605   0.00000  Uiso   1.00
O97    O     0.49938   0.11525   0.20710   0.00000  Uiso   1.00
O98    O     0.50062   0.21806   0.29292   0.00000  Uiso   1.00
O99    O     0.36948   0.08702   0.24690   0.00000  Uiso   1.00
O100   O     0.39155   0.23702   0.24501   0.00000  Uiso   1.00
O101   O     0.60845   0.09632   0.25498   0.00000  Uiso   1.00
O102   O     0.63662   0.17397   0.32247   0.00000  Uiso   1.00
O103   O     0.36338   0.15937   0.17753   0.00000  Uiso   1.00
O104   O     0.39764   0.16467   0.31439   0.00000  Uiso   1.00
O105   O     0.60236   0.16866   0.18561   0.00000  Uiso   1.00
O106   O     0.53099   0.27585   0.07880   0.00000  Uiso   1.00
Zn107  Zn    0.60366   0.17287   0.25539   0.00000  Uiso   1.00
Zn108  Zn    0.39634   0.16046   0.24460   0.00000  Uiso   1.00
C109   C     0.68161   0.26483   0.24886   0.00000  Uiso   1.00
C110   C     0.97878   0.16283   0.15873   0.00000  Uiso   1.00
C111   C     0.70162   0.18618   0.39307   0.00000  Uiso   1.00
C112   C     0.96932   0.16153   0.10551   0.00000  Uiso   1.00
C113   C     0.70121   0.25071   0.46132   0.00000  Uiso   1.00
C114   C     0.99180   0.13105   0.02406   0.00000  Uiso   1.00
C115   C     0.67598   0.22739   0.41701   0.00000  Uiso   1.00
C116   C     0.67255   0.13685   0.07446   0.00000  Uiso   1.00
C117   C     0.75059   0.16761   0.41416   0.00000  Uiso   1.00
C118   C     0.92184   0.18420   0.08582   0.00000  Uiso   1.00
C119   C     0.78153   0.19617   0.45327   0.00000  Uiso   1.00
C120   C     0.98507   0.06851   0.25121   0.00000  Uiso   1.00
C121   C     0.90921   0.18216   0.03509   0.00000  Uiso   1.00
C122   C     0.75456   0.23596   0.47919   0.00000  Uiso   1.00
C123   C     0.94215   0.15141   0.00456   0.00000  Uiso   1.00
C124   C     0.83795   0.18533   0.46764   0.00000  Uiso   1.00
C125   C     0.86082   0.20492   0.01487   0.00000  Uiso   1.00
C126   C     0.83496   0.24673   0.03975   0.00000  Uiso   1.00
C127   C     0.87293   0.15713   0.43611   0.00000  Uiso   1.00
C128   C     0.78202   0.26168   0.02135   0.00000  Uiso   1.00
C129   C     0.92458   0.14045   0.45529   0.00000  Uiso   1.00
C130   C     0.68942   0.31936   0.24818   0.00000  Uiso   1.00
C131   C     0.97727   0.01399   0.25198   0.00000  Uiso   1.00
C132   C     0.68816   0.17166   0.34121   0.00000  Uiso   1.00
H133   H     0.76228   0.29360   0.03999   0.00000  Uiso   1.00
H134   H     0.93436   0.33038   0.25565   0.00000  Uiso   1.00
H135   H     0.84055   0.30353   0.09134   0.00000  Uiso   1.00
H136   H     0.88668   0.12872   0.37015   0.00000  Uiso   1.00
H137   H     0.79785   0.09649   0.19080   0.00000  Uiso   1.00
H138   H     0.86881   0.23671   0.30935   0.00000  Uiso   1.00
H139   H     0.95072   0.11807   0.43173   0.00000  Uiso   1.00
H140   H     0.89288   0.20035   0.11082   0.00000  Uiso   1.00
H141   H     0.76538   0.13213   0.39758   0.00000  Uiso   1.00
H142   H     0.71007   0.11965   0.08933   0.00000  Uiso   1.00
H143   H     0.97124   0.24252   0.40075   0.00000  Uiso   1.00
H144   H     0.68070   0.28201   0.48008   0.00000  Uiso   1.00
H145   H     0.68524   0.10926   0.00062   0.00000  Uiso   1.00
H146   H     0.73234   0.00296   0.24452   0.00000  Uiso   1.00
N147   N     0.81362   0.15216   0.23739   0.00000  Uiso   1.00
N148   N     0.85305   0.18117   0.26260   0.00000  Uiso   1.00
O149   O     0.96386   0.24631   0.25309   0.00000  Uiso   1.00
O150   O     0.85904   0.15059   0.38605   0.00000  Uiso   1.00
O151   O     0.83272   0.11525   0.20710   0.00000  Uiso   1.00
O152   O     0.83395   0.21806   0.29292   0.00000  Uiso   1.00
O153   O     0.70281   0.08702   0.24690   0.00000  Uiso   1.00
O154   O     0.72488   0.23702   0.24501   0.00000  Uiso   1.00
O155   O     0.94178   0.09632   0.25498   0.00000  Uiso   1.00
O156   O     0.96995   0.17397   0.32247   0.00000  Uiso   1.00
O157   O     0.69672   0.15937   0.17753   0.00000  Uiso   1.00
O158   O     0.73098   0.16467   0.31439   0.00000  Uiso   1.00
O159   O     0.93569   0.16866   0.18561   0.00000  Uiso   1.00
O160   O     0.86432   0.27585   0.07880   0.00000  Uiso   1.00
Zn161  Zn    0.93700   0.17287   0.25539   0.00000  Uiso   1.00
Zn162  Zn    0.72967   0.16046   0.24460   0.00000  Uiso   1.00
C163   C     0.01494   0.59816   0.24886   0.00000  Uiso   1.00
C164   C     0.31211   0.49616   0.15873   0.00000  Uiso   1.00
C165   C     0.03496   0.51951   0.39307   0.00000  Uiso   1.00
C166   C     0.30266   0.49486   0.10551   0.00000  Uiso   1.00
C167   C     0.03455   0.58404   0.46132   0.00000  Uiso   1.00
C168   C     0.32513   0.46438   0.02406   0.00000  Uiso   1.00
C169   C     0.00932   0.56072   0.41701   0.00000  Uiso   1.00
C170   C     0.00588   0.47019   0.07446   0.00000  Uiso   1.00
C171   C     0.08393   0.50094   0.41416   0.00000  Uiso   1.00
C172   C     0.25518   0.51753   0.08582   0.00000  Uiso   1.00
C173   C     0.11487   0.52950   0.45327   0.00000  Uiso   1.00
C174   C     0.31840   0.40184   0.25121   0.00000  Uiso   1.00
C175   C     0.24254   0.51549   0.03509   0.00000  Uiso   1.00
C176   C     0.08789   0.56929   0.47919   0.00000  Uiso   1.00
C177   C     0.27549   0.48474   0.00456   0.00000  Uiso   1.00
C178   C     0.17128   0.51866   0.46764   0.00000  Uiso   1.00
C179   C     0.19415   0.53826   0.01487   0.00000  Uiso   1.00
C180   C     0.16829   0.58006   0.03975   0.00000  Uiso   1.00
C181   C     0.20626   0.49046   0.43611   0.00000  Uiso   1.00
C182   C     0.11535   0.59501   0.02135   0.00000  Uiso   1.00
C183   C     0.25791   0.47378   0.45529   0.00000  Uiso   1.00
C184   C     0.02275   0.65269   0.24818   0.00000  Uiso   1.00
C185   C     0.31061   0.34732   0.25198   0.00000  Uiso   1.00
C186   C     0.02150   0.50499   0.34121   0.00000  Uiso   1.00
H187   H     0.09562   0.62693   0.03999   0.00000  Uiso   1.00
H188   H     0.26769   0.66372   0.25565   0.00000  Uiso   1.00
H189   H     0.17388   0.63686   0.09134   0.00000  Uiso   1.00
H190   H     0.22002   0.46205   0.37015   0.00000  Uiso   1.00
H191   H     0.13119   0.42982   0.19080   0.00000  Uiso   1.00
H192   H     0.20215   0.57004   0.30935   0.00000  Uiso   1.00
H193   H     0.28405   0.45140   0.43173   0.00000  Uiso   1.00
H194   H     0.22621   0.53368   0.11082   0.00000  Uiso   1.00
H195   H     0.09871   0.46547   0.39758   0.00000  Uiso   1.00
H196   H     0.04340   0.45298   0.08933   0.00000  Uiso   1.00
H197   H     0.30457   0.57585   0.40075   0.00000  Uiso   1.00
H198   H     0.01404   0.61535   0.48008   0.00000  Uiso   1.00
H199   H     0.01857   0.44259   0.00062   0.00000  Uiso   1.00
H200   H     0.06567   0.33629   0.24452   0.00000  Uiso   1.00
N201   N     0.14695   0.48550   0.23739   0.00000  Uiso   1.00
N202   N     0.18638   0.51450   0.26260   0.00000  Uiso   1.00
O203   O     0.29719   0.57964   0.25309   0.00000  Uiso   1.00
O204   O     0.19237   0.48392   0.38605   0.00000  Uiso   1.00
O205   O     0.16605   0.44859   0.20710   0.00000  Uiso   1.00
O206   O     0.16729   0.55140   0.29292   0.00000  Uiso   1.00
O207   O     0.03614   0.42036   0.24690   0.00000  Uiso   1.00
O208   O     0.05822   0.57035   0.24501   0.00000  Uiso   1.00
O209   O     0.27512   0.42965   0.25498   0.00000  Uiso   1.00
O210   O     0.30328   0.50730   0.32247   0.00000  Uiso   1.00
O211   O     0.03005   0.49270   0.17753   0.00000  Uiso   1.00
O212   O     0.06431   0.49801   0.31439   0.00000  Uiso   1.00
O213   O     0.26902   0.50199   0.18561   0.00000  Uiso   1.00
O214   O     0.19766   0.60919   0.07880   0.00000  Uiso   1.00
Zn215  Zn    0.27033   0.50621   0.25539   0.00000  Uiso   1.00
Zn216  Zn    0.06300   0.49379   0.24460   0.00000  Uiso   1.00
C217   C     0.34828   0.59816   0.24886   0.00000  Uiso   1.00
C218   C     0.64545   0.49616   0.15873   0.00000  Uiso   1.00
C219   C     0.36829   0.51951   0.39307   0.00000  Uiso   1.00
C220   C     0.63599   0.49486   0.10551   0.00000  Uiso   1.00
C221   C     0.36788   0.58404   0.46132   0.00000  Uiso   1.00
C222   C     0.65847   0.46438   0.02406   0.00000  Uiso   1.00
C223   C     0.34265   0.56072   0.41701   0.00000  Uiso   1.00
C224   C     0.33921   0.47019   0.07446   0.00000  Uiso   1.00
C225   C     0.41726   0.50094   0.41416   0.00000  Uiso   1.00
C226   C     0.58851   0.51753   0.08582   0.00000  Uiso   1.00
C227   C     0.44820   0.52950   0.45327   0.00000  Uiso   1.00
C228   C     0.65173   0.40184   0.25121   0.00000  Uiso   1.00
C229   C     0.57587   0.51549   0.03509   0.00000  Uiso   1.00
C230   C     0.42123   0.56929   0.47919   0.00000  Uiso   1.00
C231   C     0.60882   0.48474   0.00456   0.00000  Uiso   1.00
C232   C     0.50461   0.51866   0.46764   0.00000  Uiso   1.00
C233   C     0.52749   0.53826   0.01487   0.00000  Uiso   1.00
C234   C     0.50163   0.58006   0.03975   0.00000  Uiso   1.00
C235   C     0.53959   0.49046   0.43611   0.00000  Uiso   1.00
C236   C     0.44868   0.59501   0.02135   0.00000  Uiso   1.00
C237   C     0.59124   0.47378   0.45529   0.00000  Uiso   1.00
C238   C     0.35608   0.65269   0.24818   0.00000  Uiso   1.00
C239   C     0.64394   0.34732   0.25198   0.00000  Uiso   1.00
C240   C     0.35483   0.50499   0.34121   0.00000  Uiso   1.00
H241   H     0.42895   0.62693   0.03999   0.00000  Uiso   1.00
H242   H     0.60102   0.66372   0.25565   0.00000  Uiso   1.00
H243   H     0.50721   0.63686   0.09134   0.00000  Uiso   1.00
H244   H     0.55335   0.46205   0.37015   0.00000  Uiso   1.00
H245   H     0.46452   0.42982   0.19080   0.00000  Uiso   1.00
H246   H     0.53548   0.57004   0.30935   0.00000  Uiso   1.00
H247   H     0.61739   0.45140   0.43173   0.00000  Uiso   1.00
H248   H     0.55955   0.53368   0.11082   0.00000  Uiso   1.00
H249   H     0.43204   0.46547   0.39758   0.00000  Uiso   1.00
H250   H     0.37674   0.45298   0.08933   0.00000  Uiso   1.00
H251   H     0.63790   0.57585   0.40075   0.00000  Uiso   1.00
H252   H     0.34737   0.61535   0.48008   0.00000  Uiso   1.00
H253   H     0.35191   0.44259   0.00062   0.00000  Uiso   1.00
H254   H     0.39900   0.33629   0.24452   0.00000  Uiso   1.00
N255   N     0.48029   0.48550   0.23739   0.00000  Uiso   1.00
N256   N     0.51971   0.51450   0.26260   0.00000  Uiso   1.00
O257   O     0.63052   0.57964   0.25309   0.00000  Uiso   1.00
O258   O     0.52571   0.48392   0.38605   0.00000  Uiso   1.00
O259   O     0.49938   0.44859   0.20710   0.00000  Uiso   1.00
O260   O     0.50062   0.55140   0.29292   0.00000  Uiso   1.00
O261   O     0.36948   0.42036   0.24690   0.00000  Uiso   1.00
O262   O     0.39155   0.57035   0.24501   0.00000  Uiso   1.00
O263   O     0.60845   0.42965   0.25498   0.00000  Uiso   1.00
O264   O     0.63662   0.50730   0.32247   0.00000  Uiso   1.00
O265   O     0.36338   0.49270   0.17753   0.00000  Uiso   1.00
O266   O     0.39764   0.49801   0.31439   0.00000  Uiso   1.00
O267   O     0.60236   0.50199   0.18561   0.00000  Uiso   1.00
O268   O     0.53099   0.60919   0.07880   0.00000  Uiso   1.00
Zn269  Zn    0.60366   0.50621   0.25539   0.00000  Uiso   1.00
Zn270  Zn    0.39634   0.49379   0.24460   0.00000  Uiso   1.00
C271   C     0.68161   0.59816   0.24886   0.00000  Uiso   1.00
C272   C     0.97878   0.49616   0.15873   0.00000  Uiso   1.00
C273   C     0.70162   0.51951   0.39307   0.00000  Uiso   1.00
C274   C     0.96932   0.49486   0.10551   0.00000  Uiso   1.00
C275   C     0.70121   0.58404   0.46132   0.00000  Uiso   1.00
C276   C     0.99180   0.46438   0.02406   0.00000  Uiso   1.00
C277   C     0.67598   0.56072   0.41701   0.00000  Uiso   1.00
C278   C     0.67255   0.47019   0.07446   0.00000  Uiso   1.00
C279   C     0.75059   0.50094   0.41416   0.00000  Uiso   1.00
C280   C     0.92184   0.51753   0.08582   0.00000  Uiso   1.00
C281   C     0.78153   0.52950   0.45327   0.00000  Uiso   1.00
C282   C     0.98507   0.40184   0.25121   0.00000  Uiso   1.00
C283   C     0.90921   0.51549   0.03509   0.00000  Uiso   1.00
C284   C     0.75456   0.56929   0.47919   0.00000  Uiso   1.00
C285   C     0.94215   0.48474   0.00456   0.00000  Uiso   1.00
C286   C     0.83795   0.51866   0.46764   0.00000  Uiso   1.00
C287   C     0.86082   0.53826   0.01487   0.00000  Uiso   1.00
C288   C     0.83496   0.58006   0.03975   0.00000  Uiso   1.00
C289   C     0.87293   0.49046   0.43611   0.00000  Uiso   1.00
C290   C     0.78202   0.59501   0.02135   0.00000  Uiso   1.00
C291   C     0.92458   0.47378   0.45529   0.00000  Uiso   1.00
C292   C     0.68942   0.65269   0.24818   0.00000  Uiso   1.00
C293   C     0.97727   0.34732   0.25198   0.00000  Uiso   1.00
C294   C     0.68816   0.50499   0.34121   0.00000  Uiso   1.00
H295   H     0.76228   0.62693   0.03999   0.00000  Uiso   1.00
H296   H     0.93436   0.66372   0.25565   0.00000  Uiso   1.00
H297   H     0.84055   0.63686   0.09134   0.00000  Uiso   1.00
H298   H     0.88668   0.46205   0.37015   0.00000  Uiso   1.00
H299   H     0.79785   0.42982   0.19080   0.00000  Uiso   1.00
H300   H     0.86881   0.57004   0.30935   0.00000  Uiso   1.00
H301   H     0.95072   0.45140   0.43173   0.00000  Uiso   1.00
H302   H     0.89288   0.53368   0.11082   0.00000  Uiso   1.00
H303   H     0.76538   0.46547   0.39758   0.00000  Uiso   1.00
H304   H     0.71007   0.45298   0.08933   0.00000  Uiso   1.00
H305   H     0.97124   0.57585   0.40075   0.00000  Uiso   1.00
H306   H     0.68070   0.61535   0.48008   0.00000  Uiso   1.00
H307   H     0.68524   0.44259   0.00062   0.00000  Uiso   1.00
H308   H     0.73234   0.33629   0.24452   0.00000  Uiso   1.00
N309   N     0.81362   0.48550   0.23739   0.00000  Uiso   1.00
N310   N     0.85305   0.51450   0.26260   0.00000  Uiso   1.00
O311   O     0.96386   0.57964   0.25309   0.00000  Uiso   1.00
O312   O     0.85904   0.48392   0.38605   0.00000  Uiso   1.00
O313   O     0.83272   0.44859   0.20710   0.00000  Uiso   1.00
O314   O     0.83395   0.55140   0.29292   0.00000  Uiso   1.00
O315   O     0.70281   0.42036   0.24690   0.00000  Uiso   1.00
O316   O     0.72488   0.57035   0.24501   0.00000  Uiso   1.00
O317   O     0.94178   0.42965   0.25498   0.00000  Uiso   1.00
O318   O     0.96995   0.50730   0.32247   0.00000  Uiso   1.00
O319   O     0.69672   0.49270   0.17753   0.00000  Uiso   1.00
O320   O     0.73098   0.49801   0.31439   0.00000  Uiso   1.00
O321   O     0.93569   0.50199   0.18561   0.00000  Uiso   1.00
O322   O     0.86432   0.60919   0.07880   0.00000  Uiso   1.00
Zn323  Zn    0.93700   0.50621   0.25539   0.00000  Uiso   1.00
Zn324  Zn    0.72967   0.49379   0.24460   0.00000  Uiso   1.00
C325   C     0.01494   0.93149   0.24886   0.00000  Uiso   1.00
C326   C     0.31211   0.82950   0.15873   0.00000  Uiso   1.00
C327   C     0.03496   0.85285   0.39307   0.00000  Uiso   1.00
C328   C     0.30266   0.82819   0.10551   0.00000  Uiso   1.00
C329   C     0.03455   0.91737   0.46132   0.00000  Uiso   1.00
C330   C     0.32513   0.79772   0.02406   0.00000  Uiso   1.00
C331   C     0.00932   0.89405   0.41701   0.00000  Uiso   1.00
C332   C     0.00588   0.80352   0.07446   0.00000  Uiso   1.00
C333   C     0.08393   0.83428   0.41416   0.00000  Uiso   1.00
C334   C     0.25518   0.85086   0.08582   0.00000  Uiso   1.00
C335   C     0.11487   0.86283   0.45327   0.00000  Uiso   1.00
C336   C     0.31840   0.73518   0.25121   0.00000  Uiso   1.00
C337   C     0.24254   0.84882   0.03509   0.00000  Uiso   1.00
C338   C     0.08789   0.90262   0.47919   0.00000  Uiso   1.00
C339   C     0.27549   0.81808   0.00456   0.00000  Uiso   1.00
C340   C     0.17128   0.85199   0.46764   0.00000  Uiso   1.00
C341   C     0.19415   0.87159   0.01487   0.00000  Uiso   1.00
C342   C     0.16829   0.91339   0.03975   0.00000  Uiso   1.00
C343   C     0.20626   0.82380   0.43611   0.00000  Uiso   1.00
C344   C     0.11535   0.92835   0.02135   0.00000  Uiso   1.00
C345   C     0.25791   0.80712   0.45529   0.00000  Uiso   1.00
C346   C     0.02275   0.98602   0.24818   0.00000  Uiso   1.00
C347   C     0.31061   0.68065   0.25198   0.00000  Uiso   1.00
C348   C     0.02150   0.83832   0.34121   0.00000  Uiso   1.00
H349   H     0.09562   0.96026   0.03999   0.00000  Uiso   1.00
H350   H     0.26769   0.99705   0.25565   0.00000  Uiso   1.00
H351   H     0.17388   0.97019   0.09134   0.00000  Uiso   1.00
H352   H     0.22002   0.79538   0.37015   0.00000  Uiso   1.00
H353   H     0.13119   0.76316   0.19080   0.00000  Uiso   1.00
H354   H     0.20215   0.90338   0.30935   0.00000  Uiso   1.00
H355   H     0.28405   0.78474   0.43173   0.00000  Uiso   1.00
H356   H     0.22621   0.86702   0.11082   0.00000  Uiso   1.00
H357   H     0.09871   0.79880   0.39758   0.00000  Uiso   1.00
H358   H     0.04340   0.78631   0.08933   0.00000  Uiso   1.00
H359   H     0.30457   0.90919   0.40075   0.00000  Uiso   1.00
H360   H     0.01404   0.94868   0.48008   0.00000  Uiso   1.00
H361   H     0.01857   0.77593   0.00062   0.00000  Uiso   1.00
H362   H     0.06567   0.66963   0.24452   0.00000  Uiso   1.00
N363   N     0.14695   0.81883   0.23739   0.00000  Uiso   1.00
N364   N     0.18638   0.84784   0.26260   0.00000  Uiso   1.00
O365   O     0.29719   0.91298   0.25309   0.00000  Uiso   1.00
O366   O     0.19237   0.81725   0.38605   0.00000  Uiso   1.00
O367   O     0.16605   0.78192   0.20710   0.00000  Uiso   1.00
O368   O     0.16729   0.88473   0.29292   0.00000  Uiso   1.00
O369   O     0.03614   0.75369   0.24690   0.00000  Uiso   1.00
O370   O     0.05822   0.90368   0.24501   0.00000  Uiso   1.00
O371   O     0.27512   0.76298   0.25498   0.00000  Uiso   1.00
O372   O     0.30328   0.84063   0.32247   0.00000  Uiso   1.00
O373   O     0.03005   0.82603   0.17753   0.00000  Uiso   1.00
O374   O     0.06431   0.83134   0.31439   0.00000  Uiso   1.00
O375   O     0.26902   0.83533   0.18561   0.00000  Uiso   1.00
O376   O     0.19766   0.94252   0.07880   0.00000  Uiso   1.00
Zn377  Zn    0.27033   0.83954   0.25539   0.00000  Uiso   1.00
Zn378  Zn    0.06300   0.82713   0.24460   0.00000  Uiso   1.00
C379   C     0.34828   0.93149   0.24886   0.00000  Uiso   1.00
C380   C     0.64545   0.82950   0.15873   0.00000  Uiso   1.00
C381   C     0.36829   0.85285   0.39307   0.00000  Uiso   1.00
C382   C     0.63599   0.82819   0.10551   0.00000  Uiso   1.00
C383   C     0.36788   0.91737   0.46132   0.00000  Uiso   1.00
C384   C     0.65847   0.79772   0.02406   0.00000  Uiso   1.00
C385   C     0.34265   0.89405   0.41701   0.00000  Uiso   1.00
C386   C     0.33921   0.80352   0.07446   0.00000  Uiso   1.00
C387   C     0.41726   0.83428   0.41416   0.00000  Uiso   1.00
C388   C     0.58851   0.85086   0.08582   0.00000  Uiso   1.00
C389   C     0.44820   0.86283   0.45327   0.00000  Uiso   1.00
C390   C     0.65173   0.73518   0.25121   0.00000  Uiso   1.00
C391   C     0.57587   0.84882   0.03509   0.00000  Uiso   1.00
C392   C     0.42123   0.90262   0.47919   0.00000  Uiso   1.00
C393   C     0.60882   0.81808   0.00456   0.00000  Uiso   1.00
C394   C     0.50461   0.85199   0.46764   0.00000  Uiso   1.00
C395   C     0.52749   0.87159   0.01487   0.00000  Uiso   1.00
C396   C     0.50163   0.91339   0.03975   0.00000  Uiso   1.00
C397   C     0.53959   0.82380   0.43611   0.00000  Uiso   1.00
C398   C     0.44868   0.92835   0.02135   0.00000  Uiso   1.00
C399   C     0.59124   0.80712   0.45529   0.00000  Uiso   1.00
C400   C     0.35608   0.98602   0.24818   0.00000  Uiso   1.00
C401   C     0.64394   0.68065   0.25198   0.00000  Uiso   1.00
C402   C     0.35483   0.83832   0.34121   0.00000  Uiso   1.00
H403   H     0.42895   0.96026   0.03999   0.00000  Uiso   1.00
H404   H     0.60102   0.99705   0.25565   0.00000  Uiso   1.00
H405   H     0.50721   0.97019   0.09134   0.00000  Uiso   1.00
H406   H     0.55335   0.79538   0.37015   0.00000  Uiso   1.00
H407   H     0.46452   0.76316   0.19080   0.00000  Uiso   1.00
H408   H     0.53548   0.90338   0.30935   0.00000  Uiso   1.00
H409   H     0.61739   0.78474   0.43173   0.00000  Uiso   1.00
H410   H     0.55955   0.86702   0.11082   0.00000  Uiso   1.00
H411   H     0.43204   0.79880   0.39758   0.00000  Uiso   1.00
H412   H     0.37674   0.78631   0.08933   0.00000  Uiso   1.00
H413   H     0.63790   0.90919   0.40075   0.00000  Uiso   1.00
H414   H     0.34737   0.94868   0.48008   0.00000  Uiso   1.00
H415   H     0.35191   0.77593   0.00062   0.00000  Uiso   1.00
H416   H     0.39900   0.66963   0.24452   0.00000  Uiso   1.00
N417   N     0.48029   0.81883   0.23739   0.00000  Uiso   1.00
N418   N     0.51971   0.84784   0.26260   0.00000  Uiso   1.00
O419   O     0.63052   0.91298   0.25309   0.00000  Uiso   1.00
O420   O     0.52571   0.81725   0.38605   0.00000  Uiso   1.00
O421   O     0.49938   0.78192   0.20710   0.00000  Uiso   1.00
O422   O     0.50062   0.88473   0.29292   0.00000  Uiso   1.00
O423   O     0.36948   0.75369   0.24690   0.00000  Uiso   1.00
O424   O     0.39155   0.90368   0.24501   0.00000  Uiso   1.00
O425   O     0.60845   0.76298   0.25498   0.00000  Uiso   1.00
O426   O     0.63662   0.84063   0.32247   0.00000  Uiso   1.00
O427   O     0.36338   0.82603   0.17753   0.00000  Uiso   1.00
O428   O     0.39764   0.83134   0.31439   0.00000  Uiso   1.00
O429   O     0.60236   0.83533   0.18561   0.00000  Uiso   1.00
O430   O     0.53099   0.94252   0.07880   0.00000  Uiso   1.00
Zn431  Zn    0.60366   0.83954   0.25539   0.00000  Uiso   1.00
Zn432  Zn    0.39634   0.82713   0.24460   0.00000  Uiso   1.00
C433   C     0.68161   0.93149   0.24886   0.00000  Uiso   1.00
C434   C     0.97878   0.82950   0.15873   0.00000  Uiso   1.00
C435   C     0.70162   0.85285   0.39307   0.00000  Uiso   1.00
C436   C     0.96932   0.82819   0.10551   0.00000  Uiso   1.00
C437   C     0.70121   0.91737   0.46132   0.00000  Uiso   1.00
C438   C     0.99180   0.79772   0.02406   0.00000  Uiso   1.00
C439   C     0.67598   0.89405   0.41701   0.00000  Uiso   1.00
C440   C     0.67255   0.80352   0.07446   0.00000  Uiso   1.00
C441   C     0.75059   0.83428   0.41416   0.00000  Uiso   1.00
C442   C     0.92184   0.85086   0.08582   0.00000  Uiso   1.00
C443   C     0.78153   0.86283   0.45327   0.00000  Uiso   1.00
C444   C     0.98507   0.73518   0.25121   0.00000  Uiso   1.00
C445   C     0.90921   0.84882   0.03509   0.00000  Uiso   1.00
C446   C     0.75456   0.90262   0.47919   0.00000  Uiso   1.00
C447   C     0.94215   0.81808   0.00456   0.00000  Uiso   1.00
C448   C     0.83795   0.85199   0.46764   0.00000  Uiso   1.00
C449   C     0.86082   0.87159   0.01487   0.00000  Uiso   1.00
C450   C     0.83496   0.91339   0.03975   0.00000  Uiso   1.00
C451   C     0.87293   0.82380   0.43611   0.00000  Uiso   1.00
C452   C     0.78202   0.92835   0.02135   0.00000  Uiso   1.00
C453   C     0.92458   0.80712   0.45529   0.00000  Uiso   1.00
C454   C     0.68942   0.98602   0.24818   0.00000  Uiso   1.00
C455   C     0.97727   0.68065   0.25198   0.00000  Uiso   1.00
C456   C     0.68816   0.83832   0.34121   0.00000  Uiso   1.00
H457   H     0.76228   0.96026   0.03999   0.00000  Uiso   1.00
H458   H     0.93436   0.99705   0.25565   0.00000  Uiso   1.00
H459   H     0.84055   0.97019   0.09134   0.00000  Uiso   1.00
H460   H     0.88668   0.79538   0.37015   0.00000  Uiso   1.00
H461   H     0.79785   0.76316   0.19080   0.00000  Uiso   1.00
H462   H     0.86881   0.90338   0.30935   0.00000  Uiso   1.00
H463   H     0.95072   0.78474   0.43173   0.00000  Uiso   1.00
H464   H     0.89288   0.86702   0.11082   0.00000  Uiso   1.00
H465   H     0.76538   0.79880   0.39758   0.00000  Uiso   1.00
H466   H     0.71007   0.78631   0.08933   0.00000  Uiso   1.00
H467   H     0.97124   0.90919   0.40075   0.00000  Uiso   1.00
H468   H     0.68070   0.94868   0.48008   0.00000  Uiso   1.00
H469   H     0.68524   0.77593   0.00062   0.00000  Uiso   1.00
H470   H     0.73234   0.66963   0.24452   0.00000  Uiso   1.00
N471   N     0.81362   0.81883   0.23739   0.00000  Uiso   1.00
N472   N     0.85305   0.84784   0.26260   0.00000  Uiso   1.00
O473   O     0.96386   0.91298   0.25309   0.00000  Uiso   1.00
O474   O     0.85904   0.81725   0.38605   0.00000  Uiso   1.00
O475   O     0.83272   0.78192   0.20710   0.00000  Uiso   1.00
O476   O     0.83395   0.88473   0.29292   0.00000  Uiso   1.00
O477   O     0.70281   0.75369   0.24690   0.00000  Uiso   1.00
O478   O     0.72488   0.90368   0.24501   0.00000  Uiso   1.00
O479   O     0.94178   0.76298   0.25498   0.00000  Uiso   1.00
O480   O     0.96995   0.84063   0.32247   0.00000  Uiso   1.00
O481   O     0.69672   0.82603   0.17753   0.00000  Uiso   1.00
O482   O     0.73098   0.83134   0.31439   0.00000  Uiso   1.00
O483   O     0.93569   0.83533   0.18561   0.00000  Uiso   1.00
O484   O     0.86432   0.94252   0.07880   0.00000  Uiso   1.00
Zn485  Zn    0.93700   0.83954   0.25539   0.00000  Uiso   1.00
Zn486  Zn    0.72967   0.82713   0.24460   0.00000  Uiso   1.00
C487   C     0.01494   0.26483   0.74886   0.00000  Uiso   1.00
C488   C     0.31211   0.16283   0.65873   0.00000  Uiso   1.00
C489   C     0.03496   0.18618   0.89307   0.00000  Uiso   1.00
C490   C     0.30266   0.16153   0.60551   0.00000  Uiso   1.00
C491   C     0.03455   0.25071   0.96132   0.00000  Uiso   1.00
C492   C     0.32513   0.13105   0.52406   0.00000  Uiso   1.00
C493   C     0.00932   0.22739   0.91701   0.00000  Uiso   1.00
C494   C     0.00588   0.13685   0.57446   0.00000  Uiso   1.00
C495   C     0.08393   0.16761   0.91416   0.00000  Uiso   1.00
C496   C     0.25518   0.18420   0.58582   0.00000  Uiso   1.00
C497   C     0.11487   0.19617   0.95327   0.00000  Uiso   1.00
C498   C     0.31840   0.06851   0.75121   0.00000  Uiso   1.00
C499   C     0.24254   0.18216   0.53509   0.00000  Uiso   1.00
C500   C     0.08789   0.23596   0.97919   0.00000  Uiso   1.00
C501   C     0.27549   0.15141   0.50456   0.00000  Uiso   1.00
C502   C     0.17128   0.18533   0.96764   0.00000  Uiso   1.00
C503   C     0.19415   0.20492   0.51487   0.00000  Uiso   1.00
C504   C     0.16829   0.24673   0.53975   0.00000  Uiso   1.00
C505   C     0.20626   0.15713   0.93611   0.00000  Uiso   1.00
C506   C     0.11535   0.26168   0.52135   0.00000  Uiso   1.00
C507   C     0.25791   0.14045   0.95529   0.00000  Uiso   1.00
C508   C     0.02275   0.31936   0.74818   0.00000  Uiso   1.00
C509   C     0.31061   0.01399   0.75198   0.00000  Uiso   1.00
C510   C     0.02150   0.17166   0.84121   0.00000  Uiso   1.00
H511   H     0.09562   0.29360   0.53999   0.00000  Uiso   1.00
H512   H     0.26769   0.33038   0.75565   0.00000  Uiso   1.00
H513   H     0.17388   0.30353   0.59134   0.00000  Uiso   1.00
H514   H     0.22002   0.12872   0.87015   0.00000  Uiso   1.00
H515   H     0.13119   0.09649   0.69080   0.00000  Uiso   1.00
H516   H     0.20215   0.23671   0.80935   0.00000  Uiso   1.00
H517   H     0.28405   0.11807   0.93173   0.00000  Uiso   1.00
H518   H     0.22621   0.20035   0.61082   0.00000  Uiso   1.00
H519   H     0.09871   0.13213   0.89758   0.00000  Uiso   1.00
H520   H     0.04340   0.11965   0.58933   0.00000  Uiso   1.00
H521   H     0.30457   0.24252   0.90075   0.00000  Uiso   1.00
H522   H     0.01404   0.28201   0.98008   0.00000  Uiso   1.00
H523   H     0.01857   0.10926   0.50062   0.00000  Uiso   1.00
H524   H     0.06567   0.00296   0.74452   0.00000  Uiso   1.00
N525   N     0.14695   0.15216   0.73739   0.00000  Uiso   1.00
N526   N     0.18638   0.18117   0.76260   0.00000  Uiso   1.00
O527   O     0.29719   0.24631   0.75309   0.00000  Uiso   1.00
O528   O     0.19237   0.15059   0.88605   0.00000  Uiso   1.00
O529   O     0.16605   0.11525   0.70710   0.00000  Uiso   1.00
O530   O     0.16729   0.21806   0.79292   0.00000  Uiso   1.00
O531   O     0.03614   0.08702   0.74690   0.00000  Uiso   1.00
O532   O     0.05822   0.23702   0.74501   0.00000  Uiso   1.00
O533   O     0.27512   0.09632   0.75498   0.00000  Uiso   1.00
O534   O     0.30328   0.17397   0.82247   0.00000  Uiso   1.00
O535   O     0.03005   0.15937   0.67753   0.00000  Uiso   1.00
O536   O     0.06431   0.16467   0.81439   0.00000  Uiso   1.00
O537   O     0.26902   0.16866   0.68561   0.00000  Uiso   1.00
O538   O     0.19766   0.27585   0.57880   0.00000  Uiso   1.00
Zn539  Zn    0.27033   0.17287   0.75539   0.00000  Uiso   1.00
Zn540  Zn    0.06300   0.16046   0.74460   0.00000  Uiso   1.00
C541   C     0.34828   0.26483   0.74886   0.00000  Uiso   1.00
C542   C     0.64545   0.16283   0.65873   0.00000  Uiso   1.00
C543   C     0.36829   0.18618   0.89307   0.00000  Uiso   1.00
C544   C     0.63599   0.16153   0.60551   0.00000  Uiso   1.00
C545   C     0.36788   0.25071   0.96132   0.00000  Uiso   1.00
C546   C     0.65847   0.13105   0.52406   0.00000  Uiso   1.00
C547   C     0.34265   0.22739   0.91701   0.00000  Uiso   1.00
C548   C     0.33921   0.13685   0.57446   0.00000  Uiso   1.00
C549   C     0.41726   0.16761   0.91416   0.00000  Uiso   1.00
C550   C     0.58851   0.18420   0.58582   0.00000  Uiso   1.00
C551   C     0.44820   0.19617   0.95327   0.00000  Uiso   1.00
C552   C     0.65173   0.06851   0.75121   0.00000  Uiso   1.00
C553   C     0.57587   0.18216   0.53509   0.00000  Uiso   1.00
C554   C     0.42123   0.23596   0.97919   0.00000  Uiso   1.00
C555   C     0.60882   0.15141   0.50456   0.00000  Uiso   1.00
C556   C     0.50461   0.18533   0.96764   0.00000  Uiso   1.00
C557   C     0.52749   0.20492   0.51487   0.00000  Uiso   1.00
C558   C     0.50163   0.24673   0.53975   0.00000  Uiso   1.00
C559   C     0.53959   0.15713   0.93611   0.00000  Uiso   1.00
C560   C     0.44868   0.26168   0.52135   0.00000  Uiso   1.00
C561   C     0.59124   0.14045   0.95529   0.00000  Uiso   1.00
C562   C     0.35608   0.31936   0.74818   0.00000  Uiso   1.00
C563   C     0.64394   0.01399   0.75198   0.00000  Uiso   1.00
C564   C     0.35483   0.17166   0.84121   0.00000  Uiso   1.00
H565   H     0.42895   0.29360   0.53999   0.00000  Uiso   1.00
H566   H     0.60102   0.33038   0.75565   0.00000  Uiso   1.00
H567   H     0.50721   0.30353   0.59134   0.00000  Uiso   1.00
H568   H     0.55335   0.12872   0.87015   0.00000  Uiso   1.00
H569   H     0.46452   0.09649   0.69080   0.00000  Uiso   1.00
H570   H     0.53548   0.23671   0.80935   0.00000  Uiso   1.00
H571   H     0.61739   0.11807   0.93173   0.00000  Uiso   1.00
H572   H     0.55955   0.20035   0.61082   0.00000  Uiso   1.00
H573   H     0.43204   0.13213   0.89758   0.00000  Uiso   1.00
H574   H     0.37674   0.11965   0.58933   0.00000  Uiso   1.00
H575   H     0.63790   0.24252   0.90075   0.00000  Uiso   1.00
H576   H     0.34737   0.28201   0.98008   0.00000  Uiso   1.00
H577   H     0.35191   0.10926   0.50062   0.00000  Uiso   1.00
H578   H     0.39900   0.00296   0.74452   0.00000  Uiso   1.00
N579   N     0.48029   0.15216   0.73739   0.00000  Uiso   1.00
N580   N     0.51971   0.18117   0.76260   0.00000  Uiso   1.00
O581   O     0.63052   0.24631   0.75309   0.00000  Uiso   1.00
O582   O     0.52571   0.15059   0.88605   0.00000  Uiso   1.00
O583   O     0.49938   0.11525   0.70710   0.00000  Uiso   1.00
O584   O     0.50062   0.21806   0.79292   0.00000  Uiso   1.00
O585   O     0.36948   0.08702   0.74690   0.00000  Uiso   1.00
O586   O     0.39155   0.23702   0.74501   0.00000  Uiso   1.00
O587   O     0.60845   0.09632   0.75498   0.00000  Uiso   1.00
O588   O     0.63662   0.17397   0.82247   0.00000  Uiso   1.00
O589   O     0.36338   0.15937   0.67753   0.00000  Uiso   1.00
O590   O     0.39764   0.16467   0.81439   0.00000  Uiso   1.00
O591   O     0.60236   0.16866   0.68561   0.00000  Uiso   1.00
O592   O     0.53099   0.27585   0.57880   0.00000  Uiso   1.00
Zn593  Zn    0.60366   0.17287   0.75539   0.00000  Uiso   1.00
Zn594  Zn    0.39634   0.16046   0.74460   0.00000  Uiso   1.00
C595   C     0.68161   0.26483   0.74886   0.00000  Uiso   1.00
C596   C     0.97878   0.16283   0.65873   0.00000  Uiso   1.00
C597   C     0.70162   0.18618   0.89307   0.00000  Uiso   1.00
C598   C     0.96932   0.16153   0.60551   0.00000  Uiso   1.00
C599   C     0.70121   0.25071   0.96132   0.00000  Uiso   1.00
C600   C     0.99180   0.13105   0.52406   0.00000  Uiso   1.00
C601   C     0.67598   0.22739   0.91701   0.00000  Uiso   1.00
C602   C     0.67255   0.13685   0.57446   0.00000  Uiso   1.00
C603   C     0.75059   0.16761   0.91416   0.00000  Uiso   1.00
C604   C     0.92184   0.18420   0.58582   0.00000  Uiso   1.00
C605   C     0.78153   0.19617   0.95327   0.00000  Uiso   1.00
C606   C     0.98507   0.06851   0.75121   0.00000  Uiso   1.00
C607   C     0.90921   0.18216   0.53509   0.00000  Uiso   1.00
C608   C     0.75456   0.23596   0.97919   0.00000  Uiso   1.00
C609   C     0.94215   0.15141   0.50456   0.00000  Uiso   1.00
C610   C     0.83795   0.18533   0.96764   0.00000  Uiso   1.00
C611   C     0.86082   0.20492   0.51487   0.00000  Uiso   1.00
C612   C     0.83496   0.24673   0.53975   0.00000  Uiso   1.00
C613   C     0.87293   0.15713   0.93611   0.00000  Uiso   1.00
C614   C     0.78202   0.26168   0.52135   0.00000  Uiso   1.00
C615   C     0.92458   0.14045   0.95529   0.00000  Uiso   1.00
C616   C     0.68942   0.31936   0.74818   0.00000  Uiso   1.00
C617   C     0.97727   0.01399   0.75198   0.00000  Uiso   1.00
C618   C     0.68816   0.17166   0.84121   0.00000  Uiso   1.00
H619   H     0.76228   0.29360   0.53999   0.00000  Uiso   1.00
H620   H     0.93436   0.33038   0.75565   0.00000  Uiso   1.00
H621   H     0.84055   0.30353   0.59134   0.00000  Uiso   1.00
H622   H     0.88668   0.12872   0.87015   0.00000  Uiso   1.00
H623   H     0.79785   0.09649   0.69080   0.00000  Uiso   1.00
H624   H     0.86881   0.23671   0.80935   0.00000  Uiso   1.00
H625   H     0.95072   0.11807   0.93173   0.00000  Uiso   1.00
H626   H     0.89288   0.20035   0.61082   0.00000  Uiso   1.00
H627   H     0.76538   0.13213   0.89758   0.00000  Uiso   1.00
H628   H     0.71007   0.11965   0.58933   0.00000  Uiso   1.00
H629   H     0.97124   0.24252   0.90075   0.00000  Uiso   1.00
H630   H     0.68070   0.28201   0.98008   0.00000  Uiso   1.00
H631   H     0.68524   0.10926   0.50062   0.00000  Uiso   1.00
H632   H     0.73234   0.00296   0.74452   0.00000  Uiso   1.00
N633   N     0.81362   0.15216   0.73739   0.00000  Uiso   1.00
N634   N     0.85305   0.18117   0.76260   0.00000  Uiso   1.00
O635   O     0.96386   0.24631   0.75309   0.00000  Uiso   1.00
O636   O     0.85904   0.15059   0.88605   0.00000  Uiso   1.00
O637   O     0.83272   0.11525   0.70710   0.00000  Uiso   1.00
O638   O     0.83395   0.21806   0.79292   0.00000  Uiso   1.00
O639   O     0.70281   0.08702   0.74690   0.00000  Uiso   1.00
O640   O     0.72488   0.23702   0.74501   0.00000  Uiso   1.00
O641   O     0.94178   0.09632   0.75498   0.00000  Uiso   1.00
O642   O     0.96995   0.17397   0.82247   0.00000  Uiso   1.00
O643   O     0.69672   0.15937   0.67753   0.00000  Uiso   1.00
O644   O     0.73098   0.16467   0.81439   0.00000  Uiso   1.00
O645   O     0.93569   0.16866   0.68561   0.00000  Uiso   1.00
O646   O     0.86432   0.27585   0.57880   0.00000  Uiso   1.00
Zn647  Zn    0.93700   0.17287   0.75539   0.00000  Uiso   1.00
Zn648  Zn    0.72967   0.16046   0.74460   0.00000  Uiso   1.00
C649   C     0.01494   0.59816   0.74886   0.00000  Uiso   1.00
C650   C     0.31211   0.49616   0.65873   0.00000  Uiso   1.00
C651   C     0.03496   0.51951   0.89307   0.00000  Uiso   1.00
C652   C     0.30266   0.49486   0.60551   0.00000  Uiso   1.00
C653   C     0.03455   0.58404   0.96132   0.00000  Uiso   1.00
C654   C     0.32513   0.46438   0.52406   0.00000  Uiso   1.00
C655   C     0.00932   0.56072   0.91701   0.00000  Uiso   1.00
C656   C     0.00588   0.47019   0.57446   0.00000  Uiso   1.00
C657   C     0.08393   0.50094   0.91416   0.00000  Uiso   1.00
C658   C     0.25518   0.51753   0.58582   0.00000  Uiso   1.00
C659   C     0.11487   0.52950   0.95327   0.00000  Uiso   1.00
C660   C     0.31840   0.40184   0.75121   0.00000  Uiso   1.00
C661   C     0.24254   0.51549   0.53509   0.00000  Uiso   1.00
C662   C     0.08789   0.56929   0.97919   0.00000  Uiso   1.00
C663   C     0.27549   0.48474   0.50456   0.00000  Uiso   1.00
C664   C     0.17128   0.51866   0.96764   0.00000  Uiso   1.00
C665   C     0.19415   0.53826   0.51487   0.00000  Uiso   1.00
C666   C     0.16829   0.58006   0.53975   0.00000  Uiso   1.00
C667   C     0.20626   0.49046   0.93611   0.00000  Uiso   1.00
C668   C     0.11535   0.59501   0.52135   0.00000  Uiso   1.00
C669   C     0.25791   0.47378   0.95529   0.00000  Uiso   1.00
C670   C     0.02275   0.65269   0.74818   0.00000  Uiso   1.00
C671   C     0.31061   0.34732   0.75198   0.00000  Uiso   1.00
C672   C     0.02150   0.50499   0.84121   0.00000  Uiso   1.00
H673   H     0.09562   0.62693   0.53999   0.00000  Uiso   1.00
H674   H     0.26769   0.66372   0.75565   0.00000  Uiso   1.00
H675   H     0.17388   0.63686   0.59134   0.00000  Uiso   1.00
H676   H     0.22002   0.46205   0.87015   0.00000  Uiso   1.00
H677   H     0.13119   0.42982   0.69080   0.00000  Uiso   1.00
H678   H     0.20215   0.57004   0.80935   0.00000  Uiso   1.00
H679   H     0.28405   0.45140   0.93173   0.00000  Uiso   1.00
H680   H     0.22621   0.53368   0.61082   0.00000  Uiso   1.00
H681   H     0.09871   0.46547   0.89758   0.00000  Uiso   1.00
H682   H     0.04340   0.45298   0.58933   0.00000  Uiso   1.00
H683   H     0.30457   0.57585   0.90075   0.00000  Uiso   1.00
H684   H     0.01404   0.61535   0.98008   0.00000  Uiso   1.00
H685   H     0.01857   0.44259   0.50062   0.00000  Uiso   1.00
H686   H     0.06567   0.33629   0.74452   0.00000  Uiso   1.00
N687   N     0.14695   0.48550   0.73739   0.00000  Uiso   1.00
N688   N     0.18638   0.51450   0.76260   0.00000  Uiso   1.00
O689   O     0.29719   0.57964   0.75309   0.00000  Uiso   1.00
O690   O     0.19237   0.48392   0.88605   0.00000  Uiso   1.00
O691   O     0.16605   0.44859   0.70710   0.00000  Uiso   1.00
O692   O     0.16729   0.55140   0.79292   0.00000  Uiso   1.00
O693   O     0.03614   0.42036   0.74690   0.00000  Uiso   1.00
O694   O     0.05822   0.57035   0.74501   0.00000  Uiso   1.00
O695   O     0.27512   0.42965   0.75498   0.00000  Uiso   1.00
O696   O     0.30328   0.50730   0.82247   0.00000  Uiso   1.00
O697   O     0.03005   0.49270   0.67753   0.00000  Uiso   1.00
O698   O     0.06431   0.49801   0.81439   0.00000  Uiso   1.00
O699   O     0.26902   0.50199   0.68561   0.00000  Uiso   1.00
O700   O     0.19766   0.60919   0.57880   0.00000  Uiso   1.00
Zn701  Zn    0.27033   0.50621   0.75539   0.00000  Uiso   1.00
Zn702  Zn    0.06300   0.49379   0.74460   0.00000  Uiso   1.00
C703   C     0.34828   0.59816   0.74886   0.00000  Uiso   1.00
C704   C     0.64545   0.49616   0.65873   0.00000  Uiso   1.00
C705   C     0.36829   0.51951   0.89307   0.00000  Uiso   1.00
C706   C     0.63599   0.49486   0.60551   0.00000  Uiso   1.00
C707   C     0.36788   0.58404   0.96132   0.00000  Uiso   1.00
C708   C     0.65847   0.46438   0.52406   0.00000  Uiso   1.00
C709   C     0.34265   0.56072   0.91701   0.00000  Uiso   1.00
C710   C     0.33921   0.47019   0.57446   0.00000  Uiso   1.00
C711   C     0.41726   0.50094   0.91416   0.00000  Uiso   1.00
C712   C     0.58851   0.51753   0.58582   0.00000  Uiso   1.00
C713   C     0.44820   0.52950   0.95327   0.00000  Uiso   1.00
C714   C     0.65173   0.40184   0.75121   0.00000  Uiso   1.00
C715   C     0.57587   0.51549   0.53509   0.00000  Uiso   1.00
C716   C     0.42123   0.56929   0.97919   0.00000  Uiso   1.00
C717   C     0.60882   0.48474   0.50456   0.00000  Uiso   1.00
C718   C     0.50461   0.51866   0.96764   0.00000  Uiso   1.00
C719   C     0.52749   0.53826   0.51487   0.00000  Uiso   1.00
C720   C     0.50163   0.58006   0.53975   0.00000  Uiso   1.00
C721   C     0.53959   0.49046   0.93611   0.00000  Uiso   1.00
C722   C     0.44868   0.59501   0.52135   0.00000  Uiso   1.00
C723   C     0.59124   0.47378   0.95529   0.00000  Uiso   1.00
C724   C     0.35608   0.65269   0.74818   0.00000  Uiso   1.00
C725   C     0.64394   0.34732   0.75198   0.00000  Uiso   1.00
C726   C     0.35483   0.50499   0.84121   0.00000  Uiso   1.00
H727   H     0.42895   0.62693   0.53999   0.00000  Uiso   1.00
H728   H     0.60102   0.66372   0.75565   0.00000  Uiso   1.00
H729   H     0.50721   0.63686   0.59134   0.00000  Uiso   1.00
H730   H     0.55335   0.46205   0.87015   0.00000  Uiso   1.00
H731   H     0.46452   0.42982   0.69080   0.00000  Uiso   1.00
H732   H     0.53548   0.57004   0.80935   0.00000  Uiso   1.00
H733   H     0.61739   0.45140   0.93173   0.00000  Uiso   1.00
H734   H     0.55955   0.53368   0.61082   0.00000  Uiso   1.00
H735   H     0.43204   0.46547   0.89758   0.00000  Uiso   1.00
H736   H     0.37674   0.45298   0.58933   0.00000  Uiso   1.00
H737   H     0.63790   0.57585   0.90075   0.00000  Uiso   1.00
H738   H     0.34737   0.61535   0.98008   0.00000  Uiso   1.00
H739   H     0.35191   0.44259   0.50062   0.00000  Uiso   1.00
H740   H     0.39900   0.33629   0.74452   0.00000  Uiso   1.00
N741   N     0.48029   0.48550   0.73739   0.00000  Uiso   1.00
N742   N     0.51971   0.51450   0.76260   0.00000  Uiso   1.00
O743   O     0.63052   0.57964   0.75309   0.00000  Uiso   1.00
O744   O     0.52571   0.48392   0.88605   0.00000  Uiso   1.00
O745   O     0.49938   0.44859   0.70710   0.00000  Uiso   1.00
O746   O     0.50062   0.55140   0.79292   0.00000  Uiso   1.00
O747   O     0.36948   0.42036   0.74690   0.00000  Uiso   1.00
O748   O     0.39155   0.57035   0.74501   0.00000  Uiso   1.00
O749   O     0.60845   0.42965   0.75498   0.00000  Uiso   1.00
O750   O     0.63662   0.50730   0.82247   0.00000  Uiso   1.00
O751   O     0.36338   0.49270   0.67753   0.00000  Uiso   1.00
O752   O     0.39764   0.49801   0.81439   0.00000  Uiso   1.00
O753   O     0.60236   0.50199   0.68561   0.00000  Uiso   1.00
O754   O     0.53099   0.60919   0.57880   0.00000  Uiso   1.00
Zn755  Zn    0.60366   0.50621   0.75539   0.00000  Uiso   1.00
Zn756  Zn    0.39634   0.49379   0.74460   0.00000  Uiso   1.00
C757   C     0.68161   0.59816   0.74886   0.00000  Uiso   1.00
C758   C     0.97878   0.49616   0.65873   0.00000  Uiso   1.00
C759   C     0.70162   0.51951   0.89307   0.00000  Uiso   1.00
C760   C     0.96932   0.49486   0.60551   0.00000  Uiso   1.00
C761   C     0.70121   0.58404   0.96132   0.00000  Uiso   1.00
C762   C     0.99180   0.46438   0.52406   0.00000  Uiso   1.00
C763   C     0.67598   0.56072   0.91701   0.00000  Uiso   1.00
C764   C     0.67255   0.47019   0.57446   0.00000  Uiso   1.00
C765   C     0.75059   0.50094   0.91416   0.00000  Uiso   1.00
C766   C     0.92184   0.51753   0.58582   0.00000  Uiso   1.00
C767   C     0.78153   0.52950   0.95327   0.00000  Uiso   1.00
C768   C     0.98507   0.40184   0.75121   0.00000  Uiso   1.00
C769   C     0.90921   0.51549   0.53509   0.00000  Uiso   1.00
C770   C     0.75456   0.56929   0.97919   0.00000  Uiso   1.00
C771   C     0.94215   0.48474   0.50456   0.00000  Uiso   1.00
C772   C     0.83795   0.51866   0.96764   0.00000  Uiso   1.00
C773   C     0.86082   0.53826   0.51487   0.00000  Uiso   1.00
C774   C     0.83496   0.58006   0.53975   0.00000  Uiso   1.00
C775   C     0.87293   0.49046   0.93611   0.00000  Uiso   1.00
C776   C     0.78202   0.59501   0.52135   0.00000  Uiso   1.00
C777   C     0.92458   0.47378   0.95529   0.00000  Uiso   1.00
C778   C     0.68942   0.65269   0.74818   0.00000  Uiso   1.00
C779   C     0.97727   0.34732   0.75198   0.00000  Uiso   1.00
C780   C     0.68816   0.50499   0.84121   0.00000  Uiso   1.00
H781   H     0.76228   0.62693   0.53999   0.00000  Uiso   1.00
H782   H     0.93436   0.66372   0.75565   0.00000  Uiso   1.00
H783   H     0.84055   0.63686   0.59134   0.00000  Uiso   1.00
H784   H     0.88668   0.46205   0.87015   0.00000  Uiso   1.00
H785   H     0.79785   0.42982   0.69080   0.00000  Uiso   1.00
H786   H     0.86881   0.57004   0.80935   0.00000  Uiso   1.00
H787   H     0.95072   0.45140   0.93173   0.00000  Uiso   1.00
H788   H     0.89288   0.53368   0.61082   0.00000  Uiso   1.00
H789   H     0.76538   0.46547   0.89758   0.00000  Uiso   1.00
H790   H     0.71007   0.45298   0.58933   0.00000  Uiso   1.00
H791   H     0.97124   0.57585   0.90075   0.00000  Uiso   1.00
H792   H     0.68070   0.61535   0.98008   0.00000  Uiso   1.00
H793   H     0.68524   0.44259   0.50062   0.00000  Uiso   1.00
H794   H     0.73234   0.33629   0.74452   0.00000  Uiso   1.00
N795   N     0.81362   0.48550   0.73739   0.00000  Uiso   1.00
N796   N     0.85305   0.51450   0.76260   0.00000  Uiso   1.00
O797   O     0.96386   0.57964   0.75309   0.00000  Uiso   1.00
O798   O     0.85904   0.48392   0.88605   0.00000  Uiso   1.00
O799   O     0.83272   0.44859   0.70710   0.00000  Uiso   1.00
O800   O     0.83395   0.55140   0.79292   0.00000  Uiso   1.00
O801   O     0.70281   0.42036   0.74690   0.00000  Uiso   1.00
O802   O     0.72488   0.57035   0.74501   0.00000  Uiso   1.00
O803   O     0.94178   0.42965   0.75498   0.00000  Uiso   1.00
O804   O     0.96995   0.50730   0.82247   0.00000  Uiso   1.00
O805   O     0.69672   0.49270   0.67753   0.00000  Uiso   1.00
O806   O     0.73098   0.49801   0.81439   0.00000  Uiso   1.00
O807   O     0.93569   0.50199   0.68561   0.00000  Uiso   1.00
O808   O     0.86432   0.60919   0.57880   0.00000  Uiso   1.00
Zn809  Zn    0.93700   0.50621   0.75539   0.00000  Uiso   1.00
Zn810  Zn    0.72967   0.49379   0.74460   0.00000  Uiso   1.00
C811   C     0.01494   0.93149   0.74886   0.00000  Uiso   1.00
C812   C     0.31211   0.82950   0.65873   0.00000  Uiso   1.00
C813   C     0.03496   0.85285   0.89307   0.00000  Uiso   1.00
C814   C     0.30266   0.82819   0.60551   0.00000  Uiso   1.00
C815   C     0.03455   0.91737   0.96132   0.00000  Uiso   1.00
C816   C     0.32513   0.79772   0.52406   0.00000  Uiso   1.00
C817   C     0.00932   0.89405   0.91701   0.00000  Uiso   1.00
C818   C     0.00588   0.80352   0.57446   0.00000  Uiso   1.00
C819   C     0.08393   0.83428   0.91416   0.00000  Uiso   1.00
C820   C     0.25518   0.85086   0.58582   0.00000  Uiso   1.00
C821   C     0.11487   0.86283   0.95327   0.00000  Uiso   1.00
C822   C     0.31840   0.73518   0.75121   0.00000  Uiso   1.00
C823   C     0.24254   0.84882   0.53509   0.00000  Uiso   1.00
C824   C     0.08789   0.90262   0.97919   0.00000  Uiso   1.00
C825   C     0.27549   0.81808   0.50456   0.00000  Uiso   1.00
C826   C     0.17128   0.85199   0.96764   0.00000  Uiso   1.00
C827   C     0.19415   0.87159   0.51487   0.00000  Uiso   1.00
C828   C     0.16829   0.91339   0.53975   0.00000  Uiso   1.00
C829   C     0.20626   0.82380   0.93611   0.00000  Uiso   1.00
C830   C     0.11535   0.92835   0.52135   0.00000  Uiso   1.00
C831   C     0.25791   0.80712   0.95529   0.00000  Uiso   1.00
C832   C     0.02275   0.98602   0.74818   0.00000  Uiso   1.00
C833   C     0.31061   0.68065   0.75198   0.00000  Uiso   1.00
C834   C     0.02150   0.83832   0.84121   0.00000  Uiso   1.00
H835   H     0.09562   0.96026   0.53999   0.00000  Uiso   1.00
H836   H     0.26769   0.99705   0.75565   0.00000  Uiso   1.00
H837   H     0.17388   0.97019   0.59134   0.00000  Uiso   1.00
H838   H     0.22002   0.79538   0.87015   0.00000  Uiso   1.00
H839   H     0.13119   0.76316   0.69080   0.00000  Uiso   1.00
H840   H     0.20215   0.90338   0.80935   0.00000  Uiso   1.00
H841   H     0.28405   0.78474   0.93173   0.00000  Uiso   1.00
H842   H     0.22621   0.86702   0.61082   0.00000  Uiso   1.00
H843   H     0.09871   0.79880   0.89758   0.00000  Uiso   1.00
H844   H     0.04340   0.78631   0.58933   0.00000  Uiso   1.00
H845   H     0.30457   0.90919   0.90075   0.00000  Uiso   1.00
H846   H     0.01404   0.94868   0.98008   0.00000  Uiso   1.00
H847   H     0.01857   0.77593   0.50062   0.00000  Uiso   1.00
H848   H     0.06567   0.66963   0.74452   0.00000  Uiso   1.00
N849   N     0.14695   0.81883   0.73739   0.00000  Uiso   1.00
N850   N     0.18638   0.84784   0.76260   0.00000  Uiso   1.00
O851   O     0.29719   0.91298   0.75309   0.00000  Uiso   1.00
O852   O     0.19237   0.81725   0.88605   0.00000  Uiso   1.00
O853   O     0.16605   0.78192   0.70710   0.00000  Uiso   1.00
O854   O     0.16729   0.88473   0.79292   0.00000  Uiso   1.00
O855   O     0.03614   0.75369   0.74690   0.00000  Uiso   1.00
O856   O     0.05822   0.90368   0.74501   0.00000  Uiso   1.00
O857   O     0.27512   0.76298   0.75498   0.00000  Uiso   1.00
O858   O     0.30328   0.84063   0.82247   0.00000  Uiso   1.00
O859   O     0.03005   0.82603   0.67753   0.00000  Uiso   1.00
O860   O     0.06431   0.83134   0.81439   0.00000  Uiso   1.00
O861   O     0.26902   0.83533   0.68561   0.00000  Uiso   1.00
O862   O     0.19766   0.94252   0.57880   0.00000  Uiso   1.00
Zn863  Zn    0.27033   0.83954   0.75539   0.00000  Uiso   1.00
Zn864  Zn    0.06300   0.82713   0.74460   0.00000  Uiso   1.00
C865   C     0.34828   0.93149   0.74886   0.00000  Uiso   1.00
C866   C     0.64545   0.82950   0.65873   0.00000  Uiso   1.00
C867   C     0.36829   0.85285   0.89307   0.00000  Uiso   1.00
C868   C     0.63599   0.82819   0.60551   0.00000  Uiso   1.00
C869   C     0.36788   0.91737   0.96132   0.00000  Uiso   1.00
C870   C     0.65847   0.79772   0.52406   0.00000  Uiso   1.00
C871   C     0.34265   0.89405   0.91701   0.00000  Uiso   1.00
C872   C     0.33921   0.80352   0.57446   0.00000  Uiso   1.00
C873   C     0.41726   0.83428   0.91416   0.00000  Uiso   1.00
C874   C     0.58851   0.85086   0.58582   0.00000  Uiso   1.00
C875   C     0.44820   0.86283   0.95327   0.00000  Uiso   1.00
C876   C     0.65173   0.73518   0.75121   0.00000  Uiso   1.00
C877   C     0.57587   0.84882   0.53509   0.00000  Uiso   1.00
C878   C     0.42123   0.90262   0.97919   0.00000  Uiso   1.00
C879   C     0.60882   0.81808   0.50456   0.00000  Uiso   1.00
C880   C     0.50461   0.85199   0.96764   0.00000  Uiso   1.00
C881   C     0.52749   0.87159   0.51487   0.00000  Uiso   1.00
C882   C     0.50163   0.91339   0.53975   0.00000  Uiso   1.00
C883   C     0.53959   0.82380   0.93611   0.00000  Uiso   1.00
C884   C     0.44868   0.92835   0.52135   0.00000  Uiso   1.00
C885   C     0.59124   0.80712   0.95529   0.00000  Uiso   1.00
C886   C     0.35608   0.98602   0.74818   0.00000  Uiso   1.00
C887   C     0.64394   0.68065   0.75198   0.00000  Uiso   1.00
C888   C     0.35483   0.83832   0.84121   0.00000  Uiso   1.00
H889   H     0.42895   0.96026   0.53999   0.00000  Uiso   1.00
H890   H     0.60102   0.99705   0.75565   0.00000  Uiso   1.00
H891   H     0.50721   0.97019   0.59134   0.00000  Uiso   1.00
H892   H     0.55335   0.79538   0.87015   0.00000  Uiso   1.00
H893   H     0.46452   0.76316   0.69080   0.00000  Uiso   1.00
H894   H     0.53548   0.90338   0.80935   0.00000  Uiso   1.00
H895   H     0.61739   0.78474   0.93173   0.00000  Uiso   1.00
H896   H     0.55955   0.86702   0.61082   0.00000  Uiso   1.00
H897   H     0.43204   0.79880   0.89758   0.00000  Uiso   1.00
H898   H     0.37674   0.78631   0.58933   0.00000  Uiso   1.00
H899   H     0.63790   0.90919   0.90075   0.00000  Uiso   1.00
H900   H     0.34737   0.94868   0.98008   0.00000  Uiso   1.00
H901   H     0.35191   0.77593   0.50062   0.00000  Uiso   1.00
H902   H     0.39900   0.66963   0.74452   0.00000  Uiso   1.00
N903   N     0.48029   0.81883   0.73739   0.00000  Uiso   1.00
N904   N     0.51971   0.84784   0.76260   0.00000  Uiso   1.00
O905   O     0.63052   0.91298   0.75309   0.00000  Uiso   1.00
O906   O     0.52571   0.81725   0.88605   0.00000  Uiso   1.00
O907   O     0.49938   0.78192   0.70710   0.00000  Uiso   1.00
O908   O     0.50062   0.88473   0.79292   0.00000  Uiso   1.00
O909   O     0.36948   0.75369   0.74690   0.00000  Uiso   1.00
O910   O     0.39155   0.90368   0.74501   0.00000  Uiso   1.00
O911   O     0.60845   0.76298   0.75498   0.00000  Uiso   1.00
O912   O     0.63662   0.84063   0.82247   0.00000  Uiso   1.00
O913   O     0.36338   0.82603   0.67753   0.00000  Uiso   1.00
O914   O     0.39764   0.83134   0.81439   0.00000  Uiso   1.00
O915   O     0.60236   0.83533   0.68561   0.00000  Uiso   1.00
O916   O     0.53099   0.94252   0.57880   0.00000  Uiso   1.00
Zn917  Zn    0.60366   0.83954   0.75539   0.00000  Uiso   1.00
Zn918  Zn    0.39634   0.82713   0.74460   0.00000  Uiso   1.00
C919   C     0.68161   0.93149   0.74886   0.00000  Uiso   1.00
C920   C     0.97878   0.82950   0.65873   0.00000  Uiso   1.00
C921   C     0.70162   0.85285   0.89307   0.00000  Uiso   1.00
C922   C     0.96932   0.82819   0.60551   0.00000  Uiso   1.00
C923   C     0.70121   0.91737   0.96132   0.00000  Uiso   1.00
C924   C     0.99180   0.79772   0.52406   0.00000  Uiso   1.00
C925   C     0.67598   0.89405   0.91701   0.00000  Uiso   1.00
C926   C     0.67255   0.80352   0.57446   0.00000  Uiso   1.00
C927   C     0.75059   0.83428   0.91416   0.00000  Uiso   1.00
C928   C     0.92184   0.85086   0.58582   0.00000  Uiso   1.00
C929   C     0.78153   0.86283   0.95327   0.00000  Uiso   1.00
C930   C     0.98507   0.73518   0.75121   0.00000  Uiso   1.00
C931   C     0.90921   0.84882   0.53509   0.00000  Uiso   1.00
C932   C     0.75456   0.90262   0.97919   0.00000  Uiso   1.00
C933   C     0.94215   0.81808   0.50456   0.00000  Uiso   1.00
C934   C     0.83795   0.85199   0.96764   0.00000  Uiso   1.00
C935   C     0.86082   0.87159   0.51487   0.00000  Uiso   1.00
C936   C     0.83496   0.91339   0.53975   0.00000  Uiso   1.00
C937   C     0.87293   0.82380   0.93611   0.00000  Uiso   1.00
C938   C     0.78202   0.92835   0.52135   0.00000  Uiso   1.00
C939   C     0.92458   0.80712   0.95529   0.00000  Uiso   1.00
C940   C     0.68942   0.98602   0.74818   0.00000  Uiso   1.00
C941   C     0.97727   0.68065   0.75198   0.00000  Uiso   1.00
C942   C     0.68816   0.83832   0.84121   0.00000  Uiso   1.00
H943   H     0.76228   0.96026   0.53999   0.00000  Uiso   1.00
H944   H     0.93436   0.99705   0.75565   0.00000  Uiso   1.00
H945   H     0.84055   0.97019   0.59134   0.00000  Uiso   1.00
H946   H     0.88668   0.79538   0.87015   0.00000  Uiso   1.00
H947   H     0.79785   0.76316   0.69080   0.00000  Uiso   1.00
H948   H     0.86881   0.90338   0.80935   0.00000  Uiso   1.00
H949   H     0.95072   0.78474   0.93173   0.00000  Uiso   1.00
H950   H     0.89288   0.86702   0.61082   0.00000  Uiso   1.00
H951   H     0.76538   0.79880   0.89758   0.00000  Uiso   1.00
H952   H     0.71007   0.78631   0.58933   0.00000  Uiso   1.00
H953   H     0.97124   0.90919   0.90075   0.00000  Uiso   1.00
H954   H     0.68070   0.94868   0.98008   0.00000  Uiso   1.00
H955   H     0.68524   0.77593   0.50062   0.00000  Uiso   1.00
H956   H     0.73234   0.66963   0.74452   0.00000  Uiso   1.00
N957   N     0.81362   0.81883   0.73739   0.00000  Uiso   1.00
N958   N     0.85305   0.84784   0.76260   0.00000  Uiso   1.00
O959   O     0.96386   0.91298   0.75309   0.00000  Uiso   1.00
O960   O     0.85904   0.81725   0.88605   0.00000  Uiso   1.00
O961   O     0.83272   0.78192   0.70710   0.00000  Uiso   1.00
O962   O     0.83395   0.88473   0.79292   0.00000  Uiso   1.00
O963   O     0.70281   0.75369   0.74690   0.00000  Uiso   1.00
O964   O     0.72488   0.90368   0.74501   0.00000  Uiso   1.00
O965   O     0.94178   0.76298   0.75498   0.00000  Uiso   1.00
O966   O     0.96995   0.84063   0.82247   0.00000  Uiso   1.00
O967   O     0.69672   0.82603   0.67753   0.00000  Uiso   1.00
O968   O     0.73098   0.83134   0.81439   0.00000  Uiso   1.00
O969   O     0.93569   0.83533   0.68561   0.00000  Uiso   1.00
O970   O     0.86432   0.94252   0.57880   0.00000  Uiso   1.00
Zn971  Zn    0.93700   0.83954   0.75539   0.00000  Uiso   1.00
Zn972  Zn    0.72967   0.82713   0.74460   0.00000  Uiso   1.00
loop_
_geom_bond_atom_site_label_1
_geom_bond_atom_site_label_2
_geom_bond_distance
_geom_bond_site_symmetry_2
_ccdc_geom_bond_type
C1     C22     1.401   .     S
C1     O46     1.290   .     A
C1     O149    1.280   1_455 S
C2     C4      1.454   .     S
C2     O51     1.302   .     A
C2     O103    1.295   .     S
C3     C9      1.385   .     A
C3     C24     1.451   .     S
C3     C7      1.400   .     A
C4     C10     1.391   .     A
C4     C62     1.401   .     S
C5     C14     1.405   .     A
C5     H36     1.084   .     S
C5     C7      1.395   .     A
C6     C15     1.402   .     A
C6     C62     1.392   .     S
C6     H91     1.084   .     S
C7     H143    1.083   1_455 S
C8     H34     1.083   .     S
C8     C112    1.401   1_455 S
C8     C114    1.392   1_455 S
C9     H33     1.080   .     S
C9     C11     1.394   .     A
C10    H32     1.080   .     S
C10    C13     1.395   .     A
C11    C16     1.414   .     A
C11    C14     1.415   .     A
C12    C23     1.402   .     S
C12    O47     1.290   .     A
C12    O99     1.281   .     S
C13    C17     1.414   .     A
C13    C15     1.415   .     A
C14    C506    1.391   .     S
C15    C507    1.388   1_554 S
C16    C19     1.427   .     A
C16    C503    1.415   .     S
C17    C18     1.426   .     A
C17    C502    1.415   1_554 S
C18    C20     1.403   .     A
C18    O52     1.383   .     S
C19    O42     1.383   .     S
C19    C21     1.400   .     A
C20    H25     1.084   .     S
C20    C500    1.391   1_554 S
C21    H31     1.084   .     S
C21    C501    1.388   .     S
C22    C293    1.336   1_455 S
C22    H200    1.088   .     S
C23    C400    1.336   1_545 S
C23    H350    1.088   1_545 S
C24    O50     1.300   .     A
C24    O156    1.296   1_455 S
H26    C185    1.088   .     S
H27    O52     0.992   .     S
H28    O42     0.991   .     S
H29    O43     0.990   .     S
H30    O44     0.990   .     S
H35    C61     1.083   .     S
H37    C114    1.084   1_455 S
H38    C346    1.088   1_545 S
N39    Zn54    2.026   .     S
N39    N40     1.287   .     D
N39    O43     1.338   .     S
N40    O44     1.338   .     S
N40    Zn53    2.026   .     S
O41    Zn53    1.955   .     S
O41    C55     1.280   .     S
O45    Zn54    1.955   .     S
O45    C120    1.281   1_455 S
O46    Zn54    1.976   .     S
O47    Zn53    1.976   .     S
O48    Zn53    1.942   .     S
O48    C78     1.296   .     S
O49    Zn54    1.942   .     S
O49    C110    1.295   1_455 S
O50    Zn54    1.900   .     S
O51    Zn53    1.900   .     S
C55    C76     1.401   .     S
C55    O100    1.290   .     A
C56    C58     1.454   .     S
C56    O105    1.302   .     A
C56    O157    1.295   .     S
C57    C63     1.385   .     A
C57    C78     1.451   .     S
C57    C61     1.400   .     A
C58    C64     1.391   .     A
C58    C116    1.401   .     S
C59    C68     1.405   .     A
C59    H90     1.084   .     S
C59    C61     1.395   .     A
C60    C69     1.402   .     A
C60    C116    1.392   .     S
C60    H145    1.084   .     S
C62    H88     1.083   .     S
C63    H87     1.080   .     S
C63    C65     1.394   .     A
C64    H86     1.080   .     S
C64    C67     1.395   .     A
C65    C70     1.414   .     A
C65    C68     1.415   .     A
C66    C77     1.402   .     S
C66    O101    1.290   .     A
C66    O153    1.281   .     S
C67    C71     1.414   .     A
C67    C69     1.415   .     A
C68    C560    1.391   .     S
C69    C561    1.388   1_554 S
C70    C73     1.427   .     A
C70    C557    1.415   .     S
C71    C72     1.426   .     A
C71    C556    1.415   1_554 S
C72    C74     1.403   .     A
C72    O106    1.383   .     S
C73    O96     1.383   .     S
C73    C75     1.400   .     A
C74    H79     1.084   .     S
C74    C554    1.391   1_554 S
C75    H85     1.084   .     S
C75    C555    1.388   .     S
C76    C185    1.336   .     S
C76    H254    1.088   .     S
C77    C454    1.336   1_545 S
C77    H404    1.088   1_545 S
C78    O104    1.300   .     A
H80    C239    1.088   .     S
H81    O106    0.992   .     S
H82    O96     0.991   .     S
H83    O97     0.990   .     S
H84    O98     0.990   .     S
H89    C115    1.083   .     S
H92    C400    1.088   1_545 S
N93    Zn108   2.026   .     S
N93    N94     1.287   .     D
N93    O97     1.338   .     S
N94    O98     1.338   .     S
N94    Zn107   2.026   .     S
O95    Zn107   1.955   .     S
O95    C109    1.280   .     S
O99    Zn108   1.955   .     S
O100   Zn108   1.976   .     S
O101   Zn107   1.976   .     S
O102   Zn107   1.942   .     S
O102   C132    1.296   .     S
O103   Zn108   1.942   .     S
O104   Zn108   1.900   .     S
O105   Zn107   1.900   .     S
C109   C130    1.401   .     S
C109   O154    1.290   .     A
C110   C112    1.454   .     S
C110   O159    1.302   .     A
C110   O49     1.295   1_655 S
C111   C117    1.385   .     A
C111   C132    1.451   .     S
C111   C115    1.400   .     A
C112   C118    1.391   .     A
C112   C8      1.401   1_655 S
C113   C122    1.405   .     A
C113   H144    1.084   .     S
C113   C115    1.395   .     A
C114   C123    1.402   .     A
C114   C8      1.392   1_655 S
C114   H37     1.084   1_655 S
C116   H142    1.083   .     S
C117   H141    1.080   .     S
C117   C119    1.394   .     A
C118   H140    1.080   .     S
C118   C121    1.395   .     A
C119   C124    1.414   .     A
C119   C122    1.415   .     A
C120   C131    1.402   .     S
C120   O155    1.290   .     A
C120   O45     1.281   1_655 S
C121   C125    1.414   .     A
C121   C123    1.415   .     A
C122   C614    1.391   .     S
C123   C615    1.388   1_554 S
C124   C127    1.427   .     A
C124   C611    1.415   .     S
C125   C126    1.426   .     A
C125   C610    1.415   1_554 S
C126   C128    1.403   .     A
C126   O160    1.383   .     S
C127   O150    1.383   .     S
C127   C129    1.400   .     A
C128   H133    1.084   .     S
C128   C608    1.391   1_554 S
C129   H139    1.084   .     S
C129   C609    1.388   .     S
C130   C239    1.336   .     S
C130   H308    1.088   .     S
C131   C346    1.336   1_645 S
C131   H458    1.088   1_545 S
C132   O158    1.300   .     A
H134   C293    1.088   .     S
H135   O160    0.992   .     S
H136   O150    0.991   .     S
H137   O151    0.990   .     S
H138   O152    0.990   .     S
H143   C7      1.083   1_655 S
H146   C454    1.088   1_545 S
N147   Zn162   2.026   .     S
N147   N148    1.287   .     D
N147   O151    1.338   .     S
N148   O152    1.338   .     S
N148   Zn161   2.026   .     S
O149   Zn161   1.955   .     S
O149   C1      1.280   1_655 S
O153   Zn162   1.955   .     S
O154   Zn162   1.976   .     S
O155   Zn161   1.976   .     S
O156   Zn161   1.942   .     S
O156   C24     1.296   1_655 S
O157   Zn162   1.942   .     S
O158   Zn162   1.900   .     S
O159   Zn161   1.900   .     S
C163   C184    1.401   .     S
C163   O208    1.290   .     A
C163   O311    1.280   1_455 S
C164   C166    1.454   .     S
C164   O213    1.302   .     A
C164   O265    1.295   .     S
C165   C171    1.385   .     A
C165   C186    1.451   .     S
C165   C169    1.400   .     A
C166   C172    1.391   .     A
C166   C224    1.401   .     S
C167   C176    1.405   .     A
C167   H198    1.084   .     S
C167   C169    1.395   .     A
C168   C177    1.402   .     A
C168   C224    1.392   .     S
C168   H253    1.084   .     S
C169   H305    1.083   1_455 S
C170   H196    1.083   .     S
C170   C274    1.401   1_455 S
C170   C276    1.392   1_455 S
C171   H195    1.080   .     S
C171   C173    1.394   .     A
C172   H194    1.080   .     S
C172   C175    1.395   .     A
C173   C178    1.414   .     A
C173   C176    1.415   .     A
C174   C185    1.402   .     S
C174   O209    1.290   .     A
C174   O261    1.281   .     S
C175   C179    1.414   .     A
C175   C177    1.415   .     A
C176   C668    1.391   .     S
C177   C669    1.388   1_554 S
C178   C181    1.427   .     A
C178   C665    1.415   .     S
C179   C180    1.426   .     A
C179   C664    1.415   1_554 S
C180   C182    1.403   .     A
C180   O214    1.383   .     S
C181   O204    1.383   .     S
C181   C183    1.400   .     A
C182   H187    1.084   .     S
C182   C662    1.391   1_554 S
C183   H193    1.084   .     S
C183   C663    1.388   .     S
C184   C455    1.336   1_455 S
C184   H362    1.088   .     S
C186   O212    1.300   .     A
C186   O318    1.296   1_455 S
H188   C347    1.088   .     S
H189   O214    0.992   .     S
H190   O204    0.991   .     S
H191   O205    0.990   .     S
H192   O206    0.990   .     S
H197   C223    1.083   .     S
H199   C276    1.084   1_455 S
N201   Zn216   2.026   .     S
N201   N202    1.287   .     D
N201   O205    1.338   .     S
N202   O206    1.338   .     S
N202   Zn215   2.026   .     S
O203   Zn215   1.955   .     S
O203   C217    1.280   .     S
O207   Zn216   1.955   .     S
O207   C282    1.281   1_455 S
O208   Zn216   1.976   .     S
O209   Zn215   1.976   .     S
O210   Zn215   1.942   .     S
O210   C240    1.296   .     S
O211   Zn216   1.942   .     S
O211   C272    1.295   1_455 S
O212   Zn216   1.900   .     S
O213   Zn215   1.900   .     S
C217   C238    1.401   .     S
C217   O262    1.290   .     A
C218   C220    1.454   .     S
C218   O267    1.302   .     A
C218   O319    1.295   .     S
C219   C225    1.385   .     A
C219   C240    1.451   .     S
C219   C223    1.400   .     A
C220   C226    1.391   .     A
C220   C278    1.401   .     S
C221   C230    1.405   .     A
C221   H252    1.084   .     S
C221   C223    1.395   .     A
C222   C231    1.402   .     A
C222   C278    1.392   .     S
C222   H307    1.084   .     S
C224   H250    1.083   .     S
C225   H249    1.080   .     S
C225   C227    1.394   .     A
C226   H248    1.080   .     S
C226   C229    1.395   .     A
C227   C232    1.414   .     A
C227   C230    1.415   .     A
C228   C239    1.402   .     S
C228   O263    1.290   .     A
C228   O315    1.281   .     S
C229   C233    1.414   .     A
C229   C231    1.415   .     A
C230   C722    1.391   .     S
C231   C723    1.388   1_554 S
C232   C235    1.427   .     A
C232   C719    1.415   .     S
C233   C234    1.426   .     A
C233   C718    1.415   1_554 S
C234   C236    1.403   .     A
C234   O268    1.383   .     S
C235   O258    1.383   .     S
C235   C237    1.400   .     A
C236   H241    1.084   .     S
C236   C716    1.391   1_554 S
C237   H247    1.084   .     S
C237   C717    1.388   .     S
C238   C347    1.336   .     S
C238   H416    1.088   .     S
C240   O266    1.300   .     A
H242   C401    1.088   .     S
H243   O268    0.992   .     S
H244   O258    0.991   .     S
H245   O259    0.990   .     S
H246   O260    0.990   .     S
H251   C277    1.083   .     S
N255   Zn270   2.026   .     S
N255   N256    1.287   .     D
N255   O259    1.338   .     S
N256   O260    1.338   .     S
N256   Zn269   2.026   .     S
O257   Zn269   1.955   .     S
O257   C271    1.280   .     S
O261   Zn270   1.955   .     S
O262   Zn270   1.976   .     S
O263   Zn269   1.976   .     S
O264   Zn269   1.942   .     S
O264   C294    1.296   .     S
O265   Zn270   1.942   .     S
O266   Zn270   1.900   .     S
O267   Zn269   1.900   .     S
C271   C292    1.401   .     S
C271   O316    1.290   .     A
C272   C274    1.454   .     S
C272   O321    1.302   .     A
C272   O211    1.295   1_655 S
C273   C279    1.385   .     A
C273   C294    1.451   .     S
C273   C277    1.400   .     A
C274   C280    1.391   .     A
C274   C170    1.401   1_655 S
C275   C284    1.405   .     A
C275   H306    1.084   .     S
C275   C277    1.395   .     A
C276   C285    1.402   .     A
C276   C170    1.392   1_655 S
C276   H199    1.084   1_655 S
C278   H304    1.083   .     S
C279   H303    1.080   .     S
C279   C281    1.394   .     A
C280   H302    1.080   .     S
C280   C283    1.395   .     A
C281   C286    1.414   .     A
C281   C284    1.415   .     A
C282   C293    1.402   .     S
C282   O317    1.290   .     A
C282   O207    1.281   1_655 S
C283   C287    1.414   .     A
C283   C285    1.415   .     A
C284   C776    1.391   .     S
C285   C777    1.388   1_554 S
C286   C289    1.427   .     A
C286   C773    1.415   .     S
C287   C288    1.426   .     A
C287   C772    1.415   1_554 S
C288   C290    1.403   .     A
C288   O322    1.383   .     S
C289   O312    1.383   .     S
C289   C291    1.400   .     A
C290   H295    1.084   .     S
C290   C770    1.391   1_554 S
C291   H301    1.084   .     S
C291   C771    1.388   .     S
C292   C401    1.336   .     S
C292   H470    1.088   .     S
C293   C22     1.336   1_655 S
C294   O320    1.300   .     A
H296   C455    1.088   .     S
H297   O322    0.992   .     S
H298   O312    0.991   .     S
H299   O313    0.990   .     S
H300   O314    0.990   .     S
H305   C169    1.083   1_655 S
N309   Zn324   2.026   .     S
N309   N310    1.287   .     D
N309   O313    1.338   .     S
N310   O314    1.338   .     S
N310   Zn323   2.026   .     S
O311   Zn323   1.955   .     S
O311   C163    1.280   1_655 S
O315   Zn324   1.955   .     S
O316   Zn324   1.976   .     S
O317   Zn323   1.976   .     S
O318   Zn323   1.942   .     S
O318   C186    1.296   1_655 S
O319   Zn324   1.942   .     S
O320   Zn324   1.900   .     S
O321   Zn323   1.900   .     S
C325   C346    1.401   .     S
C325   O370    1.290   .     A
C325   O473    1.280   1_455 S
C326   C328    1.454   .     S
C326   O375    1.302   .     A
C326   O427    1.295   .     S
C327   C333    1.385   .     A
C327   C348    1.451   .     S
C327   C331    1.400   .     A
C328   C334    1.391   .     A
C328   C386    1.401   .     S
C329   C338    1.405   .     A
C329   H360    1.084   .     S
C329   C331    1.395   .     A
C330   C339    1.402   .     A
C330   C386    1.392   .     S
C330   H415    1.084   .     S
C331   H467    1.083   1_455 S
C332   H358    1.083   .     S
C332   C436    1.401   1_455 S
C332   C438    1.392   1_455 S
C333   H357    1.080   .     S
C333   C335    1.394   .     A
C334   H356    1.080   .     S
C334   C337    1.395   .     A
C335   C340    1.414   .     A
C335   C338    1.415   .     A
C336   C347    1.402   .     S
C336   O371    1.290   .     A
C336   O423    1.281   .     S
C337   C341    1.414   .     A
C337   C339    1.415   .     A
C338   C830    1.391   .     S
C339   C831    1.388   1_554 S
C340   C343    1.427   .     A
C340   C827    1.415   .     S
C341   C342    1.426   .     A
C341   C826    1.415   1_554 S
C342   C344    1.403   .     A
C342   O376    1.383   .     S
C343   O366    1.383   .     S
C343   C345    1.400   .     A
C344   H349    1.084   .     S
C344   C824    1.391   1_554 S
C345   H355    1.084   .     S
C345   C825    1.388   .     S
C346   C131    1.336   1_465 S
C346   H38     1.088   1_565 S
C348   O374    1.300   .     A
C348   O480    1.296   1_455 S
H350   C23     1.088   1_565 S
H351   O376    0.992   .     S
H352   O366    0.991   .     S
H353   O367    0.990   .     S
H354   O368    0.990   .     S
H359   C385    1.083   .     S
H361   C438    1.084   1_455 S
N363   Zn378   2.026   .     S
N363   N364    1.287   .     D
N363   O367    1.338   .     S
N364   O368    1.338   .     S
N364   Zn377   2.026   .     S
O365   Zn377   1.955   .     S
O365   C379    1.280   .     S
O369   Zn378   1.955   .     S
O369   C444    1.281   1_455 S
O370   Zn378   1.976   .     S
O371   Zn377   1.976   .     S
O372   Zn377   1.942   .     S
O372   C402    1.296   .     S
O373   Zn378   1.942   .     S
O373   C434    1.295   1_455 S
O374   Zn378   1.900   .     S
O375   Zn377   1.900   .     S
C379   C400    1.401   .     S
C379   O424    1.290   .     A
C380   C382    1.454   .     S
C380   O429    1.302   .     A
C380   O481    1.295   .     S
C381   C387    1.385   .     A
C381   C402    1.451   .     S
C381   C385    1.400   .     A
C382   C388    1.391   .     A
C382   C440    1.401   .     S
C383   C392    1.405   .     A
C383   H414    1.084   .     S
C383   C385    1.395   .     A
C384   C393    1.402   .     A
C384   C440    1.392   .     S
C384   H469    1.084   .     S
C386   H412    1.083   .     S
C387   H411    1.080   .     S
C387   C389    1.394   .     A
C388   H410    1.080   .     S
C388   C391    1.395   .     A
C389   C394    1.414   .     A
C389   C392    1.415   .     A
C390   C401    1.402   .     S
C390   O425    1.290   .     A
C390   O477    1.281   .     S
C391   C395    1.414   .     A
C391   C393    1.415   .     A
C392   C884    1.391   .     S
C393   C885    1.388   1_554 S
C394   C397    1.427   .     A
C394   C881    1.415   .     S
C395   C396    1.426   .     A
C395   C880    1.415   1_554 S
C396   C398    1.403   .     A
C396   O430    1.383   .     S
C397   O420    1.383   .     S
C397   C399    1.400   .     A
C398   H403    1.084   .     S
C398   C878    1.391   1_554 S
C399   H409    1.084   .     S
C399   C879    1.388   .     S
C400   C23     1.336   1_565 S
C400   H92     1.088   1_565 S
C402   O428    1.300   .     A
H404   C77     1.088   1_565 S
H405   O430    0.992   .     S
H406   O420    0.991   .     S
H407   O421    0.990   .     S
H408   O422    0.990   .     S
H413   C439    1.083   .     S
N417   Zn432   2.026   .     S
N417   N418    1.287   .     D
N417   O421    1.338   .     S
N418   O422    1.338   .     S
N418   Zn431   2.026   .     S
O419   Zn431   1.955   .     S
O419   C433    1.280   .     S
O423   Zn432   1.955   .     S
O424   Zn432   1.976   .     S
O425   Zn431   1.976   .     S
O426   Zn431   1.942   .     S
O426   C456    1.296   .     S
O427   Zn432   1.942   .     S
O428   Zn432   1.900   .     S
O429   Zn431   1.900   .     S
C433   C454    1.401   .     S
C433   O478    1.290   .     A
C434   C436    1.454   .     S
C434   O483    1.302   .     A
C434   O373    1.295   1_655 S
C435   C441    1.385   .     A
C435   C456    1.451   .     S
C435   C439    1.400   .     A
C436   C442    1.391   .     A
C436   C332    1.401   1_655 S
C437   C446    1.405   .     A
C437   H468    1.084   .     S
C437   C439    1.395   .     A
C438   C447    1.402   .     A
C438   C332    1.392   1_655 S
C438   H361    1.084   1_655 S
C440   H466    1.083   .     S
C441   H465    1.080   .     S
C441   C443    1.394   .     A
C442   H464    1.080   .     S
C442   C445    1.395   .     A
C443   C448    1.414   .     A
C443   C446    1.415   .     A
C444   C455    1.402   .     S
C444   O479    1.290   .     A
C444   O369    1.281   1_655 S
C445   C449    1.414   .     A
C445   C447    1.415   .     A
C446   C938    1.391   .     S
C447   C939    1.388   1_554 S
C448   C451    1.427   .     A
C448   C935    1.415   .     S
C449   C450    1.426   .     A
C449   C934    1.415   1_554 S
C450   C452    1.403   .     A
C450   O484    1.383   .     S
C451   O474    1.383   .     S
C451   C453    1.400   .     A
C452   H457    1.084   .     S
C452   C932    1.391   1_554 S
C453   H463    1.084   .     S
C453   C933    1.388   .     S
C454   C77     1.336   1_565 S
C454   H146    1.088   1_565 S
C455   C184    1.336   1_655 S
C456   O482    1.300   .     A
H458   C131    1.088   1_565 S
H459   O484    0.992   .     S
H460   O474    0.991   .     S
H461   O475    0.990   .     S
H462   O476    0.990   .     S
H467   C331    1.083   1_655 S
N471   Zn486   2.026   .     S
N471   N472    1.287   .     D
N471   O475    1.338   .     S
N472   O476    1.338   .     S
N472   Zn485   2.026   .     S
O473   Zn485   1.955   .     S
O473   C325    1.280   1_655 S
O477   Zn486   1.955   .     S
O478   Zn486   1.976   .     S
O479   Zn485   1.976   .     S
O480   Zn485   1.942   .     S
O480   C348    1.296   1_655 S
O481   Zn486   1.942   .     S
O482   Zn486   1.900   .     S
O483   Zn485   1.900   .     S
C487   C508    1.401   .     S
C487   O532    1.290   .     A
C487   O635    1.280   1_455 S
C488   C490    1.454   .     S
C488   O537    1.302   .     A
C488   O589    1.295   .     S
C489   C495    1.385   .     A
C489   C510    1.451   .     S
C489   C493    1.400   .     A
C490   C496    1.391   .     A
C490   C548    1.401   .     S
C491   C500    1.405   .     A
C491   H522    1.084   .     S
C491   C493    1.395   .     A
C492   C501    1.402   .     A
C492   C548    1.392   .     S
C492   H577    1.084   .     S
C493   H629    1.083   1_455 S
C494   H520    1.083   .     S
C494   C598    1.401   1_455 S
C494   C600    1.392   1_455 S
C495   H519    1.080   .     S
C495   C497    1.394   .     A
C496   H518    1.080   .     S
C496   C499    1.395   .     A
C497   C502    1.414   .     A
C497   C500    1.415   .     A
C498   C509    1.402   .     S
C498   O533    1.290   .     A
C498   O585    1.281   .     S
C499   C503    1.414   .     A
C499   C501    1.415   .     A
C500   C20     1.391   1_556 S
C502   C505    1.427   .     A
C502   C17     1.415   1_556 S
C503   C504    1.426   .     A
C504   C506    1.403   .     A
C504   O538    1.383   .     S
C505   O528    1.383   .     S
C505   C507    1.400   .     A
C506   H511    1.084   .     S
C507   H517    1.084   .     S
C507   C15     1.388   1_556 S
C508   C779    1.336   1_455 S
C508   H686    1.088   .     S
C509   C886    1.336   1_545 S
C509   H836    1.088   1_545 S
C510   O536    1.300   .     A
C510   O642    1.296   1_455 S
H512   C671    1.088   .     S
H513   O538    0.992   .     S
H514   O528    0.991   .     S
H515   O529    0.990   .     S
H516   O530    0.990   .     S
H521   C547    1.083   .     S
H523   C600    1.084   1_455 S
H524   C832    1.088   1_545 S
N525   Zn540   2.026   .     S
N525   N526    1.287   .     D
N525   O529    1.338   .     S
N526   O530    1.338   .     S
N526   Zn539   2.026   .     S
O527   Zn539   1.955   .     S
O527   C541    1.280   .     S
O531   Zn540   1.955   .     S
O531   C606    1.281   1_455 S
O532   Zn540   1.976   .     S
O533   Zn539   1.976   .     S
O534   Zn539   1.942   .     S
O534   C564    1.296   .     S
O535   Zn540   1.942   .     S
O535   C596    1.295   1_455 S
O536   Zn540   1.900   .     S
O537   Zn539   1.900   .     S
C541   C562    1.401   .     S
C541   O586    1.290   .     A
C542   C544    1.454   .     S
C542   O591    1.302   .     A
C542   O643    1.295   .     S
C543   C549    1.385   .     A
C543   C564    1.451   .     S
C543   C547    1.400   .     A
C544   C550    1.391   .     A
C544   C602    1.401   .     S
C545   C554    1.405   .     A
C545   H576    1.084   .     S
C545   C547    1.395   .     A
C546   C555    1.402   .     A
C546   C602    1.392   .     S
C546   H631    1.084   .     S
C548   H574    1.083   .     S
C549   H573    1.080   .     S
C549   C551    1.394   .     A
C550   H572    1.080   .     S
C550   C553    1.395   .     A
C551   C556    1.414   .     A
C551   C554    1.415   .     A
C552   C563    1.402   .     S
C552   O587    1.290   .     A
C552   O639    1.281   .     S
C553   C557    1.414   .     A
C553   C555    1.415   .     A
C554   C74     1.391   1_556 S
C556   C559    1.427   .     A
C556   C71     1.415   1_556 S
C557   C558    1.426   .     A
C558   C560    1.403   .     A
C558   O592    1.383   .     S
C559   O582    1.383   .     S
C559   C561    1.400   .     A
C560   H565    1.084   .     S
C561   H571    1.084   .     S
C561   C69     1.388   1_556 S
C562   C671    1.336   .     S
C562   H740    1.088   .     S
C563   C940    1.336   1_545 S
C563   H890    1.088   1_545 S
C564   O590    1.300   .     A
H566   C725    1.088   .     S
H567   O592    0.992   .     S
H568   O582    0.991   .     S
H569   O583    0.990   .     S
H570   O584    0.990   .     S
H575   C601    1.083   .     S
H578   C886    1.088   1_545 S
N579   Zn594   2.026   .     S
N579   N580    1.287   .     D
N579   O583    1.338   .     S
N580   O584    1.338   .     S
N580   Zn593   2.026   .     S
O581   Zn593   1.955   .     S
O581   C595    1.280   .     S
O585   Zn594   1.955   .     S
O586   Zn594   1.976   .     S
O587   Zn593   1.976   .     S
O588   Zn593   1.942   .     S
O588   C618    1.296   .     S
O589   Zn594   1.942   .     S
O590   Zn594   1.900   .     S
O591   Zn593   1.900   .     S
C595   C616    1.401   .     S
C595   O640    1.290   .     A
C596   C598    1.454   .     S
C596   O645    1.302   .     A
C596   O535    1.295   1_655 S
C597   C603    1.385   .     A
C597   C618    1.451   .     S
C597   C601    1.400   .     A
C598   C604    1.391   .     A
C598   C494    1.401   1_655 S
C599   C608    1.405   .     A
C599   H630    1.084   .     S
C599   C601    1.395   .     A
C600   C609    1.402   .     A
C600   C494    1.392   1_655 S
C600   H523    1.084   1_655 S
C602   H628    1.083   .     S
C603   H627    1.080   .     S
C603   C605    1.394   .     A
C604   H626    1.080   .     S
C604   C607    1.395   .     A
C605   C610    1.414   .     A
C605   C608    1.415   .     A
C606   C617    1.402   .     S
C606   O641    1.290   .     A
C606   O531    1.281   1_655 S
C607   C611    1.414   .     A
C607   C609    1.415   .     A
C608   C128    1.391   1_556 S
C610   C613    1.427   .     A
C610   C125    1.415   1_556 S
C611   C612    1.426   .     A
C612   C614    1.403   .     A
C612   O646    1.383   .     S
C613   O636    1.383   .     S
C613   C615    1.400   .     A
C614   H619    1.084   .     S
C615   H625    1.084   .     S
C615   C123    1.388   1_556 S
C616   C725    1.336   .     S
C616   H794    1.088   .     S
C617   C832    1.336   1_645 S
C617   H944    1.088   1_545 S
C618   O644    1.300   .     A
H620   C779    1.088   .     S
H621   O646    0.992   .     S
H622   O636    0.991   .     S
H623   O637    0.990   .     S
H624   O638    0.990   .     S
H629   C493    1.083   1_655 S
H632   C940    1.088   1_545 S
N633   Zn648   2.026   .     S
N633   N634    1.287   .     D
N633   O637    1.338   .     S
N634   O638    1.338   .     S
N634   Zn647   2.026   .     S
O635   Zn647   1.955   .     S
O635   C487    1.280   1_655 S
O639   Zn648   1.955   .     S
O640   Zn648   1.976   .     S
O641   Zn647   1.976   .     S
O642   Zn647   1.942   .     S
O642   C510    1.296   1_655 S
O643   Zn648   1.942   .     S
O644   Zn648   1.900   .     S
O645   Zn647   1.900   .     S
C649   C670    1.401   .     S
C649   O694    1.290   .     A
C649   O797    1.280   1_455 S
C650   C652    1.454   .     S
C650   O699    1.302   .     A
C650   O751    1.295   .     S
C651   C657    1.385   .     A
C651   C672    1.451   .     S
C651   C655    1.400   .     A
C652   C658    1.391   .     A
C652   C710    1.401   .     S
C653   C662    1.405   .     A
C653   H684    1.084   .     S
C653   C655    1.395   .     A
C654   C663    1.402   .     A
C654   C710    1.392   .     S
C654   H739    1.084   .     S
C655   H791    1.083   1_455 S
C656   H682    1.083   .     S
C656   C760    1.401   1_455 S
C656   C762    1.392   1_455 S
C657   H681    1.080   .     S
C657   C659    1.394   .     A
C658   H680    1.080   .     S
C658   C661    1.395   .     A
C659   C664    1.414   .     A
C659   C662    1.415   .     A
C660   C671    1.402   .     S
C660   O695    1.290   .     A
C660   O747    1.281   .     S
C661   C665    1.414   .     A
C661   C663    1.415   .     A
C662   C182    1.391   1_556 S
C664   C667    1.427   .     A
C664   C179    1.415   1_556 S
C665   C666    1.426   .     A
C666   C668    1.403   .     A
C666   O700    1.383   .     S
C667   O690    1.383   .     S
C667   C669    1.400   .     A
C668   H673    1.084   .     S
C669   H679    1.084   .     S
C669   C177    1.388   1_556 S
C670   C941    1.336   1_455 S
C670   H848    1.088   .     S
C672   O698    1.300   .     A
C672   O804    1.296   1_455 S
H674   C833    1.088   .     S
H675   O700    0.992   .     S
H676   O690    0.991   .     S
H677   O691    0.990   .     S
H678   O692    0.990   .     S
H683   C709    1.083   .     S
H685   C762    1.084   1_455 S
N687   Zn702   2.026   .     S
N687   N688    1.287   .     D
N687   O691    1.338   .     S
N688   O692    1.338   .     S
N688   Zn701   2.026   .     S
O689   Zn701   1.955   .     S
O689   C703    1.280   .     S
O693   Zn702   1.955   .     S
O693   C768    1.281   1_455 S
O694   Zn702   1.976   .     S
O695   Zn701   1.976   .     S
O696   Zn701   1.942   .     S
O696   C726    1.296   .     S
O697   Zn702   1.942   .     S
O697   C758    1.295   1_455 S
O698   Zn702   1.900   .     S
O699   Zn701   1.900   .     S
C703   C724    1.401   .     S
C703   O748    1.290   .     A
C704   C706    1.454   .     S
C704   O753    1.302   .     A
C704   O805    1.295   .     S
C705   C711    1.385   .     A
C705   C726    1.451   .     S
C705   C709    1.400   .     A
C706   C712    1.391   .     A
C706   C764    1.401   .     S
C707   C716    1.405   .     A
C707   H738    1.084   .     S
C707   C709    1.395   .     A
C708   C717    1.402   .     A
C708   C764    1.392   .     S
C708   H793    1.084   .     S
C710   H736    1.083   .     S
C711   H735    1.080   .     S
C711   C713    1.394   .     A
C712   H734    1.080   .     S
C712   C715    1.395   .     A
C713   C718    1.414   .     A
C713   C716    1.415   .     A
C714   C725    1.402   .     S
C714   O749    1.290   .     A
C714   O801    1.281   .     S
C715   C719    1.414   .     A
C715   C717    1.415   .     A
C716   C236    1.391   1_556 S
C718   C721    1.427   .     A
C718   C233    1.415   1_556 S
C719   C720    1.426   .     A
C720   C722    1.403   .     A
C720   O754    1.383   .     S
C721   O744    1.383   .     S
C721   C723    1.400   .     A
C722   H727    1.084   .     S
C723   H733    1.084   .     S
C723   C231    1.388   1_556 S
C724   C833    1.336   .     S
C724   H902    1.088   .     S
C726   O752    1.300   .     A
H728   C887    1.088   .     S
H729   O754    0.992   .     S
H730   O744    0.991   .     S
H731   O745    0.990   .     S
H732   O746    0.990   .     S
H737   C763    1.083   .     S
N741   Zn756   2.026   .     S
N741   N742    1.287   .     D
N741   O745    1.338   .     S
N742   O746    1.338   .     S
N742   Zn755   2.026   .     S
O743   Zn755   1.955   .     S
O743   C757    1.280   .     S
O747   Zn756   1.955   .     S
O748   Zn756   1.976   .     S
O749   Zn755   1.976   .     S
O750   Zn755   1.942   .     S
O750   C780    1.296   .     S
O751   Zn756   1.942   .     S
O752   Zn756   1.900   .     S
O753   Zn755   1.900   .     S
C757   C778    1.401   .     S
C757   O802    1.290   .     A
C758   C760    1.454   .     S
C758   O807    1.302   .     A
C758   O697    1.295   1_655 S
C759   C765    1.385   .     A
C759   C780    1.451   .     S
C759   C763    1.400   .     A
C760   C766    1.391   .     A
C760   C656    1.401   1_655 S
C761   C770    1.405   .     A
C761   H792    1.084   .     S
C761   C763    1.395   .     A
C762   C771    1.402   .     A
C762   C656    1.392   1_655 S
C762   H685    1.084   1_655 S
C764   H790    1.083   .     S
C765   H789    1.080   .     S
C765   C767    1.394   .     A
C766   H788    1.080   .     S
C766   C769    1.395   .     A
C767   C772    1.414   .     A
C767   C770    1.415   .     A
C768   C779    1.402   .     S
C768   O803    1.290   .     A
C768   O693    1.281   1_655 S
C769   C773    1.414   .     A
C769   C771    1.415   .     A
C770   C290    1.391   1_556 S
C772   C775    1.427   .     A
C772   C287    1.415   1_556 S
C773   C774    1.426   .     A
C774   C776    1.403   .     A
C774   O808    1.383   .     S
C775   O798    1.383   .     S
C775   C777    1.400   .     A
C776   H781    1.084   .     S
C777   H787    1.084   .     S
C777   C285    1.388   1_556 S
C778   C887    1.336   .     S
C778   H956    1.088   .     S
C779   C508    1.336   1_655 S
C780   O806    1.300   .     A
H782   C941    1.088   .     S
H783   O808    0.992   .     S
H784   O798    0.991   .     S
H785   O799    0.990   .     S
H786   O800    0.990   .     S
H791   C655    1.083   1_655 S
N795   Zn810   2.026   .     S
N795   N796    1.287   .     D
N795   O799    1.338   .     S
N796   O800    1.338   .     S
N796   Zn809   2.026   .     S
O797   Zn809   1.955   .     S
O797   C649    1.280   1_655 S
O801   Zn810   1.955   .     S
O802   Zn810   1.976   .     S
O803   Zn809   1.976   .     S
O804   Zn809   1.942   .     S
O804   C672    1.296   1_655 S
O805   Zn810   1.942   .     S
O806   Zn810   1.900   .     S
O807   Zn809   1.900   .     S
C811   C832    1.401   .     S
C811   O856    1.290   .     A
C811   O959    1.280   1_455 S
C812   C814    1.454   .     S
C812   O861    1.302   .     A
C812   O913    1.295   .     S
C813   C819    1.385   .     A
C813   C834    1.451   .     S
C813   C817    1.400   .     A
C814   C820    1.391   .     A
C814   C872    1.401   .     S
C815   C824    1.405   .     A
C815   H846    1.084   .     S
C815   C817    1.395   .     A
C816   C825    1.402   .     A
C816   C872    1.392   .     S
C816   H901    1.084   .     S
C817   H953    1.083   1_455 S
C818   H844    1.083   .     S
C818   C922    1.401   1_455 S
C818   C924    1.392   1_455 S
C819   H843    1.080   .     S
C819   C821    1.394   .     A
C820   H842    1.080   .     S
C820   C823    1.395   .     A
C821   C826    1.414   .     A
C821   C824    1.415   .     A
C822   C833    1.402   .     S
C822   O857    1.290   .     A
C822   O909    1.281   .     S
C823   C827    1.414   .     A
C823   C825    1.415   .     A
C824   C344    1.391   1_556 S
C826   C829    1.427   .     A
C826   C341    1.415   1_556 S
C827   C828    1.426   .     A
C828   C830    1.403   .     A
C828   O862    1.383   .     S
C829   O852    1.383   .     S
C829   C831    1.400   .     A
C830   H835    1.084   .     S
C831   H841    1.084   .     S
C831   C339    1.388   1_556 S
C832   C617    1.336   1_465 S
C832   H524    1.088   1_565 S
C834   O860    1.300   .     A
C834   O966    1.296   1_455 S
H836   C509    1.088   1_565 S
H837   O862    0.992   .     S
H838   O852    0.991   .     S
H839   O853    0.990   .     S
H840   O854    0.990   .     S
H845   C871    1.083   .     S
H847   C924    1.084   1_455 S
N849   Zn864   2.026   .     S
N849   N850    1.287   .     D
N849   O853    1.338   .     S
N850   O854    1.338   .     S
N850   Zn863   2.026   .     S
O851   Zn863   1.955   .     S
O851   C865    1.280   .     S
O855   Zn864   1.955   .     S
O855   C930    1.281   1_455 S
O856   Zn864   1.976   .     S
O857   Zn863   1.976   .     S
O858   Zn863   1.942   .     S
O858   C888    1.296   .     S
O859   Zn864   1.942   .     S
O859   C920    1.295   1_455 S
O860   Zn864   1.900   .     S
O861   Zn863   1.900   .     S
C865   C886    1.401   .     S
C865   O910    1.290   .     A
C866   C868    1.454   .     S
C866   O915    1.302   .     A
C866   O967    1.295   .     S
C867   C873    1.385   .     A
C867   C888    1.451   .     S
C867   C871    1.400   .     A
C868   C874    1.391   .     A
C868   C926    1.401   .     S
C869   C878    1.405   .     A
C869   H900    1.084   .     S
C869   C871    1.395   .     A
C870   C879    1.402   .     A
C870   C926    1.392   .     S
C870   H955    1.084   .     S
C872   H898    1.083   .     S
C873   H897    1.080   .     S
C873   C875    1.394   .     A
C874   H896    1.080   .     S
C874   C877    1.395   .     A
C875   C880    1.414   .     A
C875   C878    1.415   .     A
C876   C887    1.402   .     S
C876   O911    1.290   .     A
C876   O963    1.281   .     S
C877   C881    1.414   .     A
C877   C879    1.415   .     A
C878   C398    1.391   1_556 S
C880   C883    1.427   .     A
C880   C395    1.415   1_556 S
C881   C882    1.426   .     A
C882   C884    1.403   .     A
C882   O916    1.383   .     S
C883   O906    1.383   .     S
C883   C885    1.400   .     A
C884   H889    1.084   .     S
C885   H895    1.084   .     S
C885   C393    1.388   1_556 S
C886   C509    1.336   1_565 S
C886   H578    1.088   1_565 S
C888   O914    1.300   .     A
H890   C563    1.088   1_565 S
H891   O916    0.992   .     S
H892   O906    0.991   .     S
H893   O907    0.990   .     S
H894   O908    0.990   .     S
H899   C925    1.083   .     S
N903   Zn918   2.026   .     S
N903   N904    1.287   .     D
N903   O907    1.338   .     S
N904   O908    1.338   .     S
N904   Zn917   2.026   .     S
O905   Zn917   1.955   .     S
O905   C919    1.280   .     S
O909   Zn918   1.955   .     S
O910   Zn918   1.976   .     S
O911   Zn917   1.976   .     S
O912   Zn917   1.942   .     S
O912   C942    1.296   .     S
O913   Zn918   1.942   .     S
O914   Zn918   1.900   .     S
O915   Zn917   1.900   .     S
C919   C940    1.401   .     S
C919   O964    1.290   .     A
C920   C922    1.454   .     S
C920   O969    1.302   .     A
C920   O859    1.295   1_655 S
C921   C927    1.385   .     A
C921   C942    1.451   .     S
C921   C925    1.400   .     A
C922   C928    1.391   .     A
C922   C818    1.401   1_655 S
C923   C932    1.405   .     A
C923   H954    1.084   .     S
C923   C925    1.395   .     A
C924   C933    1.402   .     A
C924   C818    1.392   1_655 S
C924   H847    1.084   1_655 S
C926   H952    1.083   .     S
C927   H951    1.080   .     S
C927   C929    1.394   .     A
C928   H950    1.080   .     S
C928   C931    1.395   .     A
C929   C934    1.414   .     A
C929   C932    1.415   .     A
C930   C941    1.402   .     S
C930   O965    1.290   .     A
C930   O855    1.281   1_655 S
C931   C935    1.414   .     A
C931   C933    1.415   .     A
C932   C452    1.391   1_556 S
C934   C937    1.427   .     A
C934   C449    1.415   1_556 S
C935   C936    1.426   .     A
C936   C938    1.403   .     A
C936   O970    1.383   .     S
C937   O960    1.383   .     S
C937   C939    1.400   .     A
C938   H943    1.084   .     S
C939   H949    1.084   .     S
C939   C447    1.388   1_556 S
C940   C563    1.336   1_565 S
C940   H632    1.088   1_565 S
C941   C670    1.336   1_655 S
C942   O968    1.300   .     A
H944   C617    1.088   1_565 S
H945   O970    0.992   .     S
H946   O960    0.991   .     S
H947   O961    0.990   .     S
H948   O962    0.990   .     S
H953   C817    1.083   1_655 S
N957   Zn972   2.026   .     S
N957   N958    1.287   .     D
N957   O961    1.338   .     S
N958   O962    1.338   .     S
N958   Zn971   2.026   .     S
O959   Zn971   1.955   .     S
O959   C811    1.280   1_655 S
O963   Zn972   1.955   .     S
O964   Zn972   1.976   .     S
O965   Zn971   1.976   .     S
O966   Zn971   1.942   .     S
O966   C834    1.296   1_655 S
O967   Zn972   1.942   .     S
O968   Zn972   1.900   .     S
O969   Zn971   1.900   .     S
