data_str_m3_o1_o10_pcu_sym.74
_audit_creation_date              2020-01-03
_audit_creation_method            'Materials Studio'
_symmetry_space_group_name_H-M    'P1'
_symmetry_Int_Tables_number       1
_symmetry_cell_setting            triclinic
loop_
_symmetry_equiv_pos_as_xyz
  x,y,z
_cell_length_a                    25.7744
_cell_length_b                    32.0964
_cell_length_c                    29.7346
_cell_angle_alpha                 89.3742
_cell_angle_beta                  97.2236
_cell_angle_gamma                 91.0184
loop_
_atom_site_label
_atom_site_type_symbol
_atom_site_fract_x
_atom_site_fract_y
_atom_site_fract_z
_atom_site_U_iso_or_equiv
_atom_site_adp_type
_atom_site_occupancy
C1     C     0.16644   0.08671   0.16678   0.00000  Uiso   1.00
C2     C     0.18022   0.02112   0.20755   0.00000  Uiso   1.00
C3     C     0.16709   0.29082   0.16648   0.00000  Uiso   1.00
C4     C     0.16624   0.04252   0.16685   0.00000  Uiso   1.00
C5     C     0.19034   0.19855   0.02540   0.00000  Uiso   1.00
C6     C     0.14299   0.13478   0.30793   0.00000  Uiso   1.00
C7     C     0.18961   0.19847   0.31100   0.00000  Uiso   1.00
C8     C     0.14373   0.13487   0.02233   0.00000  Uiso   1.00
C9     C     0.32671   0.11946   0.12463   0.00000  Uiso   1.00
C10    C     0.00662   0.21388   0.20871   0.00000  Uiso   1.00
C11    C     0.21772   0.23399   0.04945   0.00000  Uiso   1.00
C12    C     0.16689   0.24663   0.16655   0.00000  Uiso   1.00
C13    C     0.11561   0.09934   0.28389   0.00000  Uiso   1.00
C14    C     0.06744   0.16532   0.15537   0.00000  Uiso   1.00
C15    C     0.26589   0.16801   0.17796   0.00000  Uiso   1.00
C16    C     0.01347   0.15675   0.15200   0.00000  Uiso   1.00
C17    C     0.31987   0.17658   0.18133   0.00000  Uiso   1.00
C18    C     0.15262   0.02156   0.12597   0.00000  Uiso   1.00
C19    C     0.18071   0.31178   0.20736   0.00000  Uiso   1.00
C20    C     0.15311   0.31222   0.12579   0.00000  Uiso   1.00
H21    H     0.14131   0.03802   0.09434   0.00000  Uiso   1.00
H22    H     0.12210   0.06801   0.29725   0.00000  Uiso   1.00
H23    H     0.19202   0.29532   0.23899   0.00000  Uiso   1.00
H24    H     0.14206   0.29610   0.09410   0.00000  Uiso   1.00
H25    H     0.19127   0.03724   0.23923   0.00000  Uiso   1.00
H26    H     0.20834   0.22361   0.29416   0.00000  Uiso   1.00
H27    H     0.12500   0.10973   0.03917   0.00000  Uiso   1.00
H28    H     0.29122   0.10305   0.13115   0.00000  Uiso   1.00
H29    H     0.04211   0.23028   0.20218   0.00000  Uiso   1.00
H30    H     0.21123   0.26533   0.03608   0.00000  Uiso   1.00
N31    N     0.16665   0.16666   0.28573   0.00000  Uiso   1.00
N32    N     0.16668   0.16668   0.04760   0.00000  Uiso   1.00
O33    O     0.16666   0.10558   0.20487   0.00000  Uiso   1.00
O34    O     0.31613   0.22732   0.23832   0.00000  Uiso   1.00
O35    O     0.25075   0.22864   0.08194   0.00000  Uiso   1.00
O36    O     0.08258   0.10469   0.25139   0.00000  Uiso   1.00
O37    O     0.16667   0.22775   0.12846   0.00000  Uiso   1.00
O38    O     0.16666   0.10559   0.12843   0.00000  Uiso   1.00
O39    O     0.16667   0.22774   0.20490   0.00000  Uiso   1.00
O40    O     0.09058   0.16666   0.19595   0.00000  Uiso   1.00
O41    O     0.24275   0.16667   0.13739   0.00000  Uiso   1.00
O42    O     0.09058   0.16667   0.11950   0.00000  Uiso   1.00
O43    O     0.24275   0.16666   0.21383   0.00000  Uiso   1.00
O44    O     0.01720   0.10601   0.09502   0.00000  Uiso   1.00
Zn45   Zn    0.16667   0.16666   0.21771   0.00000  Uiso   1.00
Zn46   Zn    0.16667   0.16667   0.11563   0.00000  Uiso   1.00
C47    C     0.49977   0.08671   0.16678   0.00000  Uiso   1.00
C48    C     0.51355   0.02112   0.20755   0.00000  Uiso   1.00
C49    C     0.50043   0.29082   0.16648   0.00000  Uiso   1.00
C50    C     0.49957   0.04252   0.16685   0.00000  Uiso   1.00
C51    C     0.52368   0.19855   0.02540   0.00000  Uiso   1.00
C52    C     0.47633   0.13478   0.30793   0.00000  Uiso   1.00
C53    C     0.52294   0.19847   0.31100   0.00000  Uiso   1.00
C54    C     0.47706   0.13487   0.02233   0.00000  Uiso   1.00
C55    C     0.66004   0.11946   0.12463   0.00000  Uiso   1.00
C56    C     0.33996   0.21388   0.20871   0.00000  Uiso   1.00
C57    C     0.55105   0.23399   0.04945   0.00000  Uiso   1.00
C58    C     0.50023   0.24663   0.16655   0.00000  Uiso   1.00
C59    C     0.44895   0.09934   0.28389   0.00000  Uiso   1.00
C60    C     0.40078   0.16532   0.15537   0.00000  Uiso   1.00
C61    C     0.59922   0.16801   0.17796   0.00000  Uiso   1.00
C62    C     0.34680   0.15675   0.15200   0.00000  Uiso   1.00
C63    C     0.65320   0.17658   0.18133   0.00000  Uiso   1.00
C64    C     0.48596   0.02156   0.12597   0.00000  Uiso   1.00
C65    C     0.51404   0.31178   0.20736   0.00000  Uiso   1.00
C66    C     0.48645   0.31222   0.12579   0.00000  Uiso   1.00
H67    H     0.47465   0.03802   0.09434   0.00000  Uiso   1.00
H68    H     0.45544   0.06801   0.29725   0.00000  Uiso   1.00
H69    H     0.52535   0.29532   0.23899   0.00000  Uiso   1.00
H70    H     0.47540   0.29610   0.09410   0.00000  Uiso   1.00
H71    H     0.52460   0.03724   0.23923   0.00000  Uiso   1.00
H72    H     0.54167   0.22361   0.29416   0.00000  Uiso   1.00
H73    H     0.45833   0.10973   0.03917   0.00000  Uiso   1.00
H74    H     0.62456   0.10305   0.13115   0.00000  Uiso   1.00
H75    H     0.37545   0.23028   0.20218   0.00000  Uiso   1.00
H76    H     0.54456   0.26533   0.03608   0.00000  Uiso   1.00
N77    N     0.49999   0.16666   0.28573   0.00000  Uiso   1.00
N78    N     0.50001   0.16668   0.04760   0.00000  Uiso   1.00
O79    O     0.50000   0.10558   0.20487   0.00000  Uiso   1.00
O80    O     0.64946   0.22732   0.23832   0.00000  Uiso   1.00
O81    O     0.58409   0.22864   0.08194   0.00000  Uiso   1.00
O82    O     0.41591   0.10469   0.25139   0.00000  Uiso   1.00
O83    O     0.50000   0.22775   0.12846   0.00000  Uiso   1.00
O84    O     0.50000   0.10559   0.12843   0.00000  Uiso   1.00
O85    O     0.50000   0.22774   0.20490   0.00000  Uiso   1.00
O86    O     0.42392   0.16666   0.19595   0.00000  Uiso   1.00
O87    O     0.57608   0.16667   0.13739   0.00000  Uiso   1.00
O88    O     0.42392   0.16667   0.11950   0.00000  Uiso   1.00
O89    O     0.57608   0.16666   0.21383   0.00000  Uiso   1.00
O90    O     0.35054   0.10601   0.09502   0.00000  Uiso   1.00
Zn91   Zn    0.50000   0.16666   0.21771   0.00000  Uiso   1.00
Zn92   Zn    0.50000   0.16667   0.11563   0.00000  Uiso   1.00
C93    C     0.83311   0.08671   0.16678   0.00000  Uiso   1.00
C94    C     0.84689   0.02112   0.20755   0.00000  Uiso   1.00
C95    C     0.83376   0.29082   0.16648   0.00000  Uiso   1.00
C96    C     0.83291   0.04252   0.16685   0.00000  Uiso   1.00
C97    C     0.85701   0.19855   0.02540   0.00000  Uiso   1.00
C98    C     0.80966   0.13478   0.30793   0.00000  Uiso   1.00
C99    C     0.85627   0.19847   0.31100   0.00000  Uiso   1.00
C100   C     0.81039   0.13487   0.02233   0.00000  Uiso   1.00
C101   C     0.99338   0.11946   0.12463   0.00000  Uiso   1.00
C102   C     0.67329   0.21388   0.20871   0.00000  Uiso   1.00
C103   C     0.88439   0.23399   0.04945   0.00000  Uiso   1.00
C104   C     0.83356   0.24663   0.16655   0.00000  Uiso   1.00
C105   C     0.78228   0.09934   0.28389   0.00000  Uiso   1.00
C106   C     0.73411   0.16532   0.15537   0.00000  Uiso   1.00
C107   C     0.93256   0.16801   0.17796   0.00000  Uiso   1.00
C108   C     0.68013   0.15675   0.15200   0.00000  Uiso   1.00
C109   C     0.98653   0.17658   0.18133   0.00000  Uiso   1.00
C110   C     0.81929   0.02156   0.12597   0.00000  Uiso   1.00
C111   C     0.84738   0.31178   0.20736   0.00000  Uiso   1.00
C112   C     0.81978   0.31222   0.12579   0.00000  Uiso   1.00
H113   H     0.80798   0.03802   0.09434   0.00000  Uiso   1.00
H114   H     0.78877   0.06801   0.29725   0.00000  Uiso   1.00
H115   H     0.85869   0.29532   0.23899   0.00000  Uiso   1.00
H116   H     0.80873   0.29610   0.09410   0.00000  Uiso   1.00
H117   H     0.85794   0.03724   0.23923   0.00000  Uiso   1.00
H118   H     0.87500   0.22361   0.29416   0.00000  Uiso   1.00
H119   H     0.79166   0.10973   0.03917   0.00000  Uiso   1.00
H120   H     0.95789   0.10305   0.13115   0.00000  Uiso   1.00
H121   H     0.70878   0.23028   0.20218   0.00000  Uiso   1.00
H122   H     0.87790   0.26533   0.03608   0.00000  Uiso   1.00
N123   N     0.83332   0.16666   0.28573   0.00000  Uiso   1.00
N124   N     0.83335   0.16668   0.04760   0.00000  Uiso   1.00
O125   O     0.83333   0.10558   0.20487   0.00000  Uiso   1.00
O126   O     0.98280   0.22732   0.23832   0.00000  Uiso   1.00
O127   O     0.91742   0.22864   0.08194   0.00000  Uiso   1.00
O128   O     0.74925   0.10469   0.25139   0.00000  Uiso   1.00
O129   O     0.83334   0.22775   0.12846   0.00000  Uiso   1.00
O130   O     0.83333   0.10559   0.12843   0.00000  Uiso   1.00
O131   O     0.83334   0.22774   0.20490   0.00000  Uiso   1.00
O132   O     0.75725   0.16666   0.19595   0.00000  Uiso   1.00
O133   O     0.90942   0.16667   0.13739   0.00000  Uiso   1.00
O134   O     0.75725   0.16667   0.11950   0.00000  Uiso   1.00
O135   O     0.90942   0.16666   0.21383   0.00000  Uiso   1.00
O136   O     0.68387   0.10601   0.09502   0.00000  Uiso   1.00
Zn137  Zn    0.83333   0.16666   0.21771   0.00000  Uiso   1.00
Zn138  Zn    0.83333   0.16667   0.11563   0.00000  Uiso   1.00
C139   C     0.16644   0.42004   0.16678   0.00000  Uiso   1.00
C140   C     0.18022   0.35445   0.20755   0.00000  Uiso   1.00
C141   C     0.16709   0.62415   0.16648   0.00000  Uiso   1.00
C142   C     0.16624   0.37585   0.16685   0.00000  Uiso   1.00
C143   C     0.19034   0.53188   0.02540   0.00000  Uiso   1.00
C144   C     0.14299   0.46812   0.30793   0.00000  Uiso   1.00
C145   C     0.18961   0.53180   0.31100   0.00000  Uiso   1.00
C146   C     0.14373   0.46820   0.02233   0.00000  Uiso   1.00
C147   C     0.32671   0.45279   0.12463   0.00000  Uiso   1.00
C148   C     0.00662   0.54721   0.20871   0.00000  Uiso   1.00
C149   C     0.21772   0.56732   0.04945   0.00000  Uiso   1.00
C150   C     0.16689   0.57996   0.16655   0.00000  Uiso   1.00
C151   C     0.11561   0.43268   0.28389   0.00000  Uiso   1.00
C152   C     0.06744   0.49865   0.15537   0.00000  Uiso   1.00
C153   C     0.26589   0.50135   0.17796   0.00000  Uiso   1.00
C154   C     0.01347   0.49008   0.15200   0.00000  Uiso   1.00
C155   C     0.31987   0.50992   0.18133   0.00000  Uiso   1.00
C156   C     0.15262   0.35489   0.12597   0.00000  Uiso   1.00
C157   C     0.18071   0.64511   0.20736   0.00000  Uiso   1.00
C158   C     0.15311   0.64555   0.12579   0.00000  Uiso   1.00
H159   H     0.14131   0.37135   0.09434   0.00000  Uiso   1.00
H160   H     0.12210   0.40134   0.29725   0.00000  Uiso   1.00
H161   H     0.19202   0.62865   0.23899   0.00000  Uiso   1.00
H162   H     0.14206   0.62943   0.09410   0.00000  Uiso   1.00
H163   H     0.19127   0.37057   0.23923   0.00000  Uiso   1.00
H164   H     0.20834   0.55694   0.29416   0.00000  Uiso   1.00
H165   H     0.12500   0.44306   0.03917   0.00000  Uiso   1.00
H166   H     0.29122   0.43638   0.13115   0.00000  Uiso   1.00
H167   H     0.04211   0.56362   0.20218   0.00000  Uiso   1.00
H168   H     0.21123   0.59866   0.03608   0.00000  Uiso   1.00
N169   N     0.16665   0.49999   0.28573   0.00000  Uiso   1.00
N170   N     0.16668   0.50001   0.04760   0.00000  Uiso   1.00
O171   O     0.16666   0.43892   0.20487   0.00000  Uiso   1.00
O172   O     0.31613   0.56066   0.23832   0.00000  Uiso   1.00
O173   O     0.25075   0.56197   0.08194   0.00000  Uiso   1.00
O174   O     0.08258   0.43803   0.25139   0.00000  Uiso   1.00
O175   O     0.16667   0.56108   0.12846   0.00000  Uiso   1.00
O176   O     0.16666   0.43893   0.12843   0.00000  Uiso   1.00
O177   O     0.16667   0.56107   0.20490   0.00000  Uiso   1.00
O178   O     0.09058   0.50000   0.19595   0.00000  Uiso   1.00
O179   O     0.24275   0.50000   0.13739   0.00000  Uiso   1.00
O180   O     0.09058   0.50000   0.11950   0.00000  Uiso   1.00
O181   O     0.24275   0.50000   0.21383   0.00000  Uiso   1.00
O182   O     0.01720   0.43935   0.09502   0.00000  Uiso   1.00
Zn183  Zn    0.16667   0.49999   0.21771   0.00000  Uiso   1.00
Zn184  Zn    0.16667   0.50001   0.11563   0.00000  Uiso   1.00
C185   C     0.49977   0.42004   0.16678   0.00000  Uiso   1.00
C186   C     0.51355   0.35445   0.20755   0.00000  Uiso   1.00
C187   C     0.50043   0.62415   0.16648   0.00000  Uiso   1.00
C188   C     0.49957   0.37585   0.16685   0.00000  Uiso   1.00
C189   C     0.52368   0.53188   0.02540   0.00000  Uiso   1.00
C190   C     0.47633   0.46812   0.30793   0.00000  Uiso   1.00
C191   C     0.52294   0.53180   0.31100   0.00000  Uiso   1.00
C192   C     0.47706   0.46820   0.02233   0.00000  Uiso   1.00
C193   C     0.66004   0.45279   0.12463   0.00000  Uiso   1.00
C194   C     0.33996   0.54721   0.20871   0.00000  Uiso   1.00
C195   C     0.55105   0.56732   0.04945   0.00000  Uiso   1.00
C196   C     0.50023   0.57996   0.16655   0.00000  Uiso   1.00
C197   C     0.44895   0.43268   0.28389   0.00000  Uiso   1.00
C198   C     0.40078   0.49865   0.15537   0.00000  Uiso   1.00
C199   C     0.59922   0.50135   0.17796   0.00000  Uiso   1.00
C200   C     0.34680   0.49008   0.15200   0.00000  Uiso   1.00
C201   C     0.65320   0.50992   0.18133   0.00000  Uiso   1.00
C202   C     0.48596   0.35489   0.12597   0.00000  Uiso   1.00
C203   C     0.51404   0.64511   0.20736   0.00000  Uiso   1.00
C204   C     0.48645   0.64555   0.12579   0.00000  Uiso   1.00
H205   H     0.47465   0.37135   0.09434   0.00000  Uiso   1.00
H206   H     0.45544   0.40134   0.29725   0.00000  Uiso   1.00
H207   H     0.52535   0.62865   0.23899   0.00000  Uiso   1.00
H208   H     0.47540   0.62943   0.09410   0.00000  Uiso   1.00
H209   H     0.52460   0.37057   0.23923   0.00000  Uiso   1.00
H210   H     0.54167   0.55694   0.29416   0.00000  Uiso   1.00
H211   H     0.45833   0.44306   0.03917   0.00000  Uiso   1.00
H212   H     0.62456   0.43638   0.13115   0.00000  Uiso   1.00
H213   H     0.37545   0.56362   0.20218   0.00000  Uiso   1.00
H214   H     0.54456   0.59866   0.03608   0.00000  Uiso   1.00
N215   N     0.49999   0.49999   0.28573   0.00000  Uiso   1.00
N216   N     0.50001   0.50001   0.04760   0.00000  Uiso   1.00
O217   O     0.50000   0.43892   0.20487   0.00000  Uiso   1.00
O218   O     0.64946   0.56066   0.23832   0.00000  Uiso   1.00
O219   O     0.58409   0.56197   0.08194   0.00000  Uiso   1.00
O220   O     0.41591   0.43803   0.25139   0.00000  Uiso   1.00
O221   O     0.50000   0.56108   0.12846   0.00000  Uiso   1.00
O222   O     0.50000   0.43893   0.12843   0.00000  Uiso   1.00
O223   O     0.50000   0.56107   0.20490   0.00000  Uiso   1.00
O224   O     0.42392   0.50000   0.19595   0.00000  Uiso   1.00
O225   O     0.57608   0.50000   0.13739   0.00000  Uiso   1.00
O226   O     0.42392   0.50000   0.11950   0.00000  Uiso   1.00
O227   O     0.57608   0.50000   0.21383   0.00000  Uiso   1.00
O228   O     0.35054   0.43935   0.09502   0.00000  Uiso   1.00
Zn229  Zn    0.50000   0.49999   0.21771   0.00000  Uiso   1.00
Zn230  Zn    0.50000   0.50001   0.11563   0.00000  Uiso   1.00
C231   C     0.83311   0.42004   0.16678   0.00000  Uiso   1.00
C232   C     0.84689   0.35445   0.20755   0.00000  Uiso   1.00
C233   C     0.83376   0.62415   0.16648   0.00000  Uiso   1.00
C234   C     0.83291   0.37585   0.16685   0.00000  Uiso   1.00
C235   C     0.85701   0.53188   0.02540   0.00000  Uiso   1.00
C236   C     0.80966   0.46812   0.30793   0.00000  Uiso   1.00
C237   C     0.85627   0.53180   0.31100   0.00000  Uiso   1.00
C238   C     0.81039   0.46820   0.02233   0.00000  Uiso   1.00
C239   C     0.99338   0.45279   0.12463   0.00000  Uiso   1.00
C240   C     0.67329   0.54721   0.20871   0.00000  Uiso   1.00
C241   C     0.88439   0.56732   0.04945   0.00000  Uiso   1.00
C242   C     0.83356   0.57996   0.16655   0.00000  Uiso   1.00
C243   C     0.78228   0.43268   0.28389   0.00000  Uiso   1.00
C244   C     0.73411   0.49865   0.15537   0.00000  Uiso   1.00
C245   C     0.93256   0.50135   0.17796   0.00000  Uiso   1.00
C246   C     0.68013   0.49008   0.15200   0.00000  Uiso   1.00
C247   C     0.98653   0.50992   0.18133   0.00000  Uiso   1.00
C248   C     0.81929   0.35489   0.12597   0.00000  Uiso   1.00
C249   C     0.84738   0.64511   0.20736   0.00000  Uiso   1.00
C250   C     0.81978   0.64555   0.12579   0.00000  Uiso   1.00
H251   H     0.80798   0.37135   0.09434   0.00000  Uiso   1.00
H252   H     0.78877   0.40134   0.29725   0.00000  Uiso   1.00
H253   H     0.85869   0.62865   0.23899   0.00000  Uiso   1.00
H254   H     0.80873   0.62943   0.09410   0.00000  Uiso   1.00
H255   H     0.85794   0.37057   0.23923   0.00000  Uiso   1.00
H256   H     0.87500   0.55694   0.29416   0.00000  Uiso   1.00
H257   H     0.79166   0.44306   0.03917   0.00000  Uiso   1.00
H258   H     0.95789   0.43638   0.13115   0.00000  Uiso   1.00
H259   H     0.70878   0.56362   0.20218   0.00000  Uiso   1.00
H260   H     0.87790   0.59866   0.03608   0.00000  Uiso   1.00
N261   N     0.83332   0.49999   0.28573   0.00000  Uiso   1.00
N262   N     0.83335   0.50001   0.04760   0.00000  Uiso   1.00
O263   O     0.83333   0.43892   0.20487   0.00000  Uiso   1.00
O264   O     0.98280   0.56066   0.23832   0.00000  Uiso   1.00
O265   O     0.91742   0.56197   0.08194   0.00000  Uiso   1.00
O266   O     0.74925   0.43803   0.25139   0.00000  Uiso   1.00
O267   O     0.83334   0.56108   0.12846   0.00000  Uiso   1.00
O268   O     0.83333   0.43893   0.12843   0.00000  Uiso   1.00
O269   O     0.83334   0.56107   0.20490   0.00000  Uiso   1.00
O270   O     0.75725   0.50000   0.19595   0.00000  Uiso   1.00
O271   O     0.90942   0.50000   0.13739   0.00000  Uiso   1.00
O272   O     0.75725   0.50000   0.11950   0.00000  Uiso   1.00
O273   O     0.90942   0.50000   0.21383   0.00000  Uiso   1.00
O274   O     0.68387   0.43935   0.09502   0.00000  Uiso   1.00
Zn275  Zn    0.83333   0.49999   0.21771   0.00000  Uiso   1.00
Zn276  Zn    0.83333   0.50001   0.11563   0.00000  Uiso   1.00
C277   C     0.16644   0.75337   0.16678   0.00000  Uiso   1.00
C278   C     0.18022   0.68778   0.20755   0.00000  Uiso   1.00
C279   C     0.16709   0.95748   0.16648   0.00000  Uiso   1.00
C280   C     0.16624   0.70919   0.16685   0.00000  Uiso   1.00
C281   C     0.19034   0.86522   0.02540   0.00000  Uiso   1.00
C282   C     0.14299   0.80145   0.30793   0.00000  Uiso   1.00
C283   C     0.18961   0.86513   0.31100   0.00000  Uiso   1.00
C284   C     0.14373   0.80153   0.02233   0.00000  Uiso   1.00
C285   C     0.32671   0.78613   0.12463   0.00000  Uiso   1.00
C286   C     0.00662   0.88054   0.20871   0.00000  Uiso   1.00
C287   C     0.21772   0.90066   0.04945   0.00000  Uiso   1.00
C288   C     0.16689   0.91329   0.16655   0.00000  Uiso   1.00
C289   C     0.11561   0.76601   0.28389   0.00000  Uiso   1.00
C290   C     0.06744   0.83199   0.15537   0.00000  Uiso   1.00
C291   C     0.26589   0.83468   0.17796   0.00000  Uiso   1.00
C292   C     0.01347   0.82342   0.15200   0.00000  Uiso   1.00
C293   C     0.31987   0.84325   0.18133   0.00000  Uiso   1.00
C294   C     0.15262   0.68822   0.12597   0.00000  Uiso   1.00
C295   C     0.18071   0.97844   0.20736   0.00000  Uiso   1.00
C296   C     0.15311   0.97888   0.12579   0.00000  Uiso   1.00
H297   H     0.14131   0.70468   0.09434   0.00000  Uiso   1.00
H298   H     0.12210   0.73467   0.29725   0.00000  Uiso   1.00
H299   H     0.19202   0.96198   0.23899   0.00000  Uiso   1.00
H300   H     0.14206   0.96276   0.09410   0.00000  Uiso   1.00
H301   H     0.19127   0.70390   0.23923   0.00000  Uiso   1.00
H302   H     0.20834   0.89027   0.29416   0.00000  Uiso   1.00
H303   H     0.12500   0.77639   0.03917   0.00000  Uiso   1.00
H304   H     0.29122   0.76972   0.13115   0.00000  Uiso   1.00
H305   H     0.04211   0.89695   0.20218   0.00000  Uiso   1.00
H306   H     0.21123   0.93199   0.03608   0.00000  Uiso   1.00
N307   N     0.16665   0.83332   0.28573   0.00000  Uiso   1.00
N308   N     0.16668   0.83334   0.04760   0.00000  Uiso   1.00
O309   O     0.16666   0.77225   0.20487   0.00000  Uiso   1.00
O310   O     0.31613   0.89399   0.23832   0.00000  Uiso   1.00
O311   O     0.25075   0.89531   0.08194   0.00000  Uiso   1.00
O312   O     0.08258   0.77136   0.25139   0.00000  Uiso   1.00
O313   O     0.16667   0.89442   0.12846   0.00000  Uiso   1.00
O314   O     0.16666   0.77226   0.12843   0.00000  Uiso   1.00
O315   O     0.16667   0.89441   0.20490   0.00000  Uiso   1.00
O316   O     0.09058   0.83333   0.19595   0.00000  Uiso   1.00
O317   O     0.24275   0.83334   0.13739   0.00000  Uiso   1.00
O318   O     0.09058   0.83334   0.11950   0.00000  Uiso   1.00
O319   O     0.24275   0.83333   0.21383   0.00000  Uiso   1.00
O320   O     0.01720   0.77268   0.09502   0.00000  Uiso   1.00
Zn321  Zn    0.16667   0.83333   0.21771   0.00000  Uiso   1.00
Zn322  Zn    0.16667   0.83334   0.11563   0.00000  Uiso   1.00
C323   C     0.49977   0.75337   0.16678   0.00000  Uiso   1.00
C324   C     0.51355   0.68778   0.20755   0.00000  Uiso   1.00
C325   C     0.50043   0.95748   0.16648   0.00000  Uiso   1.00
C326   C     0.49957   0.70919   0.16685   0.00000  Uiso   1.00
C327   C     0.52368   0.86522   0.02540   0.00000  Uiso   1.00
C328   C     0.47633   0.80145   0.30793   0.00000  Uiso   1.00
C329   C     0.52294   0.86513   0.31100   0.00000  Uiso   1.00
C330   C     0.47706   0.80153   0.02233   0.00000  Uiso   1.00
C331   C     0.66004   0.78613   0.12463   0.00000  Uiso   1.00
C332   C     0.33996   0.88054   0.20871   0.00000  Uiso   1.00
C333   C     0.55105   0.90066   0.04945   0.00000  Uiso   1.00
C334   C     0.50023   0.91329   0.16655   0.00000  Uiso   1.00
C335   C     0.44895   0.76601   0.28389   0.00000  Uiso   1.00
C336   C     0.40078   0.83199   0.15537   0.00000  Uiso   1.00
C337   C     0.59922   0.83468   0.17796   0.00000  Uiso   1.00
C338   C     0.34680   0.82342   0.15200   0.00000  Uiso   1.00
C339   C     0.65320   0.84325   0.18133   0.00000  Uiso   1.00
C340   C     0.48596   0.68822   0.12597   0.00000  Uiso   1.00
C341   C     0.51404   0.97844   0.20736   0.00000  Uiso   1.00
C342   C     0.48645   0.97888   0.12579   0.00000  Uiso   1.00
H343   H     0.47465   0.70468   0.09434   0.00000  Uiso   1.00
H344   H     0.45544   0.73467   0.29725   0.00000  Uiso   1.00
H345   H     0.52535   0.96198   0.23899   0.00000  Uiso   1.00
H346   H     0.47540   0.96276   0.09410   0.00000  Uiso   1.00
H347   H     0.52460   0.70390   0.23923   0.00000  Uiso   1.00
H348   H     0.54167   0.89027   0.29416   0.00000  Uiso   1.00
H349   H     0.45833   0.77639   0.03917   0.00000  Uiso   1.00
H350   H     0.62456   0.76972   0.13115   0.00000  Uiso   1.00
H351   H     0.37545   0.89695   0.20218   0.00000  Uiso   1.00
H352   H     0.54456   0.93199   0.03608   0.00000  Uiso   1.00
N353   N     0.49999   0.83332   0.28573   0.00000  Uiso   1.00
N354   N     0.50001   0.83334   0.04760   0.00000  Uiso   1.00
O355   O     0.50000   0.77225   0.20487   0.00000  Uiso   1.00
O356   O     0.64946   0.89399   0.23832   0.00000  Uiso   1.00
O357   O     0.58409   0.89531   0.08194   0.00000  Uiso   1.00
O358   O     0.41591   0.77136   0.25139   0.00000  Uiso   1.00
O359   O     0.50000   0.89442   0.12846   0.00000  Uiso   1.00
O360   O     0.50000   0.77226   0.12843   0.00000  Uiso   1.00
O361   O     0.50000   0.89441   0.20490   0.00000  Uiso   1.00
O362   O     0.42392   0.83333   0.19595   0.00000  Uiso   1.00
O363   O     0.57608   0.83334   0.13739   0.00000  Uiso   1.00
O364   O     0.42392   0.83334   0.11950   0.00000  Uiso   1.00
O365   O     0.57608   0.83333   0.21383   0.00000  Uiso   1.00
O366   O     0.35054   0.77268   0.09502   0.00000  Uiso   1.00
Zn367  Zn    0.50000   0.83333   0.21771   0.00000  Uiso   1.00
Zn368  Zn    0.50000   0.83334   0.11563   0.00000  Uiso   1.00
C369   C     0.83311   0.75337   0.16678   0.00000  Uiso   1.00
C370   C     0.84689   0.68778   0.20755   0.00000  Uiso   1.00
C371   C     0.83376   0.95748   0.16648   0.00000  Uiso   1.00
C372   C     0.83291   0.70919   0.16685   0.00000  Uiso   1.00
C373   C     0.85701   0.86522   0.02540   0.00000  Uiso   1.00
C374   C     0.80966   0.80145   0.30793   0.00000  Uiso   1.00
C375   C     0.85627   0.86513   0.31100   0.00000  Uiso   1.00
C376   C     0.81039   0.80153   0.02233   0.00000  Uiso   1.00
C377   C     0.99338   0.78613   0.12463   0.00000  Uiso   1.00
C378   C     0.67329   0.88054   0.20871   0.00000  Uiso   1.00
C379   C     0.88439   0.90066   0.04945   0.00000  Uiso   1.00
C380   C     0.83356   0.91329   0.16655   0.00000  Uiso   1.00
C381   C     0.78228   0.76601   0.28389   0.00000  Uiso   1.00
C382   C     0.73411   0.83199   0.15537   0.00000  Uiso   1.00
C383   C     0.93256   0.83468   0.17796   0.00000  Uiso   1.00
C384   C     0.68013   0.82342   0.15200   0.00000  Uiso   1.00
C385   C     0.98653   0.84325   0.18133   0.00000  Uiso   1.00
C386   C     0.81929   0.68822   0.12597   0.00000  Uiso   1.00
C387   C     0.84738   0.97844   0.20736   0.00000  Uiso   1.00
C388   C     0.81978   0.97888   0.12579   0.00000  Uiso   1.00
H389   H     0.80798   0.70468   0.09434   0.00000  Uiso   1.00
H390   H     0.78877   0.73467   0.29725   0.00000  Uiso   1.00
H391   H     0.85869   0.96198   0.23899   0.00000  Uiso   1.00
H392   H     0.80873   0.96276   0.09410   0.00000  Uiso   1.00
H393   H     0.85794   0.70390   0.23923   0.00000  Uiso   1.00
H394   H     0.87500   0.89027   0.29416   0.00000  Uiso   1.00
H395   H     0.79166   0.77639   0.03917   0.00000  Uiso   1.00
H396   H     0.95789   0.76972   0.13115   0.00000  Uiso   1.00
H397   H     0.70878   0.89695   0.20218   0.00000  Uiso   1.00
H398   H     0.87790   0.93199   0.03608   0.00000  Uiso   1.00
N399   N     0.83332   0.83332   0.28573   0.00000  Uiso   1.00
N400   N     0.83335   0.83334   0.04760   0.00000  Uiso   1.00
O401   O     0.83333   0.77225   0.20487   0.00000  Uiso   1.00
O402   O     0.98280   0.89399   0.23832   0.00000  Uiso   1.00
O403   O     0.91742   0.89531   0.08194   0.00000  Uiso   1.00
O404   O     0.74925   0.77136   0.25139   0.00000  Uiso   1.00
O405   O     0.83334   0.89442   0.12846   0.00000  Uiso   1.00
O406   O     0.83333   0.77226   0.12843   0.00000  Uiso   1.00
O407   O     0.83334   0.89441   0.20490   0.00000  Uiso   1.00
O408   O     0.75725   0.83333   0.19595   0.00000  Uiso   1.00
O409   O     0.90942   0.83334   0.13739   0.00000  Uiso   1.00
O410   O     0.75725   0.83334   0.11950   0.00000  Uiso   1.00
O411   O     0.90942   0.83333   0.21383   0.00000  Uiso   1.00
O412   O     0.68387   0.77268   0.09502   0.00000  Uiso   1.00
Zn413  Zn    0.83333   0.83333   0.21771   0.00000  Uiso   1.00
Zn414  Zn    0.83333   0.83334   0.11563   0.00000  Uiso   1.00
C415   C     0.16644   0.08671   0.50011   0.00000  Uiso   1.00
C416   C     0.18022   0.02112   0.54088   0.00000  Uiso   1.00
C417   C     0.16709   0.29082   0.49981   0.00000  Uiso   1.00
C418   C     0.16624   0.04252   0.50019   0.00000  Uiso   1.00
C419   C     0.19034   0.19855   0.35873   0.00000  Uiso   1.00
C420   C     0.14299   0.13478   0.64127   0.00000  Uiso   1.00
C421   C     0.18961   0.19847   0.64434   0.00000  Uiso   1.00
C422   C     0.14373   0.13487   0.35567   0.00000  Uiso   1.00
C423   C     0.32671   0.11946   0.45796   0.00000  Uiso   1.00
C424   C     0.00662   0.21388   0.54204   0.00000  Uiso   1.00
C425   C     0.21772   0.23399   0.38278   0.00000  Uiso   1.00
C426   C     0.16689   0.24663   0.49989   0.00000  Uiso   1.00
C427   C     0.11561   0.09934   0.61722   0.00000  Uiso   1.00
C428   C     0.06744   0.16532   0.48870   0.00000  Uiso   1.00
C429   C     0.26589   0.16801   0.51130   0.00000  Uiso   1.00
C430   C     0.01347   0.15675   0.48534   0.00000  Uiso   1.00
C431   C     0.31987   0.17658   0.51466   0.00000  Uiso   1.00
C432   C     0.15262   0.02156   0.45931   0.00000  Uiso   1.00
C433   C     0.18071   0.31178   0.54069   0.00000  Uiso   1.00
C434   C     0.15311   0.31222   0.45912   0.00000  Uiso   1.00
H435   H     0.14131   0.03802   0.42767   0.00000  Uiso   1.00
H436   H     0.12210   0.06801   0.63059   0.00000  Uiso   1.00
H437   H     0.19202   0.29532   0.57233   0.00000  Uiso   1.00
H438   H     0.14206   0.29610   0.42744   0.00000  Uiso   1.00
H439   H     0.19127   0.03724   0.57256   0.00000  Uiso   1.00
H440   H     0.20834   0.22361   0.62750   0.00000  Uiso   1.00
H441   H     0.12500   0.10973   0.37250   0.00000  Uiso   1.00
H442   H     0.29122   0.10305   0.46449   0.00000  Uiso   1.00
H443   H     0.04211   0.23028   0.53552   0.00000  Uiso   1.00
H444   H     0.21123   0.26533   0.36941   0.00000  Uiso   1.00
N445   N     0.16665   0.16666   0.61907   0.00000  Uiso   1.00
N446   N     0.16668   0.16668   0.38093   0.00000  Uiso   1.00
O447   O     0.16666   0.10558   0.53821   0.00000  Uiso   1.00
O448   O     0.31613   0.22732   0.57165   0.00000  Uiso   1.00
O449   O     0.25075   0.22864   0.41528   0.00000  Uiso   1.00
O450   O     0.08258   0.10469   0.58473   0.00000  Uiso   1.00
O451   O     0.16667   0.22775   0.46179   0.00000  Uiso   1.00
O452   O     0.16666   0.10559   0.46176   0.00000  Uiso   1.00
O453   O     0.16667   0.22774   0.53824   0.00000  Uiso   1.00
O454   O     0.09058   0.16666   0.52928   0.00000  Uiso   1.00
O455   O     0.24275   0.16667   0.47072   0.00000  Uiso   1.00
O456   O     0.09058   0.16667   0.45284   0.00000  Uiso   1.00
O457   O     0.24275   0.16666   0.54716   0.00000  Uiso   1.00
O458   O     0.01720   0.10601   0.42835   0.00000  Uiso   1.00
Zn459  Zn    0.16667   0.16666   0.55104   0.00000  Uiso   1.00
Zn460  Zn    0.16667   0.16667   0.44896   0.00000  Uiso   1.00
C461   C     0.49977   0.08671   0.50011   0.00000  Uiso   1.00
C462   C     0.51355   0.02112   0.54088   0.00000  Uiso   1.00
C463   C     0.50043   0.29082   0.49981   0.00000  Uiso   1.00
C464   C     0.49957   0.04252   0.50019   0.00000  Uiso   1.00
C465   C     0.52368   0.19855   0.35873   0.00000  Uiso   1.00
C466   C     0.47633   0.13478   0.64127   0.00000  Uiso   1.00
C467   C     0.52294   0.19847   0.64434   0.00000  Uiso   1.00
C468   C     0.47706   0.13487   0.35567   0.00000  Uiso   1.00
C469   C     0.66004   0.11946   0.45796   0.00000  Uiso   1.00
C470   C     0.33996   0.21388   0.54204   0.00000  Uiso   1.00
C471   C     0.55105   0.23399   0.38278   0.00000  Uiso   1.00
C472   C     0.50023   0.24663   0.49989   0.00000  Uiso   1.00
C473   C     0.44895   0.09934   0.61722   0.00000  Uiso   1.00
C474   C     0.40078   0.16532   0.48870   0.00000  Uiso   1.00
C475   C     0.59922   0.16801   0.51130   0.00000  Uiso   1.00
C476   C     0.34680   0.15675   0.48534   0.00000  Uiso   1.00
C477   C     0.65320   0.17658   0.51466   0.00000  Uiso   1.00
C478   C     0.48596   0.02156   0.45931   0.00000  Uiso   1.00
C479   C     0.51404   0.31178   0.54069   0.00000  Uiso   1.00
C480   C     0.48645   0.31222   0.45912   0.00000  Uiso   1.00
H481   H     0.47465   0.03802   0.42767   0.00000  Uiso   1.00
H482   H     0.45544   0.06801   0.63059   0.00000  Uiso   1.00
H483   H     0.52535   0.29532   0.57233   0.00000  Uiso   1.00
H484   H     0.47540   0.29610   0.42744   0.00000  Uiso   1.00
H485   H     0.52460   0.03724   0.57256   0.00000  Uiso   1.00
H486   H     0.54167   0.22361   0.62750   0.00000  Uiso   1.00
H487   H     0.45833   0.10973   0.37250   0.00000  Uiso   1.00
H488   H     0.62456   0.10305   0.46449   0.00000  Uiso   1.00
H489   H     0.37545   0.23028   0.53552   0.00000  Uiso   1.00
H490   H     0.54456   0.26533   0.36941   0.00000  Uiso   1.00
N491   N     0.49999   0.16666   0.61907   0.00000  Uiso   1.00
N492   N     0.50001   0.16668   0.38093   0.00000  Uiso   1.00
O493   O     0.50000   0.10558   0.53821   0.00000  Uiso   1.00
O494   O     0.64946   0.22732   0.57165   0.00000  Uiso   1.00
O495   O     0.58409   0.22864   0.41528   0.00000  Uiso   1.00
O496   O     0.41591   0.10469   0.58473   0.00000  Uiso   1.00
O497   O     0.50000   0.22775   0.46179   0.00000  Uiso   1.00
O498   O     0.50000   0.10559   0.46176   0.00000  Uiso   1.00
O499   O     0.50000   0.22774   0.53824   0.00000  Uiso   1.00
O500   O     0.42392   0.16666   0.52928   0.00000  Uiso   1.00
O501   O     0.57608   0.16667   0.47072   0.00000  Uiso   1.00
O502   O     0.42392   0.16667   0.45284   0.00000  Uiso   1.00
O503   O     0.57608   0.16666   0.54716   0.00000  Uiso   1.00
O504   O     0.35054   0.10601   0.42835   0.00000  Uiso   1.00
Zn505  Zn    0.50000   0.16666   0.55104   0.00000  Uiso   1.00
Zn506  Zn    0.50000   0.16667   0.44896   0.00000  Uiso   1.00
C507   C     0.83311   0.08671   0.50011   0.00000  Uiso   1.00
C508   C     0.84689   0.02112   0.54088   0.00000  Uiso   1.00
C509   C     0.83376   0.29082   0.49981   0.00000  Uiso   1.00
C510   C     0.83291   0.04252   0.50019   0.00000  Uiso   1.00
C511   C     0.85701   0.19855   0.35873   0.00000  Uiso   1.00
C512   C     0.80966   0.13478   0.64127   0.00000  Uiso   1.00
C513   C     0.85627   0.19847   0.64434   0.00000  Uiso   1.00
C514   C     0.81039   0.13487   0.35567   0.00000  Uiso   1.00
C515   C     0.99338   0.11946   0.45796   0.00000  Uiso   1.00
C516   C     0.67329   0.21388   0.54204   0.00000  Uiso   1.00
C517   C     0.88439   0.23399   0.38278   0.00000  Uiso   1.00
C518   C     0.83356   0.24663   0.49989   0.00000  Uiso   1.00
C519   C     0.78228   0.09934   0.61722   0.00000  Uiso   1.00
C520   C     0.73411   0.16532   0.48870   0.00000  Uiso   1.00
C521   C     0.93256   0.16801   0.51130   0.00000  Uiso   1.00
C522   C     0.68013   0.15675   0.48534   0.00000  Uiso   1.00
C523   C     0.98653   0.17658   0.51466   0.00000  Uiso   1.00
C524   C     0.81929   0.02156   0.45931   0.00000  Uiso   1.00
C525   C     0.84738   0.31178   0.54069   0.00000  Uiso   1.00
C526   C     0.81978   0.31222   0.45912   0.00000  Uiso   1.00
H527   H     0.80798   0.03802   0.42767   0.00000  Uiso   1.00
H528   H     0.78877   0.06801   0.63059   0.00000  Uiso   1.00
H529   H     0.85869   0.29532   0.57233   0.00000  Uiso   1.00
H530   H     0.80873   0.29610   0.42744   0.00000  Uiso   1.00
H531   H     0.85794   0.03724   0.57256   0.00000  Uiso   1.00
H532   H     0.87500   0.22361   0.62750   0.00000  Uiso   1.00
H533   H     0.79166   0.10973   0.37250   0.00000  Uiso   1.00
H534   H     0.95789   0.10305   0.46449   0.00000  Uiso   1.00
H535   H     0.70878   0.23028   0.53552   0.00000  Uiso   1.00
H536   H     0.87790   0.26533   0.36941   0.00000  Uiso   1.00
N537   N     0.83332   0.16666   0.61907   0.00000  Uiso   1.00
N538   N     0.83335   0.16668   0.38093   0.00000  Uiso   1.00
O539   O     0.83333   0.10558   0.53821   0.00000  Uiso   1.00
O540   O     0.98280   0.22732   0.57165   0.00000  Uiso   1.00
O541   O     0.91742   0.22864   0.41528   0.00000  Uiso   1.00
O542   O     0.74925   0.10469   0.58473   0.00000  Uiso   1.00
O543   O     0.83334   0.22775   0.46179   0.00000  Uiso   1.00
O544   O     0.83333   0.10559   0.46176   0.00000  Uiso   1.00
O545   O     0.83334   0.22774   0.53824   0.00000  Uiso   1.00
O546   O     0.75725   0.16666   0.52928   0.00000  Uiso   1.00
O547   O     0.90942   0.16667   0.47072   0.00000  Uiso   1.00
O548   O     0.75725   0.16667   0.45284   0.00000  Uiso   1.00
O549   O     0.90942   0.16666   0.54716   0.00000  Uiso   1.00
O550   O     0.68387   0.10601   0.42835   0.00000  Uiso   1.00
Zn551  Zn    0.83333   0.16666   0.55104   0.00000  Uiso   1.00
Zn552  Zn    0.83333   0.16667   0.44896   0.00000  Uiso   1.00
C553   C     0.16644   0.42004   0.50011   0.00000  Uiso   1.00
C554   C     0.18022   0.35445   0.54088   0.00000  Uiso   1.00
C555   C     0.16709   0.62415   0.49981   0.00000  Uiso   1.00
C556   C     0.16624   0.37585   0.50019   0.00000  Uiso   1.00
C557   C     0.19034   0.53188   0.35873   0.00000  Uiso   1.00
C558   C     0.14299   0.46812   0.64127   0.00000  Uiso   1.00
C559   C     0.18961   0.53180   0.64434   0.00000  Uiso   1.00
C560   C     0.14373   0.46820   0.35567   0.00000  Uiso   1.00
C561   C     0.32671   0.45279   0.45796   0.00000  Uiso   1.00
C562   C     0.00662   0.54721   0.54204   0.00000  Uiso   1.00
C563   C     0.21772   0.56732   0.38278   0.00000  Uiso   1.00
C564   C     0.16689   0.57996   0.49989   0.00000  Uiso   1.00
C565   C     0.11561   0.43268   0.61722   0.00000  Uiso   1.00
C566   C     0.06744   0.49865   0.48870   0.00000  Uiso   1.00
C567   C     0.26589   0.50135   0.51130   0.00000  Uiso   1.00
C568   C     0.01347   0.49008   0.48534   0.00000  Uiso   1.00
C569   C     0.31987   0.50992   0.51466   0.00000  Uiso   1.00
C570   C     0.15262   0.35489   0.45931   0.00000  Uiso   1.00
C571   C     0.18071   0.64511   0.54069   0.00000  Uiso   1.00
C572   C     0.15311   0.64555   0.45912   0.00000  Uiso   1.00
H573   H     0.14131   0.37135   0.42767   0.00000  Uiso   1.00
H574   H     0.12210   0.40134   0.63059   0.00000  Uiso   1.00
H575   H     0.19202   0.62865   0.57233   0.00000  Uiso   1.00
H576   H     0.14206   0.62943   0.42744   0.00000  Uiso   1.00
H577   H     0.19127   0.37057   0.57256   0.00000  Uiso   1.00
H578   H     0.20834   0.55694   0.62750   0.00000  Uiso   1.00
H579   H     0.12500   0.44306   0.37250   0.00000  Uiso   1.00
H580   H     0.29122   0.43638   0.46449   0.00000  Uiso   1.00
H581   H     0.04211   0.56362   0.53552   0.00000  Uiso   1.00
H582   H     0.21123   0.59866   0.36941   0.00000  Uiso   1.00
N583   N     0.16665   0.49999   0.61907   0.00000  Uiso   1.00
N584   N     0.16668   0.50001   0.38093   0.00000  Uiso   1.00
O585   O     0.16666   0.43892   0.53821   0.00000  Uiso   1.00
O586   O     0.31613   0.56066   0.57165   0.00000  Uiso   1.00
O587   O     0.25075   0.56197   0.41528   0.00000  Uiso   1.00
O588   O     0.08258   0.43803   0.58473   0.00000  Uiso   1.00
O589   O     0.16667   0.56108   0.46179   0.00000  Uiso   1.00
O590   O     0.16666   0.43893   0.46176   0.00000  Uiso   1.00
O591   O     0.16667   0.56107   0.53824   0.00000  Uiso   1.00
O592   O     0.09058   0.50000   0.52928   0.00000  Uiso   1.00
O593   O     0.24275   0.50000   0.47072   0.00000  Uiso   1.00
O594   O     0.09058   0.50000   0.45284   0.00000  Uiso   1.00
O595   O     0.24275   0.50000   0.54716   0.00000  Uiso   1.00
O596   O     0.01720   0.43935   0.42835   0.00000  Uiso   1.00
Zn597  Zn    0.16667   0.49999   0.55104   0.00000  Uiso   1.00
Zn598  Zn    0.16667   0.50001   0.44896   0.00000  Uiso   1.00
C599   C     0.49977   0.42004   0.50011   0.00000  Uiso   1.00
C600   C     0.51355   0.35445   0.54088   0.00000  Uiso   1.00
C601   C     0.50043   0.62415   0.49981   0.00000  Uiso   1.00
C602   C     0.49957   0.37585   0.50019   0.00000  Uiso   1.00
C603   C     0.52368   0.53188   0.35873   0.00000  Uiso   1.00
C604   C     0.47633   0.46812   0.64127   0.00000  Uiso   1.00
C605   C     0.52294   0.53180   0.64434   0.00000  Uiso   1.00
C606   C     0.47706   0.46820   0.35567   0.00000  Uiso   1.00
C607   C     0.66004   0.45279   0.45796   0.00000  Uiso   1.00
C608   C     0.33996   0.54721   0.54204   0.00000  Uiso   1.00
C609   C     0.55105   0.56732   0.38278   0.00000  Uiso   1.00
C610   C     0.50023   0.57996   0.49989   0.00000  Uiso   1.00
C611   C     0.44895   0.43268   0.61722   0.00000  Uiso   1.00
C612   C     0.40078   0.49865   0.48870   0.00000  Uiso   1.00
C613   C     0.59922   0.50135   0.51130   0.00000  Uiso   1.00
C614   C     0.34680   0.49008   0.48534   0.00000  Uiso   1.00
C615   C     0.65320   0.50992   0.51466   0.00000  Uiso   1.00
C616   C     0.48596   0.35489   0.45931   0.00000  Uiso   1.00
C617   C     0.51404   0.64511   0.54069   0.00000  Uiso   1.00
C618   C     0.48645   0.64555   0.45912   0.00000  Uiso   1.00
H619   H     0.47465   0.37135   0.42767   0.00000  Uiso   1.00
H620   H     0.45544   0.40134   0.63059   0.00000  Uiso   1.00
H621   H     0.52535   0.62865   0.57233   0.00000  Uiso   1.00
H622   H     0.47540   0.62943   0.42744   0.00000  Uiso   1.00
H623   H     0.52460   0.37057   0.57256   0.00000  Uiso   1.00
H624   H     0.54167   0.55694   0.62750   0.00000  Uiso   1.00
H625   H     0.45833   0.44306   0.37250   0.00000  Uiso   1.00
H626   H     0.62456   0.43638   0.46449   0.00000  Uiso   1.00
H627   H     0.37545   0.56362   0.53552   0.00000  Uiso   1.00
H628   H     0.54456   0.59866   0.36941   0.00000  Uiso   1.00
N629   N     0.49999   0.49999   0.61907   0.00000  Uiso   1.00
N630   N     0.50001   0.50001   0.38093   0.00000  Uiso   1.00
O631   O     0.50000   0.43892   0.53821   0.00000  Uiso   1.00
O632   O     0.64946   0.56066   0.57165   0.00000  Uiso   1.00
O633   O     0.58409   0.56197   0.41528   0.00000  Uiso   1.00
O634   O     0.41591   0.43803   0.58473   0.00000  Uiso   1.00
O635   O     0.50000   0.56108   0.46179   0.00000  Uiso   1.00
O636   O     0.50000   0.43893   0.46176   0.00000  Uiso   1.00
O637   O     0.50000   0.56107   0.53824   0.00000  Uiso   1.00
O638   O     0.42392   0.50000   0.52928   0.00000  Uiso   1.00
O639   O     0.57608   0.50000   0.47072   0.00000  Uiso   1.00
O640   O     0.42392   0.50000   0.45284   0.00000  Uiso   1.00
O641   O     0.57608   0.50000   0.54716   0.00000  Uiso   1.00
O642   O     0.35054   0.43935   0.42835   0.00000  Uiso   1.00
Zn643  Zn    0.50000   0.49999   0.55104   0.00000  Uiso   1.00
Zn644  Zn    0.50000   0.50001   0.44896   0.00000  Uiso   1.00
C645   C     0.83311   0.42004   0.50011   0.00000  Uiso   1.00
C646   C     0.84689   0.35445   0.54088   0.00000  Uiso   1.00
C647   C     0.83376   0.62415   0.49981   0.00000  Uiso   1.00
C648   C     0.83291   0.37585   0.50019   0.00000  Uiso   1.00
C649   C     0.85701   0.53188   0.35873   0.00000  Uiso   1.00
C650   C     0.80966   0.46812   0.64127   0.00000  Uiso   1.00
C651   C     0.85627   0.53180   0.64434   0.00000  Uiso   1.00
C652   C     0.81039   0.46820   0.35567   0.00000  Uiso   1.00
C653   C     0.99338   0.45279   0.45796   0.00000  Uiso   1.00
C654   C     0.67329   0.54721   0.54204   0.00000  Uiso   1.00
C655   C     0.88439   0.56732   0.38278   0.00000  Uiso   1.00
C656   C     0.83356   0.57996   0.49989   0.00000  Uiso   1.00
C657   C     0.78228   0.43268   0.61722   0.00000  Uiso   1.00
C658   C     0.73411   0.49865   0.48870   0.00000  Uiso   1.00
C659   C     0.93256   0.50135   0.51130   0.00000  Uiso   1.00
C660   C     0.68013   0.49008   0.48534   0.00000  Uiso   1.00
C661   C     0.98653   0.50992   0.51466   0.00000  Uiso   1.00
C662   C     0.81929   0.35489   0.45931   0.00000  Uiso   1.00
C663   C     0.84738   0.64511   0.54069   0.00000  Uiso   1.00
C664   C     0.81978   0.64555   0.45912   0.00000  Uiso   1.00
H665   H     0.80798   0.37135   0.42767   0.00000  Uiso   1.00
H666   H     0.78877   0.40134   0.63059   0.00000  Uiso   1.00
H667   H     0.85869   0.62865   0.57233   0.00000  Uiso   1.00
H668   H     0.80873   0.62943   0.42744   0.00000  Uiso   1.00
H669   H     0.85794   0.37057   0.57256   0.00000  Uiso   1.00
H670   H     0.87500   0.55694   0.62750   0.00000  Uiso   1.00
H671   H     0.79166   0.44306   0.37250   0.00000  Uiso   1.00
H672   H     0.95789   0.43638   0.46449   0.00000  Uiso   1.00
H673   H     0.70878   0.56362   0.53552   0.00000  Uiso   1.00
H674   H     0.87790   0.59866   0.36941   0.00000  Uiso   1.00
N675   N     0.83332   0.49999   0.61907   0.00000  Uiso   1.00
N676   N     0.83335   0.50001   0.38093   0.00000  Uiso   1.00
O677   O     0.83333   0.43892   0.53821   0.00000  Uiso   1.00
O678   O     0.98280   0.56066   0.57165   0.00000  Uiso   1.00
O679   O     0.91742   0.56197   0.41528   0.00000  Uiso   1.00
O680   O     0.74925   0.43803   0.58473   0.00000  Uiso   1.00
O681   O     0.83334   0.56108   0.46179   0.00000  Uiso   1.00
O682   O     0.83333   0.43893   0.46176   0.00000  Uiso   1.00
O683   O     0.83334   0.56107   0.53824   0.00000  Uiso   1.00
O684   O     0.75725   0.50000   0.52928   0.00000  Uiso   1.00
O685   O     0.90942   0.50000   0.47072   0.00000  Uiso   1.00
O686   O     0.75725   0.50000   0.45284   0.00000  Uiso   1.00
O687   O     0.90942   0.50000   0.54716   0.00000  Uiso   1.00
O688   O     0.68387   0.43935   0.42835   0.00000  Uiso   1.00
Zn689  Zn    0.83333   0.49999   0.55104   0.00000  Uiso   1.00
Zn690  Zn    0.83333   0.50001   0.44896   0.00000  Uiso   1.00
C691   C     0.16644   0.75337   0.50011   0.00000  Uiso   1.00
C692   C     0.18022   0.68778   0.54088   0.00000  Uiso   1.00
C693   C     0.16709   0.95748   0.49981   0.00000  Uiso   1.00
C694   C     0.16624   0.70919   0.50019   0.00000  Uiso   1.00
C695   C     0.19034   0.86522   0.35873   0.00000  Uiso   1.00
C696   C     0.14299   0.80145   0.64127   0.00000  Uiso   1.00
C697   C     0.18961   0.86513   0.64434   0.00000  Uiso   1.00
C698   C     0.14373   0.80153   0.35567   0.00000  Uiso   1.00
C699   C     0.32671   0.78613   0.45796   0.00000  Uiso   1.00
C700   C     0.00662   0.88054   0.54204   0.00000  Uiso   1.00
C701   C     0.21772   0.90066   0.38278   0.00000  Uiso   1.00
C702   C     0.16689   0.91329   0.49989   0.00000  Uiso   1.00
C703   C     0.11561   0.76601   0.61722   0.00000  Uiso   1.00
C704   C     0.06744   0.83199   0.48870   0.00000  Uiso   1.00
C705   C     0.26589   0.83468   0.51130   0.00000  Uiso   1.00
C706   C     0.01347   0.82342   0.48534   0.00000  Uiso   1.00
C707   C     0.31987   0.84325   0.51466   0.00000  Uiso   1.00
C708   C     0.15262   0.68822   0.45931   0.00000  Uiso   1.00
C709   C     0.18071   0.97844   0.54069   0.00000  Uiso   1.00
C710   C     0.15311   0.97888   0.45912   0.00000  Uiso   1.00
H711   H     0.14131   0.70468   0.42767   0.00000  Uiso   1.00
H712   H     0.12210   0.73467   0.63059   0.00000  Uiso   1.00
H713   H     0.19202   0.96198   0.57233   0.00000  Uiso   1.00
H714   H     0.14206   0.96276   0.42744   0.00000  Uiso   1.00
H715   H     0.19127   0.70390   0.57256   0.00000  Uiso   1.00
H716   H     0.20834   0.89027   0.62750   0.00000  Uiso   1.00
H717   H     0.12500   0.77639   0.37250   0.00000  Uiso   1.00
H718   H     0.29122   0.76972   0.46449   0.00000  Uiso   1.00
H719   H     0.04211   0.89695   0.53552   0.00000  Uiso   1.00
H720   H     0.21123   0.93199   0.36941   0.00000  Uiso   1.00
N721   N     0.16665   0.83332   0.61907   0.00000  Uiso   1.00
N722   N     0.16668   0.83334   0.38093   0.00000  Uiso   1.00
O723   O     0.16666   0.77225   0.53821   0.00000  Uiso   1.00
O724   O     0.31613   0.89399   0.57165   0.00000  Uiso   1.00
O725   O     0.25075   0.89531   0.41528   0.00000  Uiso   1.00
O726   O     0.08258   0.77136   0.58473   0.00000  Uiso   1.00
O727   O     0.16667   0.89442   0.46179   0.00000  Uiso   1.00
O728   O     0.16666   0.77226   0.46176   0.00000  Uiso   1.00
O729   O     0.16667   0.89441   0.53824   0.00000  Uiso   1.00
O730   O     0.09058   0.83333   0.52928   0.00000  Uiso   1.00
O731   O     0.24275   0.83334   0.47072   0.00000  Uiso   1.00
O732   O     0.09058   0.83334   0.45284   0.00000  Uiso   1.00
O733   O     0.24275   0.83333   0.54716   0.00000  Uiso   1.00
O734   O     0.01720   0.77268   0.42835   0.00000  Uiso   1.00
Zn735  Zn    0.16667   0.83333   0.55104   0.00000  Uiso   1.00
Zn736  Zn    0.16667   0.83334   0.44896   0.00000  Uiso   1.00
C737   C     0.49977   0.75337   0.50011   0.00000  Uiso   1.00
C738   C     0.51355   0.68778   0.54088   0.00000  Uiso   1.00
C739   C     0.50043   0.95748   0.49981   0.00000  Uiso   1.00
C740   C     0.49957   0.70919   0.50019   0.00000  Uiso   1.00
C741   C     0.52368   0.86522   0.35873   0.00000  Uiso   1.00
C742   C     0.47633   0.80145   0.64127   0.00000  Uiso   1.00
C743   C     0.52294   0.86513   0.64434   0.00000  Uiso   1.00
C744   C     0.47706   0.80153   0.35567   0.00000  Uiso   1.00
C745   C     0.66004   0.78613   0.45796   0.00000  Uiso   1.00
C746   C     0.33996   0.88054   0.54204   0.00000  Uiso   1.00
C747   C     0.55105   0.90066   0.38278   0.00000  Uiso   1.00
C748   C     0.50023   0.91329   0.49989   0.00000  Uiso   1.00
C749   C     0.44895   0.76601   0.61722   0.00000  Uiso   1.00
C750   C     0.40078   0.83199   0.48870   0.00000  Uiso   1.00
C751   C     0.59922   0.83468   0.51130   0.00000  Uiso   1.00
C752   C     0.34680   0.82342   0.48534   0.00000  Uiso   1.00
C753   C     0.65320   0.84325   0.51466   0.00000  Uiso   1.00
C754   C     0.48596   0.68822   0.45931   0.00000  Uiso   1.00
C755   C     0.51404   0.97844   0.54069   0.00000  Uiso   1.00
C756   C     0.48645   0.97888   0.45912   0.00000  Uiso   1.00
H757   H     0.47465   0.70468   0.42767   0.00000  Uiso   1.00
H758   H     0.45544   0.73467   0.63059   0.00000  Uiso   1.00
H759   H     0.52535   0.96198   0.57233   0.00000  Uiso   1.00
H760   H     0.47540   0.96276   0.42744   0.00000  Uiso   1.00
H761   H     0.52460   0.70390   0.57256   0.00000  Uiso   1.00
H762   H     0.54167   0.89027   0.62750   0.00000  Uiso   1.00
H763   H     0.45833   0.77639   0.37250   0.00000  Uiso   1.00
H764   H     0.62456   0.76972   0.46449   0.00000  Uiso   1.00
H765   H     0.37545   0.89695   0.53552   0.00000  Uiso   1.00
H766   H     0.54456   0.93199   0.36941   0.00000  Uiso   1.00
N767   N     0.49999   0.83332   0.61907   0.00000  Uiso   1.00
N768   N     0.50001   0.83334   0.38093   0.00000  Uiso   1.00
O769   O     0.50000   0.77225   0.53821   0.00000  Uiso   1.00
O770   O     0.64946   0.89399   0.57165   0.00000  Uiso   1.00
O771   O     0.58409   0.89531   0.41528   0.00000  Uiso   1.00
O772   O     0.41591   0.77136   0.58473   0.00000  Uiso   1.00
O773   O     0.50000   0.89442   0.46179   0.00000  Uiso   1.00
O774   O     0.50000   0.77226   0.46176   0.00000  Uiso   1.00
O775   O     0.50000   0.89441   0.53824   0.00000  Uiso   1.00
O776   O     0.42392   0.83333   0.52928   0.00000  Uiso   1.00
O777   O     0.57608   0.83334   0.47072   0.00000  Uiso   1.00
O778   O     0.42392   0.83334   0.45284   0.00000  Uiso   1.00
O779   O     0.57608   0.83333   0.54716   0.00000  Uiso   1.00
O780   O     0.35054   0.77268   0.42835   0.00000  Uiso   1.00
Zn781  Zn    0.50000   0.83333   0.55104   0.00000  Uiso   1.00
Zn782  Zn    0.50000   0.83334   0.44896   0.00000  Uiso   1.00
C783   C     0.83311   0.75337   0.50011   0.00000  Uiso   1.00
C784   C     0.84689   0.68778   0.54088   0.00000  Uiso   1.00
C785   C     0.83376   0.95748   0.49981   0.00000  Uiso   1.00
C786   C     0.83291   0.70919   0.50019   0.00000  Uiso   1.00
C787   C     0.85701   0.86522   0.35873   0.00000  Uiso   1.00
C788   C     0.80966   0.80145   0.64127   0.00000  Uiso   1.00
C789   C     0.85627   0.86513   0.64434   0.00000  Uiso   1.00
C790   C     0.81039   0.80153   0.35567   0.00000  Uiso   1.00
C791   C     0.99338   0.78613   0.45796   0.00000  Uiso   1.00
C792   C     0.67329   0.88054   0.54204   0.00000  Uiso   1.00
C793   C     0.88439   0.90066   0.38278   0.00000  Uiso   1.00
C794   C     0.83356   0.91329   0.49989   0.00000  Uiso   1.00
C795   C     0.78228   0.76601   0.61722   0.00000  Uiso   1.00
C796   C     0.73411   0.83199   0.48870   0.00000  Uiso   1.00
C797   C     0.93256   0.83468   0.51130   0.00000  Uiso   1.00
C798   C     0.68013   0.82342   0.48534   0.00000  Uiso   1.00
C799   C     0.98653   0.84325   0.51466   0.00000  Uiso   1.00
C800   C     0.81929   0.68822   0.45931   0.00000  Uiso   1.00
C801   C     0.84738   0.97844   0.54069   0.00000  Uiso   1.00
C802   C     0.81978   0.97888   0.45912   0.00000  Uiso   1.00
H803   H     0.80798   0.70468   0.42767   0.00000  Uiso   1.00
H804   H     0.78877   0.73467   0.63059   0.00000  Uiso   1.00
H805   H     0.85869   0.96198   0.57233   0.00000  Uiso   1.00
H806   H     0.80873   0.96276   0.42744   0.00000  Uiso   1.00
H807   H     0.85794   0.70390   0.57256   0.00000  Uiso   1.00
H808   H     0.87500   0.89027   0.62750   0.00000  Uiso   1.00
H809   H     0.79166   0.77639   0.37250   0.00000  Uiso   1.00
H810   H     0.95789   0.76972   0.46449   0.00000  Uiso   1.00
H811   H     0.70878   0.89695   0.53552   0.00000  Uiso   1.00
H812   H     0.87790   0.93199   0.36941   0.00000  Uiso   1.00
N813   N     0.83332   0.83332   0.61907   0.00000  Uiso   1.00
N814   N     0.83335   0.83334   0.38093   0.00000  Uiso   1.00
O815   O     0.83333   0.77225   0.53821   0.00000  Uiso   1.00
O816   O     0.98280   0.89399   0.57165   0.00000  Uiso   1.00
O817   O     0.91742   0.89531   0.41528   0.00000  Uiso   1.00
O818   O     0.74925   0.77136   0.58473   0.00000  Uiso   1.00
O819   O     0.83334   0.89442   0.46179   0.00000  Uiso   1.00
O820   O     0.83333   0.77226   0.46176   0.00000  Uiso   1.00
O821   O     0.83334   0.89441   0.53824   0.00000  Uiso   1.00
O822   O     0.75725   0.83333   0.52928   0.00000  Uiso   1.00
O823   O     0.90942   0.83334   0.47072   0.00000  Uiso   1.00
O824   O     0.75725   0.83334   0.45284   0.00000  Uiso   1.00
O825   O     0.90942   0.83333   0.54716   0.00000  Uiso   1.00
O826   O     0.68387   0.77268   0.42835   0.00000  Uiso   1.00
Zn827  Zn    0.83333   0.83333   0.55104   0.00000  Uiso   1.00
Zn828  Zn    0.83333   0.83334   0.44896   0.00000  Uiso   1.00
C829   C     0.16644   0.08671   0.83345   0.00000  Uiso   1.00
C830   C     0.18022   0.02112   0.87421   0.00000  Uiso   1.00
C831   C     0.16709   0.29082   0.83315   0.00000  Uiso   1.00
C832   C     0.16624   0.04252   0.83352   0.00000  Uiso   1.00
C833   C     0.19034   0.19855   0.69207   0.00000  Uiso   1.00
C834   C     0.14299   0.13478   0.97460   0.00000  Uiso   1.00
C835   C     0.18961   0.19847   0.97767   0.00000  Uiso   1.00
C836   C     0.14373   0.13487   0.68900   0.00000  Uiso   1.00
C837   C     0.32671   0.11946   0.79129   0.00000  Uiso   1.00
C838   C     0.00662   0.21388   0.87538   0.00000  Uiso   1.00
C839   C     0.21772   0.23399   0.71611   0.00000  Uiso   1.00
C840   C     0.16689   0.24663   0.83322   0.00000  Uiso   1.00
C841   C     0.11561   0.09934   0.95055   0.00000  Uiso   1.00
C842   C     0.06744   0.16532   0.82204   0.00000  Uiso   1.00
C843   C     0.26589   0.16801   0.84463   0.00000  Uiso   1.00
C844   C     0.01347   0.15675   0.81867   0.00000  Uiso   1.00
C845   C     0.31987   0.17658   0.84800   0.00000  Uiso   1.00
C846   C     0.15262   0.02156   0.79264   0.00000  Uiso   1.00
C847   C     0.18071   0.31178   0.87403   0.00000  Uiso   1.00
C848   C     0.15311   0.31222   0.79245   0.00000  Uiso   1.00
H849   H     0.14131   0.03802   0.76101   0.00000  Uiso   1.00
H850   H     0.12210   0.06801   0.96392   0.00000  Uiso   1.00
H851   H     0.19202   0.29532   0.90566   0.00000  Uiso   1.00
H852   H     0.14206   0.29610   0.76077   0.00000  Uiso   1.00
H853   H     0.19127   0.03724   0.90590   0.00000  Uiso   1.00
H854   H     0.20834   0.22361   0.96083   0.00000  Uiso   1.00
H855   H     0.12500   0.10973   0.70584   0.00000  Uiso   1.00
H856   H     0.29122   0.10305   0.79782   0.00000  Uiso   1.00
H857   H     0.04211   0.23028   0.86885   0.00000  Uiso   1.00
H858   H     0.21123   0.26533   0.70275   0.00000  Uiso   1.00
N859   N     0.16665   0.16666   0.95240   0.00000  Uiso   1.00
N860   N     0.16668   0.16668   0.71427   0.00000  Uiso   1.00
O861   O     0.16666   0.10558   0.87154   0.00000  Uiso   1.00
O862   O     0.31613   0.22732   0.90498   0.00000  Uiso   1.00
O863   O     0.25075   0.22864   0.74861   0.00000  Uiso   1.00
O864   O     0.08258   0.10469   0.91806   0.00000  Uiso   1.00
O865   O     0.16667   0.22775   0.79513   0.00000  Uiso   1.00
O866   O     0.16666   0.10559   0.79510   0.00000  Uiso   1.00
O867   O     0.16667   0.22774   0.87157   0.00000  Uiso   1.00
O868   O     0.09058   0.16666   0.86261   0.00000  Uiso   1.00
O869   O     0.24275   0.16667   0.80405   0.00000  Uiso   1.00
O870   O     0.09058   0.16667   0.78617   0.00000  Uiso   1.00
O871   O     0.24275   0.16666   0.88050   0.00000  Uiso   1.00
O872   O     0.01720   0.10601   0.76168   0.00000  Uiso   1.00
Zn873  Zn    0.16667   0.16666   0.88437   0.00000  Uiso   1.00
Zn874  Zn    0.16667   0.16667   0.78229   0.00000  Uiso   1.00
C875   C     0.49977   0.08671   0.83345   0.00000  Uiso   1.00
C876   C     0.51355   0.02112   0.87421   0.00000  Uiso   1.00
C877   C     0.50043   0.29082   0.83315   0.00000  Uiso   1.00
C878   C     0.49957   0.04252   0.83352   0.00000  Uiso   1.00
C879   C     0.52368   0.19855   0.69207   0.00000  Uiso   1.00
C880   C     0.47633   0.13478   0.97460   0.00000  Uiso   1.00
C881   C     0.52294   0.19847   0.97767   0.00000  Uiso   1.00
C882   C     0.47706   0.13487   0.68900   0.00000  Uiso   1.00
C883   C     0.66004   0.11946   0.79129   0.00000  Uiso   1.00
C884   C     0.33996   0.21388   0.87538   0.00000  Uiso   1.00
C885   C     0.55105   0.23399   0.71611   0.00000  Uiso   1.00
C886   C     0.50023   0.24663   0.83322   0.00000  Uiso   1.00
C887   C     0.44895   0.09934   0.95055   0.00000  Uiso   1.00
C888   C     0.40078   0.16532   0.82204   0.00000  Uiso   1.00
C889   C     0.59922   0.16801   0.84463   0.00000  Uiso   1.00
C890   C     0.34680   0.15675   0.81867   0.00000  Uiso   1.00
C891   C     0.65320   0.17658   0.84800   0.00000  Uiso   1.00
C892   C     0.48596   0.02156   0.79264   0.00000  Uiso   1.00
C893   C     0.51404   0.31178   0.87403   0.00000  Uiso   1.00
C894   C     0.48645   0.31222   0.79245   0.00000  Uiso   1.00
H895   H     0.47465   0.03802   0.76101   0.00000  Uiso   1.00
H896   H     0.45544   0.06801   0.96392   0.00000  Uiso   1.00
H897   H     0.52535   0.29532   0.90566   0.00000  Uiso   1.00
H898   H     0.47540   0.29610   0.76077   0.00000  Uiso   1.00
H899   H     0.52460   0.03724   0.90590   0.00000  Uiso   1.00
H900   H     0.54167   0.22361   0.96083   0.00000  Uiso   1.00
H901   H     0.45833   0.10973   0.70584   0.00000  Uiso   1.00
H902   H     0.62456   0.10305   0.79782   0.00000  Uiso   1.00
H903   H     0.37545   0.23028   0.86885   0.00000  Uiso   1.00
H904   H     0.54456   0.26533   0.70275   0.00000  Uiso   1.00
N905   N     0.49999   0.16666   0.95240   0.00000  Uiso   1.00
N906   N     0.50001   0.16668   0.71427   0.00000  Uiso   1.00
O907   O     0.50000   0.10558   0.87154   0.00000  Uiso   1.00
O908   O     0.64946   0.22732   0.90498   0.00000  Uiso   1.00
O909   O     0.58409   0.22864   0.74861   0.00000  Uiso   1.00
O910   O     0.41591   0.10469   0.91806   0.00000  Uiso   1.00
O911   O     0.50000   0.22775   0.79513   0.00000  Uiso   1.00
O912   O     0.50000   0.10559   0.79510   0.00000  Uiso   1.00
O913   O     0.50000   0.22774   0.87157   0.00000  Uiso   1.00
O914   O     0.42392   0.16666   0.86261   0.00000  Uiso   1.00
O915   O     0.57608   0.16667   0.80405   0.00000  Uiso   1.00
O916   O     0.42392   0.16667   0.78617   0.00000  Uiso   1.00
O917   O     0.57608   0.16666   0.88050   0.00000  Uiso   1.00
O918   O     0.35054   0.10601   0.76168   0.00000  Uiso   1.00
Zn919  Zn    0.50000   0.16666   0.88437   0.00000  Uiso   1.00
Zn920  Zn    0.50000   0.16667   0.78229   0.00000  Uiso   1.00
C921   C     0.83311   0.08671   0.83345   0.00000  Uiso   1.00
C922   C     0.84689   0.02112   0.87421   0.00000  Uiso   1.00
C923   C     0.83376   0.29082   0.83315   0.00000  Uiso   1.00
C924   C     0.83291   0.04252   0.83352   0.00000  Uiso   1.00
C925   C     0.85701   0.19855   0.69207   0.00000  Uiso   1.00
C926   C     0.80966   0.13478   0.97460   0.00000  Uiso   1.00
C927   C     0.85627   0.19847   0.97767   0.00000  Uiso   1.00
C928   C     0.81039   0.13487   0.68900   0.00000  Uiso   1.00
C929   C     0.99338   0.11946   0.79129   0.00000  Uiso   1.00
C930   C     0.67329   0.21388   0.87538   0.00000  Uiso   1.00
C931   C     0.88439   0.23399   0.71611   0.00000  Uiso   1.00
C932   C     0.83356   0.24663   0.83322   0.00000  Uiso   1.00
C933   C     0.78228   0.09934   0.95055   0.00000  Uiso   1.00
C934   C     0.73411   0.16532   0.82204   0.00000  Uiso   1.00
C935   C     0.93256   0.16801   0.84463   0.00000  Uiso   1.00
C936   C     0.68013   0.15675   0.81867   0.00000  Uiso   1.00
C937   C     0.98653   0.17658   0.84800   0.00000  Uiso   1.00
C938   C     0.81929   0.02156   0.79264   0.00000  Uiso   1.00
C939   C     0.84738   0.31178   0.87403   0.00000  Uiso   1.00
C940   C     0.81978   0.31222   0.79245   0.00000  Uiso   1.00
H941   H     0.80798   0.03802   0.76101   0.00000  Uiso   1.00
H942   H     0.78877   0.06801   0.96392   0.00000  Uiso   1.00
H943   H     0.85869   0.29532   0.90566   0.00000  Uiso   1.00
H944   H     0.80873   0.29610   0.76077   0.00000  Uiso   1.00
H945   H     0.85794   0.03724   0.90590   0.00000  Uiso   1.00
H946   H     0.87500   0.22361   0.96083   0.00000  Uiso   1.00
H947   H     0.79166   0.10973   0.70584   0.00000  Uiso   1.00
H948   H     0.95789   0.10305   0.79782   0.00000  Uiso   1.00
H949   H     0.70878   0.23028   0.86885   0.00000  Uiso   1.00
H950   H     0.87790   0.26533   0.70275   0.00000  Uiso   1.00
N951   N     0.83332   0.16666   0.95240   0.00000  Uiso   1.00
N952   N     0.83335   0.16668   0.71427   0.00000  Uiso   1.00
O953   O     0.83333   0.10558   0.87154   0.00000  Uiso   1.00
O954   O     0.98280   0.22732   0.90498   0.00000  Uiso   1.00
O955   O     0.91742   0.22864   0.74861   0.00000  Uiso   1.00
O956   O     0.74925   0.10469   0.91806   0.00000  Uiso   1.00
O957   O     0.83334   0.22775   0.79513   0.00000  Uiso   1.00
O958   O     0.83333   0.10559   0.79510   0.00000  Uiso   1.00
O959   O     0.83334   0.22774   0.87157   0.00000  Uiso   1.00
O960   O     0.75725   0.16666   0.86261   0.00000  Uiso   1.00
O961   O     0.90942   0.16667   0.80405   0.00000  Uiso   1.00
O962   O     0.75725   0.16667   0.78617   0.00000  Uiso   1.00
O963   O     0.90942   0.16666   0.88050   0.00000  Uiso   1.00
O964   O     0.68387   0.10601   0.76168   0.00000  Uiso   1.00
Zn965  Zn    0.83333   0.16666   0.88437   0.00000  Uiso   1.00
Zn966  Zn    0.83333   0.16667   0.78229   0.00000  Uiso   1.00
C967   C     0.16644   0.42004   0.83345   0.00000  Uiso   1.00
C968   C     0.18022   0.35445   0.87421   0.00000  Uiso   1.00
C969   C     0.16709   0.62415   0.83315   0.00000  Uiso   1.00
C970   C     0.16624   0.37585   0.83352   0.00000  Uiso   1.00
C971   C     0.19034   0.53188   0.69207   0.00000  Uiso   1.00
C972   C     0.14299   0.46812   0.97460   0.00000  Uiso   1.00
C973   C     0.18961   0.53180   0.97767   0.00000  Uiso   1.00
C974   C     0.14373   0.46820   0.68900   0.00000  Uiso   1.00
C975   C     0.32671   0.45279   0.79129   0.00000  Uiso   1.00
C976   C     0.00662   0.54721   0.87538   0.00000  Uiso   1.00
C977   C     0.21772   0.56732   0.71611   0.00000  Uiso   1.00
C978   C     0.16689   0.57996   0.83322   0.00000  Uiso   1.00
C979   C     0.11561   0.43268   0.95055   0.00000  Uiso   1.00
C980   C     0.06744   0.49865   0.82204   0.00000  Uiso   1.00
C981   C     0.26589   0.50135   0.84463   0.00000  Uiso   1.00
C982   C     0.01347   0.49008   0.81867   0.00000  Uiso   1.00
C983   C     0.31987   0.50992   0.84800   0.00000  Uiso   1.00
C984   C     0.15262   0.35489   0.79264   0.00000  Uiso   1.00
C985   C     0.18071   0.64511   0.87403   0.00000  Uiso   1.00
C986   C     0.15311   0.64555   0.79245   0.00000  Uiso   1.00
H987   H     0.14131   0.37135   0.76101   0.00000  Uiso   1.00
H988   H     0.12210   0.40134   0.96392   0.00000  Uiso   1.00
H989   H     0.19202   0.62865   0.90566   0.00000  Uiso   1.00
H990   H     0.14206   0.62943   0.76077   0.00000  Uiso   1.00
H991   H     0.19127   0.37057   0.90590   0.00000  Uiso   1.00
H992   H     0.20834   0.55694   0.96083   0.00000  Uiso   1.00
H993   H     0.12500   0.44306   0.70584   0.00000  Uiso   1.00
H994   H     0.29122   0.43638   0.79782   0.00000  Uiso   1.00
H995   H     0.04211   0.56362   0.86885   0.00000  Uiso   1.00
H996   H     0.21123   0.59866   0.70275   0.00000  Uiso   1.00
N997   N     0.16665   0.49999   0.95240   0.00000  Uiso   1.00
N998   N     0.16668   0.50001   0.71427   0.00000  Uiso   1.00
O999   O     0.16666   0.43892   0.87154   0.00000  Uiso   1.00
O1000  O     0.31613   0.56066   0.90498   0.00000  Uiso   1.00
O1001  O     0.25075   0.56197   0.74861   0.00000  Uiso   1.00
O1002  O     0.08258   0.43803   0.91806   0.00000  Uiso   1.00
O1003  O     0.16667   0.56108   0.79513   0.00000  Uiso   1.00
O1004  O     0.16666   0.43893   0.79510   0.00000  Uiso   1.00
O1005  O     0.16667   0.56107   0.87157   0.00000  Uiso   1.00
O1006  O     0.09058   0.50000   0.86261   0.00000  Uiso   1.00
O1007  O     0.24275   0.50000   0.80405   0.00000  Uiso   1.00
O1008  O     0.09058   0.50000   0.78617   0.00000  Uiso   1.00
O1009  O     0.24275   0.50000   0.88050   0.00000  Uiso   1.00
O1010  O     0.01720   0.43935   0.76168   0.00000  Uiso   1.00
Zn1011 Zn    0.16667   0.49999   0.88437   0.00000  Uiso   1.00
Zn1012 Zn    0.16667   0.50001   0.78229   0.00000  Uiso   1.00
C1013  C     0.49977   0.42004   0.83345   0.00000  Uiso   1.00
C1014  C     0.51355   0.35445   0.87421   0.00000  Uiso   1.00
C1015  C     0.50043   0.62415   0.83315   0.00000  Uiso   1.00
C1016  C     0.49957   0.37585   0.83352   0.00000  Uiso   1.00
C1017  C     0.52368   0.53188   0.69207   0.00000  Uiso   1.00
C1018  C     0.47633   0.46812   0.97460   0.00000  Uiso   1.00
C1019  C     0.52294   0.53180   0.97767   0.00000  Uiso   1.00
C1020  C     0.47706   0.46820   0.68900   0.00000  Uiso   1.00
C1021  C     0.66004   0.45279   0.79129   0.00000  Uiso   1.00
C1022  C     0.33996   0.54721   0.87538   0.00000  Uiso   1.00
C1023  C     0.55105   0.56732   0.71611   0.00000  Uiso   1.00
C1024  C     0.50023   0.57996   0.83322   0.00000  Uiso   1.00
C1025  C     0.44895   0.43268   0.95055   0.00000  Uiso   1.00
C1026  C     0.40078   0.49865   0.82204   0.00000  Uiso   1.00
C1027  C     0.59922   0.50135   0.84463   0.00000  Uiso   1.00
C1028  C     0.34680   0.49008   0.81867   0.00000  Uiso   1.00
C1029  C     0.65320   0.50992   0.84800   0.00000  Uiso   1.00
C1030  C     0.48596   0.35489   0.79264   0.00000  Uiso   1.00
C1031  C     0.51404   0.64511   0.87403   0.00000  Uiso   1.00
C1032  C     0.48645   0.64555   0.79245   0.00000  Uiso   1.00
H1033  H     0.47465   0.37135   0.76101   0.00000  Uiso   1.00
H1034  H     0.45544   0.40134   0.96392   0.00000  Uiso   1.00
H1035  H     0.52535   0.62865   0.90566   0.00000  Uiso   1.00
H1036  H     0.47540   0.62943   0.76077   0.00000  Uiso   1.00
H1037  H     0.52460   0.37057   0.90590   0.00000  Uiso   1.00
H1038  H     0.54167   0.55694   0.96083   0.00000  Uiso   1.00
H1039  H     0.45833   0.44306   0.70584   0.00000  Uiso   1.00
H1040  H     0.62456   0.43638   0.79782   0.00000  Uiso   1.00
H1041  H     0.37545   0.56362   0.86885   0.00000  Uiso   1.00
H1042  H     0.54456   0.59866   0.70275   0.00000  Uiso   1.00
N1043  N     0.49999   0.49999   0.95240   0.00000  Uiso   1.00
N1044  N     0.50001   0.50001   0.71427   0.00000  Uiso   1.00
O1045  O     0.50000   0.43892   0.87154   0.00000  Uiso   1.00
O1046  O     0.64946   0.56066   0.90498   0.00000  Uiso   1.00
O1047  O     0.58409   0.56197   0.74861   0.00000  Uiso   1.00
O1048  O     0.41591   0.43803   0.91806   0.00000  Uiso   1.00
O1049  O     0.50000   0.56108   0.79513   0.00000  Uiso   1.00
O1050  O     0.50000   0.43893   0.79510   0.00000  Uiso   1.00
O1051  O     0.50000   0.56107   0.87157   0.00000  Uiso   1.00
O1052  O     0.42392   0.50000   0.86261   0.00000  Uiso   1.00
O1053  O     0.57608   0.50000   0.80405   0.00000  Uiso   1.00
O1054  O     0.42392   0.50000   0.78617   0.00000  Uiso   1.00
O1055  O     0.57608   0.50000   0.88050   0.00000  Uiso   1.00
O1056  O     0.35054   0.43935   0.76168   0.00000  Uiso   1.00
Zn1057 Zn    0.50000   0.49999   0.88437   0.00000  Uiso   1.00
Zn1058 Zn    0.50000   0.50001   0.78229   0.00000  Uiso   1.00
C1059  C     0.83311   0.42004   0.83345   0.00000  Uiso   1.00
C1060  C     0.84689   0.35445   0.87421   0.00000  Uiso   1.00
C1061  C     0.83376   0.62415   0.83315   0.00000  Uiso   1.00
C1062  C     0.83291   0.37585   0.83352   0.00000  Uiso   1.00
C1063  C     0.85701   0.53188   0.69207   0.00000  Uiso   1.00
C1064  C     0.80966   0.46812   0.97460   0.00000  Uiso   1.00
C1065  C     0.85627   0.53180   0.97767   0.00000  Uiso   1.00
C1066  C     0.81039   0.46820   0.68900   0.00000  Uiso   1.00
C1067  C     0.99338   0.45279   0.79129   0.00000  Uiso   1.00
C1068  C     0.67329   0.54721   0.87538   0.00000  Uiso   1.00
C1069  C     0.88439   0.56732   0.71611   0.00000  Uiso   1.00
C1070  C     0.83356   0.57996   0.83322   0.00000  Uiso   1.00
C1071  C     0.78228   0.43268   0.95055   0.00000  Uiso   1.00
C1072  C     0.73411   0.49865   0.82204   0.00000  Uiso   1.00
C1073  C     0.93256   0.50135   0.84463   0.00000  Uiso   1.00
C1074  C     0.68013   0.49008   0.81867   0.00000  Uiso   1.00
C1075  C     0.98653   0.50992   0.84800   0.00000  Uiso   1.00
C1076  C     0.81929   0.35489   0.79264   0.00000  Uiso   1.00
C1077  C     0.84738   0.64511   0.87403   0.00000  Uiso   1.00
C1078  C     0.81978   0.64555   0.79245   0.00000  Uiso   1.00
H1079  H     0.80798   0.37135   0.76101   0.00000  Uiso   1.00
H1080  H     0.78877   0.40134   0.96392   0.00000  Uiso   1.00
H1081  H     0.85869   0.62865   0.90566   0.00000  Uiso   1.00
H1082  H     0.80873   0.62943   0.76077   0.00000  Uiso   1.00
H1083  H     0.85794   0.37057   0.90590   0.00000  Uiso   1.00
H1084  H     0.87500   0.55694   0.96083   0.00000  Uiso   1.00
H1085  H     0.79166   0.44306   0.70584   0.00000  Uiso   1.00
H1086  H     0.95789   0.43638   0.79782   0.00000  Uiso   1.00
H1087  H     0.70878   0.56362   0.86885   0.00000  Uiso   1.00
H1088  H     0.87790   0.59866   0.70275   0.00000  Uiso   1.00
N1089  N     0.83332   0.49999   0.95240   0.00000  Uiso   1.00
N1090  N     0.83335   0.50001   0.71427   0.00000  Uiso   1.00
O1091  O     0.83333   0.43892   0.87154   0.00000  Uiso   1.00
O1092  O     0.98280   0.56066   0.90498   0.00000  Uiso   1.00
O1093  O     0.91742   0.56197   0.74861   0.00000  Uiso   1.00
O1094  O     0.74925   0.43803   0.91806   0.00000  Uiso   1.00
O1095  O     0.83334   0.56108   0.79513   0.00000  Uiso   1.00
O1096  O     0.83333   0.43893   0.79510   0.00000  Uiso   1.00
O1097  O     0.83334   0.56107   0.87157   0.00000  Uiso   1.00
O1098  O     0.75725   0.50000   0.86261   0.00000  Uiso   1.00
O1099  O     0.90942   0.50000   0.80405   0.00000  Uiso   1.00
O1100  O     0.75725   0.50000   0.78617   0.00000  Uiso   1.00
O1101  O     0.90942   0.50000   0.88050   0.00000  Uiso   1.00
O1102  O     0.68387   0.43935   0.76168   0.00000  Uiso   1.00
Zn1103 Zn    0.83333   0.49999   0.88437   0.00000  Uiso   1.00
Zn1104 Zn    0.83333   0.50001   0.78229   0.00000  Uiso   1.00
C1105  C     0.16644   0.75337   0.83345   0.00000  Uiso   1.00
C1106  C     0.18022   0.68778   0.87421   0.00000  Uiso   1.00
C1107  C     0.16709   0.95748   0.83315   0.00000  Uiso   1.00
C1108  C     0.16624   0.70919   0.83352   0.00000  Uiso   1.00
C1109  C     0.19034   0.86522   0.69207   0.00000  Uiso   1.00
C1110  C     0.14299   0.80145   0.97460   0.00000  Uiso   1.00
C1111  C     0.18961   0.86513   0.97767   0.00000  Uiso   1.00
C1112  C     0.14373   0.80153   0.68900   0.00000  Uiso   1.00
C1113  C     0.32671   0.78613   0.79129   0.00000  Uiso   1.00
C1114  C     0.00662   0.88054   0.87538   0.00000  Uiso   1.00
C1115  C     0.21772   0.90066   0.71611   0.00000  Uiso   1.00
C1116  C     0.16689   0.91329   0.83322   0.00000  Uiso   1.00
C1117  C     0.11561   0.76601   0.95055   0.00000  Uiso   1.00
C1118  C     0.06744   0.83199   0.82204   0.00000  Uiso   1.00
C1119  C     0.26589   0.83468   0.84463   0.00000  Uiso   1.00
C1120  C     0.01347   0.82342   0.81867   0.00000  Uiso   1.00
C1121  C     0.31987   0.84325   0.84800   0.00000  Uiso   1.00
C1122  C     0.15262   0.68822   0.79264   0.00000  Uiso   1.00
C1123  C     0.18071   0.97844   0.87403   0.00000  Uiso   1.00
C1124  C     0.15311   0.97888   0.79245   0.00000  Uiso   1.00
H1125  H     0.14131   0.70468   0.76101   0.00000  Uiso   1.00
H1126  H     0.12210   0.73467   0.96392   0.00000  Uiso   1.00
H1127  H     0.19202   0.96198   0.90566   0.00000  Uiso   1.00
H1128  H     0.14206   0.96276   0.76077   0.00000  Uiso   1.00
H1129  H     0.19127   0.70390   0.90590   0.00000  Uiso   1.00
H1130  H     0.20834   0.89027   0.96083   0.00000  Uiso   1.00
H1131  H     0.12500   0.77639   0.70584   0.00000  Uiso   1.00
H1132  H     0.29122   0.76972   0.79782   0.00000  Uiso   1.00
H1133  H     0.04211   0.89695   0.86885   0.00000  Uiso   1.00
H1134  H     0.21123   0.93199   0.70275   0.00000  Uiso   1.00
N1135  N     0.16665   0.83332   0.95240   0.00000  Uiso   1.00
N1136  N     0.16668   0.83334   0.71427   0.00000  Uiso   1.00
O1137  O     0.16666   0.77225   0.87154   0.00000  Uiso   1.00
O1138  O     0.31613   0.89399   0.90498   0.00000  Uiso   1.00
O1139  O     0.25075   0.89531   0.74861   0.00000  Uiso   1.00
O1140  O     0.08258   0.77136   0.91806   0.00000  Uiso   1.00
O1141  O     0.16667   0.89442   0.79513   0.00000  Uiso   1.00
O1142  O     0.16666   0.77226   0.79510   0.00000  Uiso   1.00
O1143  O     0.16667   0.89441   0.87157   0.00000  Uiso   1.00
O1144  O     0.09058   0.83333   0.86261   0.00000  Uiso   1.00
O1145  O     0.24275   0.83334   0.80405   0.00000  Uiso   1.00
O1146  O     0.09058   0.83334   0.78617   0.00000  Uiso   1.00
O1147  O     0.24275   0.83333   0.88050   0.00000  Uiso   1.00
O1148  O     0.01720   0.77268   0.76168   0.00000  Uiso   1.00
Zn1149 Zn    0.16667   0.83333   0.88437   0.00000  Uiso   1.00
Zn1150 Zn    0.16667   0.83334   0.78229   0.00000  Uiso   1.00
C1151  C     0.49977   0.75337   0.83345   0.00000  Uiso   1.00
C1152  C     0.51355   0.68778   0.87421   0.00000  Uiso   1.00
C1153  C     0.50043   0.95748   0.83315   0.00000  Uiso   1.00
C1154  C     0.49957   0.70919   0.83352   0.00000  Uiso   1.00
C1155  C     0.52368   0.86522   0.69207   0.00000  Uiso   1.00
C1156  C     0.47633   0.80145   0.97460   0.00000  Uiso   1.00
C1157  C     0.52294   0.86513   0.97767   0.00000  Uiso   1.00
C1158  C     0.47706   0.80153   0.68900   0.00000  Uiso   1.00
C1159  C     0.66004   0.78613   0.79129   0.00000  Uiso   1.00
C1160  C     0.33996   0.88054   0.87538   0.00000  Uiso   1.00
C1161  C     0.55105   0.90066   0.71611   0.00000  Uiso   1.00
C1162  C     0.50023   0.91329   0.83322   0.00000  Uiso   1.00
C1163  C     0.44895   0.76601   0.95055   0.00000  Uiso   1.00
C1164  C     0.40078   0.83199   0.82204   0.00000  Uiso   1.00
C1165  C     0.59922   0.83468   0.84463   0.00000  Uiso   1.00
C1166  C     0.34680   0.82342   0.81867   0.00000  Uiso   1.00
C1167  C     0.65320   0.84325   0.84800   0.00000  Uiso   1.00
C1168  C     0.48596   0.68822   0.79264   0.00000  Uiso   1.00
C1169  C     0.51404   0.97844   0.87403   0.00000  Uiso   1.00
C1170  C     0.48645   0.97888   0.79245   0.00000  Uiso   1.00
H1171  H     0.47465   0.70468   0.76101   0.00000  Uiso   1.00
H1172  H     0.45544   0.73467   0.96392   0.00000  Uiso   1.00
H1173  H     0.52535   0.96198   0.90566   0.00000  Uiso   1.00
H1174  H     0.47540   0.96276   0.76077   0.00000  Uiso   1.00
H1175  H     0.52460   0.70390   0.90590   0.00000  Uiso   1.00
H1176  H     0.54167   0.89027   0.96083   0.00000  Uiso   1.00
H1177  H     0.45833   0.77639   0.70584   0.00000  Uiso   1.00
H1178  H     0.62456   0.76972   0.79782   0.00000  Uiso   1.00
H1179  H     0.37545   0.89695   0.86885   0.00000  Uiso   1.00
H1180  H     0.54456   0.93199   0.70275   0.00000  Uiso   1.00
N1181  N     0.49999   0.83332   0.95240   0.00000  Uiso   1.00
N1182  N     0.50001   0.83334   0.71427   0.00000  Uiso   1.00
O1183  O     0.50000   0.77225   0.87154   0.00000  Uiso   1.00
O1184  O     0.64946   0.89399   0.90498   0.00000  Uiso   1.00
O1185  O     0.58409   0.89531   0.74861   0.00000  Uiso   1.00
O1186  O     0.41591   0.77136   0.91806   0.00000  Uiso   1.00
O1187  O     0.50000   0.89442   0.79513   0.00000  Uiso   1.00
O1188  O     0.50000   0.77226   0.79510   0.00000  Uiso   1.00
O1189  O     0.50000   0.89441   0.87157   0.00000  Uiso   1.00
O1190  O     0.42392   0.83333   0.86261   0.00000  Uiso   1.00
O1191  O     0.57608   0.83334   0.80405   0.00000  Uiso   1.00
O1192  O     0.42392   0.83334   0.78617   0.00000  Uiso   1.00
O1193  O     0.57608   0.83333   0.88050   0.00000  Uiso   1.00
O1194  O     0.35054   0.77268   0.76168   0.00000  Uiso   1.00
Zn1195 Zn    0.50000   0.83333   0.88437   0.00000  Uiso   1.00
Zn1196 Zn    0.50000   0.83334   0.78229   0.00000  Uiso   1.00
C1197  C     0.83311   0.75337   0.83345   0.00000  Uiso   1.00
C1198  C     0.84689   0.68778   0.87421   0.00000  Uiso   1.00
C1199  C     0.83376   0.95748   0.83315   0.00000  Uiso   1.00
C1200  C     0.83291   0.70919   0.83352   0.00000  Uiso   1.00
C1201  C     0.85701   0.86522   0.69207   0.00000  Uiso   1.00
C1202  C     0.80966   0.80145   0.97460   0.00000  Uiso   1.00
C1203  C     0.85627   0.86513   0.97767   0.00000  Uiso   1.00
C1204  C     0.81039   0.80153   0.68900   0.00000  Uiso   1.00
C1205  C     0.99338   0.78613   0.79129   0.00000  Uiso   1.00
C1206  C     0.67329   0.88054   0.87538   0.00000  Uiso   1.00
C1207  C     0.88439   0.90066   0.71611   0.00000  Uiso   1.00
C1208  C     0.83356   0.91329   0.83322   0.00000  Uiso   1.00
C1209  C     0.78228   0.76601   0.95055   0.00000  Uiso   1.00
C1210  C     0.73411   0.83199   0.82204   0.00000  Uiso   1.00
C1211  C     0.93256   0.83468   0.84463   0.00000  Uiso   1.00
C1212  C     0.68013   0.82342   0.81867   0.00000  Uiso   1.00
C1213  C     0.98653   0.84325   0.84800   0.00000  Uiso   1.00
C1214  C     0.81929   0.68822   0.79264   0.00000  Uiso   1.00
C1215  C     0.84738   0.97844   0.87403   0.00000  Uiso   1.00
C1216  C     0.81978   0.97888   0.79245   0.00000  Uiso   1.00
H1217  H     0.80798   0.70468   0.76101   0.00000  Uiso   1.00
H1218  H     0.78877   0.73467   0.96392   0.00000  Uiso   1.00
H1219  H     0.85869   0.96198   0.90566   0.00000  Uiso   1.00
H1220  H     0.80873   0.96276   0.76077   0.00000  Uiso   1.00
H1221  H     0.85794   0.70390   0.90590   0.00000  Uiso   1.00
H1222  H     0.87500   0.89027   0.96083   0.00000  Uiso   1.00
H1223  H     0.79166   0.77639   0.70584   0.00000  Uiso   1.00
H1224  H     0.95789   0.76972   0.79782   0.00000  Uiso   1.00
H1225  H     0.70878   0.89695   0.86885   0.00000  Uiso   1.00
H1226  H     0.87790   0.93199   0.70275   0.00000  Uiso   1.00
N1227  N     0.83332   0.83332   0.95240   0.00000  Uiso   1.00
N1228  N     0.83335   0.83334   0.71427   0.00000  Uiso   1.00
O1229  O     0.83333   0.77225   0.87154   0.00000  Uiso   1.00
O1230  O     0.98280   0.89399   0.90498   0.00000  Uiso   1.00
O1231  O     0.91742   0.89531   0.74861   0.00000  Uiso   1.00
O1232  O     0.74925   0.77136   0.91806   0.00000  Uiso   1.00
O1233  O     0.83334   0.89442   0.79513   0.00000  Uiso   1.00
O1234  O     0.83333   0.77226   0.79510   0.00000  Uiso   1.00
O1235  O     0.83334   0.89441   0.87157   0.00000  Uiso   1.00
O1236  O     0.75725   0.83333   0.86261   0.00000  Uiso   1.00
O1237  O     0.90942   0.83334   0.80405   0.00000  Uiso   1.00
O1238  O     0.75725   0.83334   0.78617   0.00000  Uiso   1.00
O1239  O     0.90942   0.83333   0.88050   0.00000  Uiso   1.00
O1240  O     0.68387   0.77268   0.76168   0.00000  Uiso   1.00
Zn1241 Zn    0.83333   0.83333   0.88437   0.00000  Uiso   1.00
Zn1242 Zn    0.83333   0.83334   0.78229   0.00000  Uiso   1.00
loop_
_geom_bond_atom_site_label_1
_geom_bond_atom_site_label_2
_geom_bond_distance
_geom_bond_site_symmetry_2
_ccdc_geom_bond_type
C1     C4      1.418   .     S
C1     O38     1.286   .     A
C1     O33     1.290   .     A
C2     C4      1.395   .     A
C2     H25     1.084   .     S
C2     C295    1.370   1_545 S
C3     C19     1.398   .     A
C3     C20     1.395   .     A
C3     C12     1.418   .     S
C4     C18     1.398   .     A
C5     N32     1.385   .     A
C5     C11     1.472   .     S
C5     C835    1.417   1_554 S
C6     N31     1.385   .     A
C6     C13     1.472   .     S
C6     C422    1.417   .     S
C7     H26     1.083   .     S
C7     N31     1.357   .     A
C7     C419    1.417   .     S
C8     N32     1.357   .     A
C8     H27     1.083   .     S
C8     C834    1.417   1_554 S
C9     H28     1.085   .     S
C9     C62     1.502   .     S
C9     O90     1.222   .     S
C10    H29     1.085   .     S
C10    C109    1.502   1_455 S
C10    O126    1.222   1_455 S
C11    O35     1.218   .     D
C11    H30     1.085   .     S
C12    O39     1.286   .     A
C12    O37     1.290   .     A
C13    H22     1.085   .     S
C13    O36     1.218   .     D
C14    O42     1.286   .     A
C14    C16     1.405   .     S
C14    O40     1.278   .     A
C15    O43     1.286   .     A
C15    O41     1.278   .     A
C15    C17     1.405   .     S
C16    C101    1.502   1_455 S
C16    C109    1.352   1_455 S
C17    C62     1.352   .     S
C17    C56     1.502   .     S
C18    H21     1.084   .     S
C18    C296    1.370   1_545 S
C19    H23     1.084   .     S
C19    C140    1.370   .     S
C20    H24     1.084   .     S
C20    C156    1.370   .     S
N31    Zn45    2.023   .     S
N32    Zn46    2.023   .     S
O33    Zn45    2.001   .     S
O34    C56     1.222   .     S
O37    Zn46    2.001   .     S
O38    Zn46    1.993   .     S
O39    Zn45    1.993   .     S
O40    Zn45    1.986   .     S
O41    Zn46    1.986   .     S
O42    Zn46    1.979   .     S
O43    Zn45    1.979   .     S
O44    C101    1.222   1_455 S
C47    C50     1.418   .     S
C47    O84     1.286   .     A
C47    O79     1.290   .     A
C48    C50     1.395   .     A
C48    H71     1.084   .     S
C48    C341    1.370   1_545 S
C49    C65     1.398   .     A
C49    C66     1.395   .     A
C49    C58     1.418   .     S
C50    C64     1.398   .     A
C51    N78     1.385   .     A
C51    C57     1.472   .     S
C51    C881    1.417   1_554 S
C52    N77     1.385   .     A
C52    C59     1.472   .     S
C52    C468    1.417   .     S
C53    H72     1.083   .     S
C53    N77     1.357   .     A
C53    C465    1.417   .     S
C54    N78     1.357   .     A
C54    H73     1.083   .     S
C54    C880    1.417   1_554 S
C55    H74     1.085   .     S
C55    C108    1.502   .     S
C55    O136    1.222   .     S
C56    H75     1.085   .     S
C57    O81     1.218   .     D
C57    H76     1.085   .     S
C58    O85     1.286   .     A
C58    O83     1.290   .     A
C59    H68     1.085   .     S
C59    O82     1.218   .     D
C60    O88     1.286   .     A
C60    C62     1.405   .     S
C60    O86     1.278   .     A
C61    O89     1.286   .     A
C61    O87     1.278   .     A
C61    C63     1.405   .     S
C63    C108    1.352   .     S
C63    C102    1.502   .     S
C64    H67     1.084   .     S
C64    C342    1.370   1_545 S
C65    H69     1.084   .     S
C65    C186    1.370   .     S
C66    H70     1.084   .     S
C66    C202    1.370   .     S
N77    Zn91    2.023   .     S
N78    Zn92    2.023   .     S
O79    Zn91    2.001   .     S
O80    C102    1.222   .     S
O83    Zn92    2.001   .     S
O84    Zn92    1.993   .     S
O85    Zn91    1.993   .     S
O86    Zn91    1.986   .     S
O87    Zn92    1.986   .     S
O88    Zn92    1.979   .     S
O89    Zn91    1.979   .     S
C93    C96     1.418   .     S
C93    O130    1.286   .     A
C93    O125    1.290   .     A
C94    C96     1.395   .     A
C94    H117    1.084   .     S
C94    C387    1.370   1_545 S
C95    C111    1.398   .     A
C95    C112    1.395   .     A
C95    C104    1.418   .     S
C96    C110    1.398   .     A
C97    N124    1.385   .     A
C97    C103    1.472   .     S
C97    C927    1.417   1_554 S
C98    N123    1.385   .     A
C98    C105    1.472   .     S
C98    C514    1.417   .     S
C99    H118    1.083   .     S
C99    N123    1.357   .     A
C99    C511    1.417   .     S
C100   N124    1.357   .     A
C100   H119    1.083   .     S
C100   C926    1.417   1_554 S
C101   H120    1.085   .     S
C101   C16     1.502   1_655 S
C101   O44     1.222   1_655 S
C102   H121    1.085   .     S
C103   O127    1.218   .     D
C103   H122    1.085   .     S
C104   O131    1.286   .     A
C104   O129    1.290   .     A
C105   H114    1.085   .     S
C105   O128    1.218   .     D
C106   O134    1.286   .     A
C106   C108    1.405   .     S
C106   O132    1.278   .     A
C107   O135    1.286   .     A
C107   O133    1.278   .     A
C107   C109    1.405   .     S
C109   C16     1.352   1_655 S
C109   C10     1.502   1_655 S
C110   H113    1.084   .     S
C110   C388    1.370   1_545 S
C111   H115    1.084   .     S
C111   C232    1.370   .     S
C112   H116    1.084   .     S
C112   C248    1.370   .     S
N123   Zn137   2.023   .     S
N124   Zn138   2.023   .     S
O125   Zn137   2.001   .     S
O126   C10     1.222   1_655 S
O129   Zn138   2.001   .     S
O130   Zn138   1.993   .     S
O131   Zn137   1.993   .     S
O132   Zn137   1.986   .     S
O133   Zn138   1.986   .     S
O134   Zn138   1.979   .     S
O135   Zn137   1.979   .     S
C139   C142    1.418   .     S
C139   O176    1.286   .     A
C139   O171    1.290   .     A
C140   C142    1.395   .     A
C140   H163    1.084   .     S
C141   C157    1.398   .     A
C141   C158    1.395   .     A
C141   C150    1.418   .     S
C142   C156    1.398   .     A
C143   N170    1.385   .     A
C143   C149    1.472   .     S
C143   C973    1.417   1_554 S
C144   N169    1.385   .     A
C144   C151    1.472   .     S
C144   C560    1.417   .     S
C145   H164    1.083   .     S
C145   N169    1.357   .     A
C145   C557    1.417   .     S
C146   N170    1.357   .     A
C146   H165    1.083   .     S
C146   C972    1.417   1_554 S
C147   H166    1.085   .     S
C147   C200    1.502   .     S
C147   O228    1.222   .     S
C148   H167    1.085   .     S
C148   C247    1.502   1_455 S
C148   O264    1.222   1_455 S
C149   O173    1.218   .     D
C149   H168    1.085   .     S
C150   O177    1.286   .     A
C150   O175    1.290   .     A
C151   H160    1.085   .     S
C151   O174    1.218   .     D
C152   O180    1.286   .     A
C152   C154    1.405   .     S
C152   O178    1.278   .     A
C153   O181    1.286   .     A
C153   O179    1.278   .     A
C153   C155    1.405   .     S
C154   C239    1.502   1_455 S
C154   C247    1.352   1_455 S
C155   C200    1.352   .     S
C155   C194    1.502   .     S
C156   H159    1.084   .     S
C157   H161    1.084   .     S
C157   C278    1.370   .     S
C158   H162    1.084   .     S
C158   C294    1.370   .     S
N169   Zn183   2.023   .     S
N170   Zn184   2.023   .     S
O171   Zn183   2.001   .     S
O172   C194    1.222   .     S
O175   Zn184   2.001   .     S
O176   Zn184   1.993   .     S
O177   Zn183   1.993   .     S
O178   Zn183   1.986   .     S
O179   Zn184   1.986   .     S
O180   Zn184   1.979   .     S
O181   Zn183   1.979   .     S
O182   C239    1.222   1_455 S
C185   C188    1.418   .     S
C185   O222    1.286   .     A
C185   O217    1.290   .     A
C186   C188    1.395   .     A
C186   H209    1.084   .     S
C187   C203    1.398   .     A
C187   C204    1.395   .     A
C187   C196    1.418   .     S
C188   C202    1.398   .     A
C189   N216    1.385   .     A
C189   C195    1.472   .     S
C189   C1019   1.417   1_554 S
C190   N215    1.385   .     A
C190   C197    1.472   .     S
C190   C606    1.417   .     S
C191   H210    1.083   .     S
C191   N215    1.357   .     A
C191   C603    1.417   .     S
C192   N216    1.357   .     A
C192   H211    1.083   .     S
C192   C1018   1.417   1_554 S
C193   H212    1.085   .     S
C193   C246    1.502   .     S
C193   O274    1.222   .     S
C194   H213    1.085   .     S
C195   O219    1.218   .     D
C195   H214    1.085   .     S
C196   O223    1.286   .     A
C196   O221    1.290   .     A
C197   H206    1.085   .     S
C197   O220    1.218   .     D
C198   O226    1.286   .     A
C198   C200    1.405   .     S
C198   O224    1.278   .     A
C199   O227    1.286   .     A
C199   O225    1.278   .     A
C199   C201    1.405   .     S
C201   C246    1.352   .     S
C201   C240    1.502   .     S
C202   H205    1.084   .     S
C203   H207    1.084   .     S
C203   C324    1.370   .     S
C204   H208    1.084   .     S
C204   C340    1.370   .     S
N215   Zn229   2.023   .     S
N216   Zn230   2.023   .     S
O217   Zn229   2.001   .     S
O218   C240    1.222   .     S
O221   Zn230   2.001   .     S
O222   Zn230   1.993   .     S
O223   Zn229   1.993   .     S
O224   Zn229   1.986   .     S
O225   Zn230   1.986   .     S
O226   Zn230   1.979   .     S
O227   Zn229   1.979   .     S
C231   C234    1.418   .     S
C231   O268    1.286   .     A
C231   O263    1.290   .     A
C232   C234    1.395   .     A
C232   H255    1.084   .     S
C233   C249    1.398   .     A
C233   C250    1.395   .     A
C233   C242    1.418   .     S
C234   C248    1.398   .     A
C235   N262    1.385   .     A
C235   C241    1.472   .     S
C235   C1065   1.417   1_554 S
C236   N261    1.385   .     A
C236   C243    1.472   .     S
C236   C652    1.417   .     S
C237   H256    1.083   .     S
C237   N261    1.357   .     A
C237   C649    1.417   .     S
C238   N262    1.357   .     A
C238   H257    1.083   .     S
C238   C1064   1.417   1_554 S
C239   H258    1.085   .     S
C239   C154    1.502   1_655 S
C239   O182    1.222   1_655 S
C240   H259    1.085   .     S
C241   O265    1.218   .     D
C241   H260    1.085   .     S
C242   O269    1.286   .     A
C242   O267    1.290   .     A
C243   H252    1.085   .     S
C243   O266    1.218   .     D
C244   O272    1.286   .     A
C244   C246    1.405   .     S
C244   O270    1.278   .     A
C245   O273    1.286   .     A
C245   O271    1.278   .     A
C245   C247    1.405   .     S
C247   C154    1.352   1_655 S
C247   C148    1.502   1_655 S
C248   H251    1.084   .     S
C249   H253    1.084   .     S
C249   C370    1.370   .     S
C250   H254    1.084   .     S
C250   C386    1.370   .     S
N261   Zn275   2.023   .     S
N262   Zn276   2.023   .     S
O263   Zn275   2.001   .     S
O264   C148    1.222   1_655 S
O267   Zn276   2.001   .     S
O268   Zn276   1.993   .     S
O269   Zn275   1.993   .     S
O270   Zn275   1.986   .     S
O271   Zn276   1.986   .     S
O272   Zn276   1.979   .     S
O273   Zn275   1.979   .     S
C277   C280    1.418   .     S
C277   O314    1.286   .     A
C277   O309    1.290   .     A
C278   C280    1.395   .     A
C278   H301    1.084   .     S
C279   C295    1.398   .     A
C279   C296    1.395   .     A
C279   C288    1.418   .     S
C280   C294    1.398   .     A
C281   N308    1.385   .     A
C281   C287    1.472   .     S
C281   C1111   1.417   1_554 S
C282   N307    1.385   .     A
C282   C289    1.472   .     S
C282   C698    1.417   .     S
C283   H302    1.083   .     S
C283   N307    1.357   .     A
C283   C695    1.417   .     S
C284   N308    1.357   .     A
C284   H303    1.083   .     S
C284   C1110   1.417   1_554 S
C285   H304    1.085   .     S
C285   C338    1.502   .     S
C285   O366    1.222   .     S
C286   H305    1.085   .     S
C286   C385    1.502   1_455 S
C286   O402    1.222   1_455 S
C287   O311    1.218   .     D
C287   H306    1.085   .     S
C288   O315    1.286   .     A
C288   O313    1.290   .     A
C289   H298    1.085   .     S
C289   O312    1.218   .     D
C290   O318    1.286   .     A
C290   C292    1.405   .     S
C290   O316    1.278   .     A
C291   O319    1.286   .     A
C291   O317    1.278   .     A
C291   C293    1.405   .     S
C292   C377    1.502   1_455 S
C292   C385    1.352   1_455 S
C293   C338    1.352   .     S
C293   C332    1.502   .     S
C294   H297    1.084   .     S
C295   H299    1.084   .     S
C295   C2      1.370   1_565 S
C296   H300    1.084   .     S
C296   C18     1.370   1_565 S
N307   Zn321   2.023   .     S
N308   Zn322   2.023   .     S
O309   Zn321   2.001   .     S
O310   C332    1.222   .     S
O313   Zn322   2.001   .     S
O314   Zn322   1.993   .     S
O315   Zn321   1.993   .     S
O316   Zn321   1.986   .     S
O317   Zn322   1.986   .     S
O318   Zn322   1.979   .     S
O319   Zn321   1.979   .     S
O320   C377    1.222   1_455 S
C323   C326    1.418   .     S
C323   O360    1.286   .     A
C323   O355    1.290   .     A
C324   C326    1.395   .     A
C324   H347    1.084   .     S
C325   C341    1.398   .     A
C325   C342    1.395   .     A
C325   C334    1.418   .     S
C326   C340    1.398   .     A
C327   N354    1.385   .     A
C327   C333    1.472   .     S
C327   C1157   1.417   1_554 S
C328   N353    1.385   .     A
C328   C335    1.472   .     S
C328   C744    1.417   .     S
C329   H348    1.083   .     S
C329   N353    1.357   .     A
C329   C741    1.417   .     S
C330   N354    1.357   .     A
C330   H349    1.083   .     S
C330   C1156   1.417   1_554 S
C331   H350    1.085   .     S
C331   C384    1.502   .     S
C331   O412    1.222   .     S
C332   H351    1.085   .     S
C333   O357    1.218   .     D
C333   H352    1.085   .     S
C334   O361    1.286   .     A
C334   O359    1.290   .     A
C335   H344    1.085   .     S
C335   O358    1.218   .     D
C336   O364    1.286   .     A
C336   C338    1.405   .     S
C336   O362    1.278   .     A
C337   O365    1.286   .     A
C337   O363    1.278   .     A
C337   C339    1.405   .     S
C339   C384    1.352   .     S
C339   C378    1.502   .     S
C340   H343    1.084   .     S
C341   H345    1.084   .     S
C341   C48     1.370   1_565 S
C342   H346    1.084   .     S
C342   C64     1.370   1_565 S
N353   Zn367   2.023   .     S
N354   Zn368   2.023   .     S
O355   Zn367   2.001   .     S
O356   C378    1.222   .     S
O359   Zn368   2.001   .     S
O360   Zn368   1.993   .     S
O361   Zn367   1.993   .     S
O362   Zn367   1.986   .     S
O363   Zn368   1.986   .     S
O364   Zn368   1.979   .     S
O365   Zn367   1.979   .     S
C369   C372    1.418   .     S
C369   O406    1.286   .     A
C369   O401    1.290   .     A
C370   C372    1.395   .     A
C370   H393    1.084   .     S
C371   C387    1.398   .     A
C371   C388    1.395   .     A
C371   C380    1.418   .     S
C372   C386    1.398   .     A
C373   N400    1.385   .     A
C373   C379    1.472   .     S
C373   C1203   1.417   1_554 S
C374   N399    1.385   .     A
C374   C381    1.472   .     S
C374   C790    1.417   .     S
C375   H394    1.083   .     S
C375   N399    1.357   .     A
C375   C787    1.417   .     S
C376   N400    1.357   .     A
C376   H395    1.083   .     S
C376   C1202   1.417   1_554 S
C377   H396    1.085   .     S
C377   C292    1.502   1_655 S
C377   O320    1.222   1_655 S
C378   H397    1.085   .     S
C379   O403    1.218   .     D
C379   H398    1.085   .     S
C380   O407    1.286   .     A
C380   O405    1.290   .     A
C381   H390    1.085   .     S
C381   O404    1.218   .     D
C382   O410    1.286   .     A
C382   C384    1.405   .     S
C382   O408    1.278   .     A
C383   O411    1.286   .     A
C383   O409    1.278   .     A
C383   C385    1.405   .     S
C385   C292    1.352   1_655 S
C385   C286    1.502   1_655 S
C386   H389    1.084   .     S
C387   H391    1.084   .     S
C387   C94     1.370   1_565 S
C388   H392    1.084   .     S
C388   C110    1.370   1_565 S
N399   Zn413   2.023   .     S
N400   Zn414   2.023   .     S
O401   Zn413   2.001   .     S
O402   C286    1.222   1_655 S
O405   Zn414   2.001   .     S
O406   Zn414   1.993   .     S
O407   Zn413   1.993   .     S
O408   Zn413   1.986   .     S
O409   Zn414   1.986   .     S
O410   Zn414   1.979   .     S
O411   Zn413   1.979   .     S
C415   C418    1.418   .     S
C415   O452    1.286   .     A
C415   O447    1.290   .     A
C416   C418    1.395   .     A
C416   H439    1.084   .     S
C416   C709    1.370   1_545 S
C417   C433    1.398   .     A
C417   C434    1.395   .     A
C417   C426    1.418   .     S
C418   C432    1.398   .     A
C419   N446    1.385   .     A
C419   C425    1.472   .     S
C420   N445    1.385   .     A
C420   C427    1.472   .     S
C420   C836    1.417   .     S
C421   H440    1.083   .     S
C421   N445    1.357   .     A
C421   C833    1.417   .     S
C422   N446    1.357   .     A
C422   H441    1.083   .     S
C423   H442    1.085   .     S
C423   C476    1.502   .     S
C423   O504    1.222   .     S
C424   H443    1.085   .     S
C424   C523    1.502   1_455 S
C424   O540    1.222   1_455 S
C425   O449    1.218   .     D
C425   H444    1.085   .     S
C426   O453    1.286   .     A
C426   O451    1.290   .     A
C427   H436    1.085   .     S
C427   O450    1.218   .     D
C428   O456    1.286   .     A
C428   C430    1.405   .     S
C428   O454    1.278   .     A
C429   O457    1.286   .     A
C429   O455    1.278   .     A
C429   C431    1.405   .     S
C430   C515    1.502   1_455 S
C430   C523    1.352   1_455 S
C431   C476    1.352   .     S
C431   C470    1.502   .     S
C432   H435    1.084   .     S
C432   C710    1.370   1_545 S
C433   H437    1.084   .     S
C433   C554    1.370   .     S
C434   H438    1.084   .     S
C434   C570    1.370   .     S
N445   Zn459   2.023   .     S
N446   Zn460   2.023   .     S
O447   Zn459   2.001   .     S
O448   C470    1.222   .     S
O451   Zn460   2.001   .     S
O452   Zn460   1.993   .     S
O453   Zn459   1.993   .     S
O454   Zn459   1.986   .     S
O455   Zn460   1.986   .     S
O456   Zn460   1.979   .     S
O457   Zn459   1.979   .     S
O458   C515    1.222   1_455 S
C461   C464    1.418   .     S
C461   O498    1.286   .     A
C461   O493    1.290   .     A
C462   C464    1.395   .     A
C462   H485    1.084   .     S
C462   C755    1.370   1_545 S
C463   C479    1.398   .     A
C463   C480    1.395   .     A
C463   C472    1.418   .     S
C464   C478    1.398   .     A
C465   N492    1.385   .     A
C465   C471    1.472   .     S
C466   N491    1.385   .     A
C466   C473    1.472   .     S
C466   C882    1.417   .     S
C467   H486    1.083   .     S
C467   N491    1.357   .     A
C467   C879    1.417   .     S
C468   N492    1.357   .     A
C468   H487    1.083   .     S
C469   H488    1.085   .     S
C469   C522    1.502   .     S
C469   O550    1.222   .     S
C470   H489    1.085   .     S
C471   O495    1.218   .     D
C471   H490    1.085   .     S
C472   O499    1.286   .     A
C472   O497    1.290   .     A
C473   H482    1.085   .     S
C473   O496    1.218   .     D
C474   O502    1.286   .     A
C474   C476    1.405   .     S
C474   O500    1.278   .     A
C475   O503    1.286   .     A
C475   O501    1.278   .     A
C475   C477    1.405   .     S
C477   C522    1.352   .     S
C477   C516    1.502   .     S
C478   H481    1.084   .     S
C478   C756    1.370   1_545 S
C479   H483    1.084   .     S
C479   C600    1.370   .     S
C480   H484    1.084   .     S
C480   C616    1.370   .     S
N491   Zn505   2.023   .     S
N492   Zn506   2.023   .     S
O493   Zn505   2.001   .     S
O494   C516    1.222   .     S
O497   Zn506   2.001   .     S
O498   Zn506   1.993   .     S
O499   Zn505   1.993   .     S
O500   Zn505   1.986   .     S
O501   Zn506   1.986   .     S
O502   Zn506   1.979   .     S
O503   Zn505   1.979   .     S
C507   C510    1.418   .     S
C507   O544    1.286   .     A
C507   O539    1.290   .     A
C508   C510    1.395   .     A
C508   H531    1.084   .     S
C508   C801    1.370   1_545 S
C509   C525    1.398   .     A
C509   C526    1.395   .     A
C509   C518    1.418   .     S
C510   C524    1.398   .     A
C511   N538    1.385   .     A
C511   C517    1.472   .     S
C512   N537    1.385   .     A
C512   C519    1.472   .     S
C512   C928    1.417   .     S
C513   H532    1.083   .     S
C513   N537    1.357   .     A
C513   C925    1.417   .     S
C514   N538    1.357   .     A
C514   H533    1.083   .     S
C515   H534    1.085   .     S
C515   C430    1.502   1_655 S
C515   O458    1.222   1_655 S
C516   H535    1.085   .     S
C517   O541    1.218   .     D
C517   H536    1.085   .     S
C518   O545    1.286   .     A
C518   O543    1.290   .     A
C519   H528    1.085   .     S
C519   O542    1.218   .     D
C520   O548    1.286   .     A
C520   C522    1.405   .     S
C520   O546    1.278   .     A
C521   O549    1.286   .     A
C521   O547    1.278   .     A
C521   C523    1.405   .     S
C523   C430    1.352   1_655 S
C523   C424    1.502   1_655 S
C524   H527    1.084   .     S
C524   C802    1.370   1_545 S
C525   H529    1.084   .     S
C525   C646    1.370   .     S
C526   H530    1.084   .     S
C526   C662    1.370   .     S
N537   Zn551   2.023   .     S
N538   Zn552   2.023   .     S
O539   Zn551   2.001   .     S
O540   C424    1.222   1_655 S
O543   Zn552   2.001   .     S
O544   Zn552   1.993   .     S
O545   Zn551   1.993   .     S
O546   Zn551   1.986   .     S
O547   Zn552   1.986   .     S
O548   Zn552   1.979   .     S
O549   Zn551   1.979   .     S
C553   C556    1.418   .     S
C553   O590    1.286   .     A
C553   O585    1.290   .     A
C554   C556    1.395   .     A
C554   H577    1.084   .     S
C555   C571    1.398   .     A
C555   C572    1.395   .     A
C555   C564    1.418   .     S
C556   C570    1.398   .     A
C557   N584    1.385   .     A
C557   C563    1.472   .     S
C558   N583    1.385   .     A
C558   C565    1.472   .     S
C558   C974    1.417   .     S
C559   H578    1.083   .     S
C559   N583    1.357   .     A
C559   C971    1.417   .     S
C560   N584    1.357   .     A
C560   H579    1.083   .     S
C561   H580    1.085   .     S
C561   C614    1.502   .     S
C561   O642    1.222   .     S
C562   H581    1.085   .     S
C562   C661    1.502   1_455 S
C562   O678    1.222   1_455 S
C563   O587    1.218   .     D
C563   H582    1.085   .     S
C564   O591    1.286   .     A
C564   O589    1.290   .     A
C565   H574    1.085   .     S
C565   O588    1.218   .     D
C566   O594    1.286   .     A
C566   C568    1.405   .     S
C566   O592    1.278   .     A
C567   O595    1.286   .     A
C567   O593    1.278   .     A
C567   C569    1.405   .     S
C568   C653    1.502   1_455 S
C568   C661    1.352   1_455 S
C569   C614    1.352   .     S
C569   C608    1.502   .     S
C570   H573    1.084   .     S
C571   H575    1.084   .     S
C571   C692    1.370   .     S
C572   H576    1.084   .     S
C572   C708    1.370   .     S
N583   Zn597   2.023   .     S
N584   Zn598   2.023   .     S
O585   Zn597   2.001   .     S
O586   C608    1.222   .     S
O589   Zn598   2.001   .     S
O590   Zn598   1.993   .     S
O591   Zn597   1.993   .     S
O592   Zn597   1.986   .     S
O593   Zn598   1.986   .     S
O594   Zn598   1.979   .     S
O595   Zn597   1.979   .     S
O596   C653    1.222   1_455 S
C599   C602    1.418   .     S
C599   O636    1.286   .     A
C599   O631    1.290   .     A
C600   C602    1.395   .     A
C600   H623    1.084   .     S
C601   C617    1.398   .     A
C601   C618    1.395   .     A
C601   C610    1.418   .     S
C602   C616    1.398   .     A
C603   N630    1.385   .     A
C603   C609    1.472   .     S
C604   N629    1.385   .     A
C604   C611    1.472   .     S
C604   C1020   1.417   .     S
C605   H624    1.083   .     S
C605   N629    1.357   .     A
C605   C1017   1.417   .     S
C606   N630    1.357   .     A
C606   H625    1.083   .     S
C607   H626    1.085   .     S
C607   C660    1.502   .     S
C607   O688    1.222   .     S
C608   H627    1.085   .     S
C609   O633    1.218   .     D
C609   H628    1.085   .     S
C610   O637    1.286   .     A
C610   O635    1.290   .     A
C611   H620    1.085   .     S
C611   O634    1.218   .     D
C612   O640    1.286   .     A
C612   C614    1.405   .     S
C612   O638    1.278   .     A
C613   O641    1.286   .     A
C613   O639    1.278   .     A
C613   C615    1.405   .     S
C615   C660    1.352   .     S
C615   C654    1.502   .     S
C616   H619    1.084   .     S
C617   H621    1.084   .     S
C617   C738    1.370   .     S
C618   H622    1.084   .     S
C618   C754    1.370   .     S
N629   Zn643   2.023   .     S
N630   Zn644   2.023   .     S
O631   Zn643   2.001   .     S
O632   C654    1.222   .     S
O635   Zn644   2.001   .     S
O636   Zn644   1.993   .     S
O637   Zn643   1.993   .     S
O638   Zn643   1.986   .     S
O639   Zn644   1.986   .     S
O640   Zn644   1.979   .     S
O641   Zn643   1.979   .     S
C645   C648    1.418   .     S
C645   O682    1.286   .     A
C645   O677    1.290   .     A
C646   C648    1.395   .     A
C646   H669    1.084   .     S
C647   C663    1.398   .     A
C647   C664    1.395   .     A
C647   C656    1.418   .     S
C648   C662    1.398   .     A
C649   N676    1.385   .     A
C649   C655    1.472   .     S
C650   N675    1.385   .     A
C650   C657    1.472   .     S
C650   C1066   1.417   .     S
C651   H670    1.083   .     S
C651   N675    1.357   .     A
C651   C1063   1.417   .     S
C652   N676    1.357   .     A
C652   H671    1.083   .     S
C653   H672    1.085   .     S
C653   C568    1.502   1_655 S
C653   O596    1.222   1_655 S
C654   H673    1.085   .     S
C655   O679    1.218   .     D
C655   H674    1.085   .     S
C656   O683    1.286   .     A
C656   O681    1.290   .     A
C657   H666    1.085   .     S
C657   O680    1.218   .     D
C658   O686    1.286   .     A
C658   C660    1.405   .     S
C658   O684    1.278   .     A
C659   O687    1.286   .     A
C659   O685    1.278   .     A
C659   C661    1.405   .     S
C661   C568    1.352   1_655 S
C661   C562    1.502   1_655 S
C662   H665    1.084   .     S
C663   H667    1.084   .     S
C663   C784    1.370   .     S
C664   H668    1.084   .     S
C664   C800    1.370   .     S
N675   Zn689   2.023   .     S
N676   Zn690   2.023   .     S
O677   Zn689   2.001   .     S
O678   C562    1.222   1_655 S
O681   Zn690   2.001   .     S
O682   Zn690   1.993   .     S
O683   Zn689   1.993   .     S
O684   Zn689   1.986   .     S
O685   Zn690   1.986   .     S
O686   Zn690   1.979   .     S
O687   Zn689   1.979   .     S
C691   C694    1.418   .     S
C691   O728    1.286   .     A
C691   O723    1.290   .     A
C692   C694    1.395   .     A
C692   H715    1.084   .     S
C693   C709    1.398   .     A
C693   C710    1.395   .     A
C693   C702    1.418   .     S
C694   C708    1.398   .     A
C695   N722    1.385   .     A
C695   C701    1.472   .     S
C696   N721    1.385   .     A
C696   C703    1.472   .     S
C696   C1112   1.417   .     S
C697   H716    1.083   .     S
C697   N721    1.357   .     A
C697   C1109   1.417   .     S
C698   N722    1.357   .     A
C698   H717    1.083   .     S
C699   H718    1.085   .     S
C699   C752    1.502   .     S
C699   O780    1.222   .     S
C700   H719    1.085   .     S
C700   C799    1.502   1_455 S
C700   O816    1.222   1_455 S
C701   O725    1.218   .     D
C701   H720    1.085   .     S
C702   O729    1.286   .     A
C702   O727    1.290   .     A
C703   H712    1.085   .     S
C703   O726    1.218   .     D
C704   O732    1.286   .     A
C704   C706    1.405   .     S
C704   O730    1.278   .     A
C705   O733    1.286   .     A
C705   O731    1.278   .     A
C705   C707    1.405   .     S
C706   C791    1.502   1_455 S
C706   C799    1.352   1_455 S
C707   C752    1.352   .     S
C707   C746    1.502   .     S
C708   H711    1.084   .     S
C709   H713    1.084   .     S
C709   C416    1.370   1_565 S
C710   H714    1.084   .     S
C710   C432    1.370   1_565 S
N721   Zn735   2.023   .     S
N722   Zn736   2.023   .     S
O723   Zn735   2.001   .     S
O724   C746    1.222   .     S
O727   Zn736   2.001   .     S
O728   Zn736   1.993   .     S
O729   Zn735   1.993   .     S
O730   Zn735   1.986   .     S
O731   Zn736   1.986   .     S
O732   Zn736   1.979   .     S
O733   Zn735   1.979   .     S
O734   C791    1.222   1_455 S
C737   C740    1.418   .     S
C737   O774    1.286   .     A
C737   O769    1.290   .     A
C738   C740    1.395   .     A
C738   H761    1.084   .     S
C739   C755    1.398   .     A
C739   C756    1.395   .     A
C739   C748    1.418   .     S
C740   C754    1.398   .     A
C741   N768    1.385   .     A
C741   C747    1.472   .     S
C742   N767    1.385   .     A
C742   C749    1.472   .     S
C742   C1158   1.417   .     S
C743   H762    1.083   .     S
C743   N767    1.357   .     A
C743   C1155   1.417   .     S
C744   N768    1.357   .     A
C744   H763    1.083   .     S
C745   H764    1.085   .     S
C745   C798    1.502   .     S
C745   O826    1.222   .     S
C746   H765    1.085   .     S
C747   O771    1.218   .     D
C747   H766    1.085   .     S
C748   O775    1.286   .     A
C748   O773    1.290   .     A
C749   H758    1.085   .     S
C749   O772    1.218   .     D
C750   O778    1.286   .     A
C750   C752    1.405   .     S
C750   O776    1.278   .     A
C751   O779    1.286   .     A
C751   O777    1.278   .     A
C751   C753    1.405   .     S
C753   C798    1.352   .     S
C753   C792    1.502   .     S
C754   H757    1.084   .     S
C755   H759    1.084   .     S
C755   C462    1.370   1_565 S
C756   H760    1.084   .     S
C756   C478    1.370   1_565 S
N767   Zn781   2.023   .     S
N768   Zn782   2.023   .     S
O769   Zn781   2.001   .     S
O770   C792    1.222   .     S
O773   Zn782   2.001   .     S
O774   Zn782   1.993   .     S
O775   Zn781   1.993   .     S
O776   Zn781   1.986   .     S
O777   Zn782   1.986   .     S
O778   Zn782   1.979   .     S
O779   Zn781   1.979   .     S
C783   C786    1.418   .     S
C783   O820    1.286   .     A
C783   O815    1.290   .     A
C784   C786    1.395   .     A
C784   H807    1.084   .     S
C785   C801    1.398   .     A
C785   C802    1.395   .     A
C785   C794    1.418   .     S
C786   C800    1.398   .     A
C787   N814    1.385   .     A
C787   C793    1.472   .     S
C788   N813    1.385   .     A
C788   C795    1.472   .     S
C788   C1204   1.417   .     S
C789   H808    1.083   .     S
C789   N813    1.357   .     A
C789   C1201   1.417   .     S
C790   N814    1.357   .     A
C790   H809    1.083   .     S
C791   H810    1.085   .     S
C791   C706    1.502   1_655 S
C791   O734    1.222   1_655 S
C792   H811    1.085   .     S
C793   O817    1.218   .     D
C793   H812    1.085   .     S
C794   O821    1.286   .     A
C794   O819    1.290   .     A
C795   H804    1.085   .     S
C795   O818    1.218   .     D
C796   O824    1.286   .     A
C796   C798    1.405   .     S
C796   O822    1.278   .     A
C797   O825    1.286   .     A
C797   O823    1.278   .     A
C797   C799    1.405   .     S
C799   C706    1.352   1_655 S
C799   C700    1.502   1_655 S
C800   H803    1.084   .     S
C801   H805    1.084   .     S
C801   C508    1.370   1_565 S
C802   H806    1.084   .     S
C802   C524    1.370   1_565 S
N813   Zn827   2.023   .     S
N814   Zn828   2.023   .     S
O815   Zn827   2.001   .     S
O816   C700    1.222   1_655 S
O819   Zn828   2.001   .     S
O820   Zn828   1.993   .     S
O821   Zn827   1.993   .     S
O822   Zn827   1.986   .     S
O823   Zn828   1.986   .     S
O824   Zn828   1.979   .     S
O825   Zn827   1.979   .     S
C829   C832    1.418   .     S
C829   O866    1.286   .     A
C829   O861    1.290   .     A
C830   C832    1.395   .     A
C830   H853    1.084   .     S
C830   C1123   1.370   1_545 S
C831   C847    1.398   .     A
C831   C848    1.395   .     A
C831   C840    1.418   .     S
C832   C846    1.398   .     A
C833   N860    1.385   .     A
C833   C839    1.472   .     S
C834   N859    1.385   .     A
C834   C841    1.472   .     S
C834   C8      1.417   1_556 S
C835   H854    1.083   .     S
C835   N859    1.357   .     A
C835   C5      1.417   1_556 S
C836   N860    1.357   .     A
C836   H855    1.083   .     S
C837   H856    1.085   .     S
C837   C890    1.502   .     S
C837   O918    1.222   .     S
C838   H857    1.085   .     S
C838   C937    1.502   1_455 S
C838   O954    1.222   1_455 S
C839   O863    1.218   .     D
C839   H858    1.085   .     S
C840   O867    1.286   .     A
C840   O865    1.290   .     A
C841   H850    1.085   .     S
C841   O864    1.218   .     D
C842   O870    1.286   .     A
C842   C844    1.405   .     S
C842   O868    1.278   .     A
C843   O871    1.286   .     A
C843   O869    1.278   .     A
C843   C845    1.405   .     S
C844   C929    1.502   1_455 S
C844   C937    1.352   1_455 S
C845   C890    1.352   .     S
C845   C884    1.502   .     S
C846   H849    1.084   .     S
C846   C1124   1.370   1_545 S
C847   H851    1.084   .     S
C847   C968    1.370   .     S
C848   H852    1.084   .     S
C848   C984    1.370   .     S
N859   Zn873   2.023   .     S
N860   Zn874   2.023   .     S
O861   Zn873   2.001   .     S
O862   C884    1.222   .     S
O865   Zn874   2.001   .     S
O866   Zn874   1.993   .     S
O867   Zn873   1.993   .     S
O868   Zn873   1.986   .     S
O869   Zn874   1.986   .     S
O870   Zn874   1.979   .     S
O871   Zn873   1.979   .     S
O872   C929    1.222   1_455 S
C875   C878    1.418   .     S
C875   O912    1.286   .     A
C875   O907    1.290   .     A
C876   C878    1.395   .     A
C876   H899    1.084   .     S
C876   C1169   1.370   1_545 S
C877   C893    1.398   .     A
C877   C894    1.395   .     A
C877   C886    1.418   .     S
C878   C892    1.398   .     A
C879   N906    1.385   .     A
C879   C885    1.472   .     S
C880   N905    1.385   .     A
C880   C887    1.472   .     S
C880   C54     1.417   1_556 S
C881   H900    1.083   .     S
C881   N905    1.357   .     A
C881   C51     1.417   1_556 S
C882   N906    1.357   .     A
C882   H901    1.083   .     S
C883   H902    1.085   .     S
C883   C936    1.502   .     S
C883   O964    1.222   .     S
C884   H903    1.085   .     S
C885   O909    1.218   .     D
C885   H904    1.085   .     S
C886   O913    1.286   .     A
C886   O911    1.290   .     A
C887   H896    1.085   .     S
C887   O910    1.218   .     D
C888   O916    1.286   .     A
C888   C890    1.405   .     S
C888   O914    1.278   .     A
C889   O917    1.286   .     A
C889   O915    1.278   .     A
C889   C891    1.405   .     S
C891   C936    1.352   .     S
C891   C930    1.502   .     S
C892   H895    1.084   .     S
C892   C1170   1.370   1_545 S
C893   H897    1.084   .     S
C893   C1014   1.370   .     S
C894   H898    1.084   .     S
C894   C1030   1.370   .     S
N905   Zn919   2.023   .     S
N906   Zn920   2.023   .     S
O907   Zn919   2.001   .     S
O908   C930    1.222   .     S
O911   Zn920   2.001   .     S
O912   Zn920   1.993   .     S
O913   Zn919   1.993   .     S
O914   Zn919   1.986   .     S
O915   Zn920   1.986   .     S
O916   Zn920   1.979   .     S
O917   Zn919   1.979   .     S
C921   C924    1.418   .     S
C921   O958    1.286   .     A
C921   O953    1.290   .     A
C922   C924    1.395   .     A
C922   H945    1.084   .     S
C922   C1215   1.370   1_545 S
C923   C939    1.398   .     A
C923   C940    1.395   .     A
C923   C932    1.418   .     S
C924   C938    1.398   .     A
C925   N952    1.385   .     A
C925   C931    1.472   .     S
C926   N951    1.385   .     A
C926   C933    1.472   .     S
C926   C100    1.417   1_556 S
C927   H946    1.083   .     S
C927   N951    1.357   .     A
C927   C97     1.417   1_556 S
C928   N952    1.357   .     A
C928   H947    1.083   .     S
C929   H948    1.085   .     S
C929   C844    1.502   1_655 S
C929   O872    1.222   1_655 S
C930   H949    1.085   .     S
C931   O955    1.218   .     D
C931   H950    1.085   .     S
C932   O959    1.286   .     A
C932   O957    1.290   .     A
C933   H942    1.085   .     S
C933   O956    1.218   .     D
C934   O962    1.286   .     A
C934   C936    1.405   .     S
C934   O960    1.278   .     A
C935   O963    1.286   .     A
C935   O961    1.278   .     A
C935   C937    1.405   .     S
C937   C844    1.352   1_655 S
C937   C838    1.502   1_655 S
C938   H941    1.084   .     S
C938   C1216   1.370   1_545 S
C939   H943    1.084   .     S
C939   C1060   1.370   .     S
C940   H944    1.084   .     S
C940   C1076   1.370   .     S
N951   Zn965   2.023   .     S
N952   Zn966   2.023   .     S
O953   Zn965   2.001   .     S
O954   C838    1.222   1_655 S
O957   Zn966   2.001   .     S
O958   Zn966   1.993   .     S
O959   Zn965   1.993   .     S
O960   Zn965   1.986   .     S
O961   Zn966   1.986   .     S
O962   Zn966   1.979   .     S
O963   Zn965   1.979   .     S
C967   C970    1.418   .     S
C967   O1004   1.286   .     A
C967   O999    1.290   .     A
C968   C970    1.395   .     A
C968   H991    1.084   .     S
C969   C985    1.398   .     A
C969   C986    1.395   .     A
C969   C978    1.418   .     S
C970   C984    1.398   .     A
C971   N998    1.385   .     A
C971   C977    1.472   .     S
C972   N997    1.385   .     A
C972   C979    1.472   .     S
C972   C146    1.417   1_556 S
C973   H992    1.083   .     S
C973   N997    1.357   .     A
C973   C143    1.417   1_556 S
C974   N998    1.357   .     A
C974   H993    1.083   .     S
C975   H994    1.085   .     S
C975   C1028   1.502   .     S
C975   O1056   1.222   .     S
C976   H995    1.085   .     S
C976   C1075   1.502   1_455 S
C976   O1092   1.222   1_455 S
C977   O1001   1.218   .     D
C977   H996    1.085   .     S
C978   O1005   1.286   .     A
C978   O1003   1.290   .     A
C979   H988    1.085   .     S
C979   O1002   1.218   .     D
C980   O1008   1.286   .     A
C980   C982    1.405   .     S
C980   O1006   1.278   .     A
C981   O1009   1.286   .     A
C981   O1007   1.278   .     A
C981   C983    1.405   .     S
C982   C1067   1.502   1_455 S
C982   C1075   1.352   1_455 S
C983   C1028   1.352   .     S
C983   C1022   1.502   .     S
C984   H987    1.084   .     S
C985   H989    1.084   .     S
C985   C1106   1.370   .     S
C986   H990    1.084   .     S
C986   C1122   1.370   .     S
N997   Zn1011  2.023   .     S
N998   Zn1012  2.023   .     S
O999   Zn1011  2.001   .     S
O1000  C1022   1.222   .     S
O1003  Zn1012  2.001   .     S
O1004  Zn1012  1.993   .     S
O1005  Zn1011  1.993   .     S
O1006  Zn1011  1.986   .     S
O1007  Zn1012  1.986   .     S
O1008  Zn1012  1.979   .     S
O1009  Zn1011  1.979   .     S
O1010  C1067   1.222   1_455 S
C1013  C1016   1.418   .     S
C1013  O1050   1.286   .     A
C1013  O1045   1.290   .     A
C1014  C1016   1.395   .     A
C1014  H1037   1.084   .     S
C1015  C1031   1.398   .     A
C1015  C1032   1.395   .     A
C1015  C1024   1.418   .     S
C1016  C1030   1.398   .     A
C1017  N1044   1.385   .     A
C1017  C1023   1.472   .     S
C1018  N1043   1.385   .     A
C1018  C1025   1.472   .     S
C1018  C192    1.417   1_556 S
C1019  H1038   1.083   .     S
C1019  N1043   1.357   .     A
C1019  C189    1.417   1_556 S
C1020  N1044   1.357   .     A
C1020  H1039   1.083   .     S
C1021  H1040   1.085   .     S
C1021  C1074   1.502   .     S
C1021  O1102   1.222   .     S
C1022  H1041   1.085   .     S
C1023  O1047   1.218   .     D
C1023  H1042   1.085   .     S
C1024  O1051   1.286   .     A
C1024  O1049   1.290   .     A
C1025  H1034   1.085   .     S
C1025  O1048   1.218   .     D
C1026  O1054   1.286   .     A
C1026  C1028   1.405   .     S
C1026  O1052   1.278   .     A
C1027  O1055   1.286   .     A
C1027  O1053   1.278   .     A
C1027  C1029   1.405   .     S
C1029  C1074   1.352   .     S
C1029  C1068   1.502   .     S
C1030  H1033   1.084   .     S
C1031  H1035   1.084   .     S
C1031  C1152   1.370   .     S
C1032  H1036   1.084   .     S
C1032  C1168   1.370   .     S
N1043  Zn1057  2.023   .     S
N1044  Zn1058  2.023   .     S
O1045  Zn1057  2.001   .     S
O1046  C1068   1.222   .     S
O1049  Zn1058  2.001   .     S
O1050  Zn1058  1.993   .     S
O1051  Zn1057  1.993   .     S
O1052  Zn1057  1.986   .     S
O1053  Zn1058  1.986   .     S
O1054  Zn1058  1.979   .     S
O1055  Zn1057  1.979   .     S
C1059  C1062   1.418   .     S
C1059  O1096   1.286   .     A
C1059  O1091   1.290   .     A
C1060  C1062   1.395   .     A
C1060  H1083   1.084   .     S
C1061  C1077   1.398   .     A
C1061  C1078   1.395   .     A
C1061  C1070   1.418   .     S
C1062  C1076   1.398   .     A
C1063  N1090   1.385   .     A
C1063  C1069   1.472   .     S
C1064  N1089   1.385   .     A
C1064  C1071   1.472   .     S
C1064  C238    1.417   1_556 S
C1065  H1084   1.083   .     S
C1065  N1089   1.357   .     A
C1065  C235    1.417   1_556 S
C1066  N1090   1.357   .     A
C1066  H1085   1.083   .     S
C1067  H1086   1.085   .     S
C1067  C982    1.502   1_655 S
C1067  O1010   1.222   1_655 S
C1068  H1087   1.085   .     S
C1069  O1093   1.218   .     D
C1069  H1088   1.085   .     S
C1070  O1097   1.286   .     A
C1070  O1095   1.290   .     A
C1071  H1080   1.085   .     S
C1071  O1094   1.218   .     D
C1072  O1100   1.286   .     A
C1072  C1074   1.405   .     S
C1072  O1098   1.278   .     A
C1073  O1101   1.286   .     A
C1073  O1099   1.278   .     A
C1073  C1075   1.405   .     S
C1075  C982    1.352   1_655 S
C1075  C976    1.502   1_655 S
C1076  H1079   1.084   .     S
C1077  H1081   1.084   .     S
C1077  C1198   1.370   .     S
C1078  H1082   1.084   .     S
C1078  C1214   1.370   .     S
N1089  Zn1103  2.023   .     S
N1090  Zn1104  2.023   .     S
O1091  Zn1103  2.001   .     S
O1092  C976    1.222   1_655 S
O1095  Zn1104  2.001   .     S
O1096  Zn1104  1.993   .     S
O1097  Zn1103  1.993   .     S
O1098  Zn1103  1.986   .     S
O1099  Zn1104  1.986   .     S
O1100  Zn1104  1.979   .     S
O1101  Zn1103  1.979   .     S
C1105  C1108   1.418   .     S
C1105  O1142   1.286   .     A
C1105  O1137   1.290   .     A
C1106  C1108   1.395   .     A
C1106  H1129   1.084   .     S
C1107  C1123   1.398   .     A
C1107  C1124   1.395   .     A
C1107  C1116   1.418   .     S
C1108  C1122   1.398   .     A
C1109  N1136   1.385   .     A
C1109  C1115   1.472   .     S
C1110  N1135   1.385   .     A
C1110  C1117   1.472   .     S
C1110  C284    1.417   1_556 S
C1111  H1130   1.083   .     S
C1111  N1135   1.357   .     A
C1111  C281    1.417   1_556 S
C1112  N1136   1.357   .     A
C1112  H1131   1.083   .     S
C1113  H1132   1.085   .     S
C1113  C1166   1.502   .     S
C1113  O1194   1.222   .     S
C1114  H1133   1.085   .     S
C1114  C1213   1.502   1_455 S
C1114  O1230   1.222   1_455 S
C1115  O1139   1.218   .     D
C1115  H1134   1.085   .     S
C1116  O1143   1.286   .     A
C1116  O1141   1.290   .     A
C1117  H1126   1.085   .     S
C1117  O1140   1.218   .     D
C1118  O1146   1.286   .     A
C1118  C1120   1.405   .     S
C1118  O1144   1.278   .     A
C1119  O1147   1.286   .     A
C1119  O1145   1.278   .     A
C1119  C1121   1.405   .     S
C1120  C1205   1.502   1_455 S
C1120  C1213   1.352   1_455 S
C1121  C1166   1.352   .     S
C1121  C1160   1.502   .     S
C1122  H1125   1.084   .     S
C1123  H1127   1.084   .     S
C1123  C830    1.370   1_565 S
C1124  H1128   1.084   .     S
C1124  C846    1.370   1_565 S
N1135  Zn1149  2.023   .     S
N1136  Zn1150  2.023   .     S
O1137  Zn1149  2.001   .     S
O1138  C1160   1.222   .     S
O1141  Zn1150  2.001   .     S
O1142  Zn1150  1.993   .     S
O1143  Zn1149  1.993   .     S
O1144  Zn1149  1.986   .     S
O1145  Zn1150  1.986   .     S
O1146  Zn1150  1.979   .     S
O1147  Zn1149  1.979   .     S
O1148  C1205   1.222   1_455 S
C1151  C1154   1.418   .     S
C1151  O1188   1.286   .     A
C1151  O1183   1.290   .     A
C1152  C1154   1.395   .     A
C1152  H1175   1.084   .     S
C1153  C1169   1.398   .     A
C1153  C1170   1.395   .     A
C1153  C1162   1.418   .     S
C1154  C1168   1.398   .     A
C1155  N1182   1.385   .     A
C1155  C1161   1.472   .     S
C1156  N1181   1.385   .     A
C1156  C1163   1.472   .     S
C1156  C330    1.417   1_556 S
C1157  H1176   1.083   .     S
C1157  N1181   1.357   .     A
C1157  C327    1.417   1_556 S
C1158  N1182   1.357   .     A
C1158  H1177   1.083   .     S
C1159  H1178   1.085   .     S
C1159  C1212   1.502   .     S
C1159  O1240   1.222   .     S
C1160  H1179   1.085   .     S
C1161  O1185   1.218   .     D
C1161  H1180   1.085   .     S
C1162  O1189   1.286   .     A
C1162  O1187   1.290   .     A
C1163  H1172   1.085   .     S
C1163  O1186   1.218   .     D
C1164  O1192   1.286   .     A
C1164  C1166   1.405   .     S
C1164  O1190   1.278   .     A
C1165  O1193   1.286   .     A
C1165  O1191   1.278   .     A
C1165  C1167   1.405   .     S
C1167  C1212   1.352   .     S
C1167  C1206   1.502   .     S
C1168  H1171   1.084   .     S
C1169  H1173   1.084   .     S
C1169  C876    1.370   1_565 S
C1170  H1174   1.084   .     S
C1170  C892    1.370   1_565 S
N1181  Zn1195  2.023   .     S
N1182  Zn1196  2.023   .     S
O1183  Zn1195  2.001   .     S
O1184  C1206   1.222   .     S
O1187  Zn1196  2.001   .     S
O1188  Zn1196  1.993   .     S
O1189  Zn1195  1.993   .     S
O1190  Zn1195  1.986   .     S
O1191  Zn1196  1.986   .     S
O1192  Zn1196  1.979   .     S
O1193  Zn1195  1.979   .     S
C1197  C1200   1.418   .     S
C1197  O1234   1.286   .     A
C1197  O1229   1.290   .     A
C1198  C1200   1.395   .     A
C1198  H1221   1.084   .     S
C1199  C1215   1.398   .     A
C1199  C1216   1.395   .     A
C1199  C1208   1.418   .     S
C1200  C1214   1.398   .     A
C1201  N1228   1.385   .     A
C1201  C1207   1.472   .     S
C1202  N1227   1.385   .     A
C1202  C1209   1.472   .     S
C1202  C376    1.417   1_556 S
C1203  H1222   1.083   .     S
C1203  N1227   1.357   .     A
C1203  C373    1.417   1_556 S
C1204  N1228   1.357   .     A
C1204  H1223   1.083   .     S
C1205  H1224   1.085   .     S
C1205  C1120   1.502   1_655 S
C1205  O1148   1.222   1_655 S
C1206  H1225   1.085   .     S
C1207  O1231   1.218   .     D
C1207  H1226   1.085   .     S
C1208  O1235   1.286   .     A
C1208  O1233   1.290   .     A
C1209  H1218   1.085   .     S
C1209  O1232   1.218   .     D
C1210  O1238   1.286   .     A
C1210  C1212   1.405   .     S
C1210  O1236   1.278   .     A
C1211  O1239   1.286   .     A
C1211  O1237   1.278   .     A
C1211  C1213   1.405   .     S
C1213  C1120   1.352   1_655 S
C1213  C1114   1.502   1_655 S
C1214  H1217   1.084   .     S
C1215  H1219   1.084   .     S
C1215  C922    1.370   1_565 S
C1216  H1220   1.084   .     S
C1216  C938    1.370   1_565 S
N1227  Zn1241  2.023   .     S
N1228  Zn1242  2.023   .     S
O1229  Zn1241  2.001   .     S
O1230  C1114   1.222   1_655 S
O1233  Zn1242  2.001   .     S
O1234  Zn1242  1.993   .     S
O1235  Zn1241  1.993   .     S
O1236  Zn1241  1.986   .     S
O1237  Zn1242  1.986   .     S
O1238  Zn1242  1.979   .     S
O1239  Zn1241  1.979   .     S
