data_str_m2_o10_o18_pcu_sym.158
_audit_creation_date              2020-01-03
_audit_creation_method            'Materials Studio'
_symmetry_space_group_name_H-M    'P1'
_symmetry_Int_Tables_number       1
_symmetry_cell_setting            triclinic
loop_
_symmetry_equiv_pos_as_xyz
  x,y,z
_cell_length_a                    22.2695
_cell_length_b                    26.3111
_cell_length_c                    31.6520
_cell_angle_alpha                 94.3253
_cell_angle_beta                  75.0616
_cell_angle_gamma                 102.8704
loop_
_atom_site_label
_atom_site_type_symbol
_atom_site_fract_x
_atom_site_fract_y
_atom_site_fract_z
_atom_site_U_iso_or_equiv
_atom_site_adp_type
_atom_site_occupancy
C1     C     0.18089   0.26642   0.25213   0.00000  Uiso   1.00
C2     C     0.15244   0.06691   0.24788   0.00000  Uiso   1.00
C3     C     0.09581   0.12482   0.03768   0.00000  Uiso   1.00
C4     C     0.24181   0.19403   0.45944   0.00000  Uiso   1.00
C5     C     0.05298   0.11200   0.01165   0.00000  Uiso   1.00
C6     C     0.28496   0.20587   0.48528   0.00000  Uiso   1.00
C7     C     0.18486   0.32139   0.25840   0.00000  Uiso   1.00
C8     C     0.14846   0.01194   0.24163   0.00000  Uiso   1.00
C9     C     0.12799   0.16263   0.33311   0.00000  Uiso   1.00
C10    C     0.20532   0.17036   0.16685   0.00000  Uiso   1.00
C11    C     0.10459   0.15535   0.38048   0.00000  Uiso   1.00
C12    C     0.22872   0.17474   0.11916   0.00000  Uiso   1.00
C13    C     0.02606   0.11402   0.44275   0.00000  Uiso   1.00
C14    C     0.31062   0.20671   0.05493   0.00000  Uiso   1.00
C15    C     0.04314   0.12765   0.39893   0.00000  Uiso   1.00
C16    C     0.29209   0.19705   0.09959   0.00000  Uiso   1.00
C17    C     0.14771   0.17129   0.40658   0.00000  Uiso   1.00
C18    C     0.18502   0.15966   0.09334   0.00000  Uiso   1.00
C19    C     0.13264   0.15647   0.45047   0.00000  Uiso   1.00
C20    C     0.20260   0.16814   0.04806   0.00000  Uiso   1.00
C21    C     0.07036   0.12766   0.46844   0.00000  Uiso   1.00
C22    C     0.26624   0.19343   0.02930   0.00000  Uiso   1.00
C23    C     0.17773   0.16863   0.47664   0.00000  Uiso   1.00
C24    C     0.15838   0.15390   0.02136   0.00000  Uiso   1.00
Cu25   Cu    0.10737   0.16108   0.24516   0.00000  Uiso   1.00
Cu26   Cu    0.22596   0.17225   0.25483   0.00000  Uiso   1.00
H27    H     0.00564   0.08959   0.02557   0.00000  Uiso   1.00
H28    H     0.00024   0.22510   0.47059   0.00000  Uiso   1.00
H29    H     0.32660   0.20886   0.11901   0.00000  Uiso   1.00
H30    H     0.00919   0.11495   0.37918   0.00000  Uiso   1.00
H31    H     0.31179   0.09199   0.45644   0.00000  Uiso   1.00
H32    H     0.02620   0.22538   0.04049   0.00000  Uiso   1.00
H33    H     0.07837   0.10998   0.07033   0.00000  Uiso   1.00
H34    H     0.26113   0.20459   0.42571   0.00000  Uiso   1.00
N35    N     0.31506   0.18068   0.26212   0.00000  Uiso   1.00
N36    N     0.01827   0.15265   0.23788   0.00000  Uiso   1.00
O37    O     0.12815   0.23809   0.24686   0.00000  Uiso   1.00
O38    O     0.20518   0.09524   0.25314   0.00000  Uiso   1.00
O39    O     0.22829   0.24753   0.25502   0.00000  Uiso   1.00
O40    O     0.10504   0.08580   0.24497   0.00000  Uiso   1.00
O41    O     0.08851   0.15930   0.30854   0.00000  Uiso   1.00
O42    O     0.24482   0.17403   0.19145   0.00000  Uiso   1.00
O43    O     0.18866   0.16874   0.31671   0.00000  Uiso   1.00
O44    O     0.14468   0.16460   0.18329   0.00000  Uiso   1.00
H45    H     0.13674   0.14314   0.10987   0.00000  Uiso   1.00
H46    H     0.19325   0.19467   0.39128   0.00000  Uiso   1.00
C47    C     0.22466   0.01403   0.28699   0.00000  Uiso   1.00
N48    N     0.25634   0.03452   0.30974   0.00000  Uiso   1.00
C49    C     0.10863   0.31930   0.21305   0.00000  Uiso   1.00
N50    N     0.07693   0.29881   0.19032   0.00000  Uiso   1.00
H51    H     0.00146   0.20501   0.28424   0.00000  Uiso   1.00
H52    H     0.33187   0.12832   0.21576   0.00000  Uiso   1.00
C53    C     0.51422   0.26642   0.25213   0.00000  Uiso   1.00
C54    C     0.48577   0.06691   0.24788   0.00000  Uiso   1.00
C55    C     0.42914   0.12482   0.03768   0.00000  Uiso   1.00
C56    C     0.57514   0.19403   0.45944   0.00000  Uiso   1.00
C57    C     0.38631   0.11200   0.01165   0.00000  Uiso   1.00
C58    C     0.61829   0.20587   0.48528   0.00000  Uiso   1.00
C59    C     0.51819   0.32139   0.25840   0.00000  Uiso   1.00
C60    C     0.48179   0.01194   0.24163   0.00000  Uiso   1.00
C61    C     0.46132   0.16263   0.33311   0.00000  Uiso   1.00
C62    C     0.53866   0.17036   0.16685   0.00000  Uiso   1.00
C63    C     0.43793   0.15535   0.38048   0.00000  Uiso   1.00
C64    C     0.56205   0.17474   0.11916   0.00000  Uiso   1.00
C65    C     0.35940   0.11402   0.44275   0.00000  Uiso   1.00
C66    C     0.64396   0.20671   0.05493   0.00000  Uiso   1.00
C67    C     0.37647   0.12765   0.39893   0.00000  Uiso   1.00
C68    C     0.62542   0.19705   0.09959   0.00000  Uiso   1.00
C69    C     0.48104   0.17129   0.40658   0.00000  Uiso   1.00
C70    C     0.51835   0.15966   0.09334   0.00000  Uiso   1.00
C71    C     0.46597   0.15647   0.45047   0.00000  Uiso   1.00
C72    C     0.53594   0.16814   0.04806   0.00000  Uiso   1.00
C73    C     0.40369   0.12766   0.46844   0.00000  Uiso   1.00
C74    C     0.59958   0.19343   0.02930   0.00000  Uiso   1.00
C75    C     0.51106   0.16863   0.47664   0.00000  Uiso   1.00
C76    C     0.49172   0.15390   0.02136   0.00000  Uiso   1.00
Cu77   Cu    0.44071   0.16108   0.24516   0.00000  Uiso   1.00
Cu78   Cu    0.55929   0.17225   0.25483   0.00000  Uiso   1.00
H79    H     0.33897   0.08959   0.02557   0.00000  Uiso   1.00
H80    H     0.33358   0.22510   0.47059   0.00000  Uiso   1.00
H81    H     0.65993   0.20886   0.11901   0.00000  Uiso   1.00
H82    H     0.34252   0.11495   0.37918   0.00000  Uiso   1.00
H83    H     0.64512   0.09199   0.45644   0.00000  Uiso   1.00
H84    H     0.35953   0.22538   0.04049   0.00000  Uiso   1.00
H85    H     0.41170   0.10998   0.07033   0.00000  Uiso   1.00
H86    H     0.59447   0.20459   0.42571   0.00000  Uiso   1.00
N87    N     0.64839   0.18068   0.26212   0.00000  Uiso   1.00
N88    N     0.35161   0.15265   0.23788   0.00000  Uiso   1.00
O89    O     0.46148   0.23809   0.24686   0.00000  Uiso   1.00
O90    O     0.53852   0.09524   0.25314   0.00000  Uiso   1.00
O91    O     0.56163   0.24753   0.25502   0.00000  Uiso   1.00
O92    O     0.43837   0.08580   0.24497   0.00000  Uiso   1.00
O93    O     0.42185   0.15930   0.30854   0.00000  Uiso   1.00
O94    O     0.57815   0.17403   0.19145   0.00000  Uiso   1.00
O95    O     0.52199   0.16874   0.31671   0.00000  Uiso   1.00
O96    O     0.47801   0.16460   0.18329   0.00000  Uiso   1.00
H97    H     0.47007   0.14314   0.10987   0.00000  Uiso   1.00
H98    H     0.52659   0.19467   0.39128   0.00000  Uiso   1.00
C99    C     0.55800   0.01403   0.28699   0.00000  Uiso   1.00
N100   N     0.58967   0.03452   0.30974   0.00000  Uiso   1.00
C101   C     0.44196   0.31930   0.21305   0.00000  Uiso   1.00
N102   N     0.41027   0.29881   0.19032   0.00000  Uiso   1.00
H103   H     0.33480   0.20501   0.28424   0.00000  Uiso   1.00
H104   H     0.66520   0.12832   0.21576   0.00000  Uiso   1.00
C105   C     0.84755   0.26642   0.25213   0.00000  Uiso   1.00
C106   C     0.81911   0.06691   0.24788   0.00000  Uiso   1.00
C107   C     0.76248   0.12482   0.03768   0.00000  Uiso   1.00
C108   C     0.90847   0.19403   0.45944   0.00000  Uiso   1.00
C109   C     0.71964   0.11200   0.01165   0.00000  Uiso   1.00
C110   C     0.95163   0.20587   0.48528   0.00000  Uiso   1.00
C111   C     0.85153   0.32139   0.25840   0.00000  Uiso   1.00
C112   C     0.81512   0.01194   0.24163   0.00000  Uiso   1.00
C113   C     0.79465   0.16263   0.33311   0.00000  Uiso   1.00
C114   C     0.87199   0.17036   0.16685   0.00000  Uiso   1.00
C115   C     0.77126   0.15535   0.38048   0.00000  Uiso   1.00
C116   C     0.89539   0.17474   0.11916   0.00000  Uiso   1.00
C117   C     0.69273   0.11402   0.44275   0.00000  Uiso   1.00
C118   C     0.97729   0.20671   0.05493   0.00000  Uiso   1.00
C119   C     0.70981   0.12765   0.39893   0.00000  Uiso   1.00
C120   C     0.95875   0.19705   0.09959   0.00000  Uiso   1.00
C121   C     0.81438   0.17129   0.40658   0.00000  Uiso   1.00
C122   C     0.85168   0.15966   0.09334   0.00000  Uiso   1.00
C123   C     0.79931   0.15647   0.45047   0.00000  Uiso   1.00
C124   C     0.86927   0.16814   0.04806   0.00000  Uiso   1.00
C125   C     0.73703   0.12766   0.46844   0.00000  Uiso   1.00
C126   C     0.93291   0.19343   0.02930   0.00000  Uiso   1.00
C127   C     0.84440   0.16863   0.47664   0.00000  Uiso   1.00
C128   C     0.82505   0.15390   0.02136   0.00000  Uiso   1.00
Cu129  Cu    0.77404   0.16108   0.24516   0.00000  Uiso   1.00
Cu130  Cu    0.89263   0.17225   0.25483   0.00000  Uiso   1.00
H131   H     0.67230   0.08959   0.02557   0.00000  Uiso   1.00
H132   H     0.66691   0.22510   0.47059   0.00000  Uiso   1.00
H133   H     0.99326   0.20886   0.11901   0.00000  Uiso   1.00
H134   H     0.67586   0.11495   0.37918   0.00000  Uiso   1.00
H135   H     0.97845   0.09199   0.45644   0.00000  Uiso   1.00
H136   H     0.69286   0.22538   0.04049   0.00000  Uiso   1.00
H137   H     0.74504   0.10998   0.07033   0.00000  Uiso   1.00
H138   H     0.92780   0.20459   0.42571   0.00000  Uiso   1.00
N139   N     0.98173   0.18068   0.26212   0.00000  Uiso   1.00
N140   N     0.68494   0.15265   0.23788   0.00000  Uiso   1.00
O141   O     0.79482   0.23809   0.24686   0.00000  Uiso   1.00
O142   O     0.87185   0.09524   0.25314   0.00000  Uiso   1.00
O143   O     0.89496   0.24753   0.25502   0.00000  Uiso   1.00
O144   O     0.77171   0.08580   0.24497   0.00000  Uiso   1.00
O145   O     0.75518   0.15930   0.30854   0.00000  Uiso   1.00
O146   O     0.91149   0.17403   0.19145   0.00000  Uiso   1.00
O147   O     0.85532   0.16874   0.31671   0.00000  Uiso   1.00
O148   O     0.81134   0.16460   0.18329   0.00000  Uiso   1.00
H149   H     0.80341   0.14314   0.10987   0.00000  Uiso   1.00
H150   H     0.85992   0.19467   0.39128   0.00000  Uiso   1.00
C151   C     0.89133   0.01403   0.28699   0.00000  Uiso   1.00
N152   N     0.92301   0.03452   0.30974   0.00000  Uiso   1.00
C153   C     0.77530   0.31930   0.21305   0.00000  Uiso   1.00
N154   N     0.74360   0.29881   0.19032   0.00000  Uiso   1.00
H155   H     0.66813   0.20501   0.28424   0.00000  Uiso   1.00
H156   H     0.99854   0.12832   0.21576   0.00000  Uiso   1.00
C157   C     0.18089   0.59975   0.25213   0.00000  Uiso   1.00
C158   C     0.15244   0.40025   0.24788   0.00000  Uiso   1.00
C159   C     0.09581   0.45815   0.03768   0.00000  Uiso   1.00
C160   C     0.24181   0.52736   0.45944   0.00000  Uiso   1.00
C161   C     0.05298   0.44534   0.01165   0.00000  Uiso   1.00
C162   C     0.28496   0.53920   0.48528   0.00000  Uiso   1.00
C163   C     0.18486   0.65472   0.25840   0.00000  Uiso   1.00
C164   C     0.14846   0.34528   0.24163   0.00000  Uiso   1.00
C165   C     0.12799   0.49596   0.33311   0.00000  Uiso   1.00
C166   C     0.20532   0.50369   0.16685   0.00000  Uiso   1.00
C167   C     0.10459   0.48869   0.38048   0.00000  Uiso   1.00
C168   C     0.22872   0.50807   0.11916   0.00000  Uiso   1.00
C169   C     0.02606   0.44736   0.44275   0.00000  Uiso   1.00
C170   C     0.31062   0.54004   0.05493   0.00000  Uiso   1.00
C171   C     0.04314   0.46098   0.39893   0.00000  Uiso   1.00
C172   C     0.29209   0.53038   0.09959   0.00000  Uiso   1.00
C173   C     0.14771   0.50463   0.40658   0.00000  Uiso   1.00
C174   C     0.18502   0.49299   0.09334   0.00000  Uiso   1.00
C175   C     0.13264   0.48980   0.45047   0.00000  Uiso   1.00
C176   C     0.20260   0.50147   0.04806   0.00000  Uiso   1.00
C177   C     0.07036   0.46099   0.46844   0.00000  Uiso   1.00
C178   C     0.26624   0.52676   0.02930   0.00000  Uiso   1.00
C179   C     0.17773   0.50196   0.47664   0.00000  Uiso   1.00
C180   C     0.15838   0.48723   0.02136   0.00000  Uiso   1.00
Cu181  Cu    0.10737   0.49441   0.24516   0.00000  Uiso   1.00
Cu182  Cu    0.22596   0.50559   0.25483   0.00000  Uiso   1.00
H183   H     0.00564   0.42293   0.02557   0.00000  Uiso   1.00
H184   H     0.00024   0.55843   0.47059   0.00000  Uiso   1.00
H185   H     0.32660   0.54220   0.11901   0.00000  Uiso   1.00
H186   H     0.00919   0.44829   0.37918   0.00000  Uiso   1.00
H187   H     0.31179   0.42532   0.45644   0.00000  Uiso   1.00
H188   H     0.02620   0.55871   0.04049   0.00000  Uiso   1.00
H189   H     0.07837   0.44331   0.07033   0.00000  Uiso   1.00
H190   H     0.26113   0.53793   0.42571   0.00000  Uiso   1.00
N191   N     0.31506   0.51401   0.26212   0.00000  Uiso   1.00
N192   N     0.01827   0.48599   0.23788   0.00000  Uiso   1.00
O193   O     0.12815   0.57142   0.24686   0.00000  Uiso   1.00
O194   O     0.20518   0.42858   0.25314   0.00000  Uiso   1.00
O195   O     0.22829   0.58086   0.25502   0.00000  Uiso   1.00
O196   O     0.10504   0.41914   0.24497   0.00000  Uiso   1.00
O197   O     0.08851   0.49263   0.30854   0.00000  Uiso   1.00
O198   O     0.24482   0.50737   0.19145   0.00000  Uiso   1.00
O199   O     0.18866   0.50207   0.31671   0.00000  Uiso   1.00
O200   O     0.14468   0.49793   0.18329   0.00000  Uiso   1.00
H201   H     0.13674   0.47648   0.10987   0.00000  Uiso   1.00
H202   H     0.19325   0.52800   0.39128   0.00000  Uiso   1.00
C203   C     0.22466   0.34736   0.28699   0.00000  Uiso   1.00
N204   N     0.25634   0.36786   0.30974   0.00000  Uiso   1.00
C205   C     0.10863   0.65264   0.21305   0.00000  Uiso   1.00
N206   N     0.07693   0.63214   0.19032   0.00000  Uiso   1.00
H207   H     0.00146   0.53834   0.28424   0.00000  Uiso   1.00
H208   H     0.33187   0.46166   0.21576   0.00000  Uiso   1.00
C209   C     0.51422   0.59975   0.25213   0.00000  Uiso   1.00
C210   C     0.48577   0.40025   0.24788   0.00000  Uiso   1.00
C211   C     0.42914   0.45815   0.03768   0.00000  Uiso   1.00
C212   C     0.57514   0.52736   0.45944   0.00000  Uiso   1.00
C213   C     0.38631   0.44534   0.01165   0.00000  Uiso   1.00
C214   C     0.61829   0.53920   0.48528   0.00000  Uiso   1.00
C215   C     0.51819   0.65472   0.25840   0.00000  Uiso   1.00
C216   C     0.48179   0.34528   0.24163   0.00000  Uiso   1.00
C217   C     0.46132   0.49596   0.33311   0.00000  Uiso   1.00
C218   C     0.53866   0.50369   0.16685   0.00000  Uiso   1.00
C219   C     0.43793   0.48869   0.38048   0.00000  Uiso   1.00
C220   C     0.56205   0.50807   0.11916   0.00000  Uiso   1.00
C221   C     0.35940   0.44736   0.44275   0.00000  Uiso   1.00
C222   C     0.64396   0.54004   0.05493   0.00000  Uiso   1.00
C223   C     0.37647   0.46098   0.39893   0.00000  Uiso   1.00
C224   C     0.62542   0.53038   0.09959   0.00000  Uiso   1.00
C225   C     0.48104   0.50463   0.40658   0.00000  Uiso   1.00
C226   C     0.51835   0.49299   0.09334   0.00000  Uiso   1.00
C227   C     0.46597   0.48980   0.45047   0.00000  Uiso   1.00
C228   C     0.53594   0.50147   0.04806   0.00000  Uiso   1.00
C229   C     0.40369   0.46099   0.46844   0.00000  Uiso   1.00
C230   C     0.59958   0.52676   0.02930   0.00000  Uiso   1.00
C231   C     0.51106   0.50196   0.47664   0.00000  Uiso   1.00
C232   C     0.49172   0.48723   0.02136   0.00000  Uiso   1.00
Cu233  Cu    0.44071   0.49441   0.24516   0.00000  Uiso   1.00
Cu234  Cu    0.55929   0.50559   0.25483   0.00000  Uiso   1.00
H235   H     0.33897   0.42293   0.02557   0.00000  Uiso   1.00
H236   H     0.33358   0.55843   0.47059   0.00000  Uiso   1.00
H237   H     0.65993   0.54220   0.11901   0.00000  Uiso   1.00
H238   H     0.34252   0.44829   0.37918   0.00000  Uiso   1.00
H239   H     0.64512   0.42532   0.45644   0.00000  Uiso   1.00
H240   H     0.35953   0.55871   0.04049   0.00000  Uiso   1.00
H241   H     0.41170   0.44331   0.07033   0.00000  Uiso   1.00
H242   H     0.59447   0.53793   0.42571   0.00000  Uiso   1.00
N243   N     0.64839   0.51401   0.26212   0.00000  Uiso   1.00
N244   N     0.35161   0.48599   0.23788   0.00000  Uiso   1.00
O245   O     0.46148   0.57142   0.24686   0.00000  Uiso   1.00
O246   O     0.53852   0.42858   0.25314   0.00000  Uiso   1.00
O247   O     0.56163   0.58086   0.25502   0.00000  Uiso   1.00
O248   O     0.43837   0.41914   0.24497   0.00000  Uiso   1.00
O249   O     0.42185   0.49263   0.30854   0.00000  Uiso   1.00
O250   O     0.57815   0.50737   0.19145   0.00000  Uiso   1.00
O251   O     0.52199   0.50207   0.31671   0.00000  Uiso   1.00
O252   O     0.47801   0.49793   0.18329   0.00000  Uiso   1.00
H253   H     0.47007   0.47648   0.10987   0.00000  Uiso   1.00
H254   H     0.52659   0.52800   0.39128   0.00000  Uiso   1.00
C255   C     0.55800   0.34736   0.28699   0.00000  Uiso   1.00
N256   N     0.58967   0.36786   0.30974   0.00000  Uiso   1.00
C257   C     0.44196   0.65264   0.21305   0.00000  Uiso   1.00
N258   N     0.41027   0.63214   0.19032   0.00000  Uiso   1.00
H259   H     0.33480   0.53834   0.28424   0.00000  Uiso   1.00
H260   H     0.66520   0.46166   0.21576   0.00000  Uiso   1.00
C261   C     0.84755   0.59975   0.25213   0.00000  Uiso   1.00
C262   C     0.81911   0.40025   0.24788   0.00000  Uiso   1.00
C263   C     0.76248   0.45815   0.03768   0.00000  Uiso   1.00
C264   C     0.90847   0.52736   0.45944   0.00000  Uiso   1.00
C265   C     0.71964   0.44534   0.01165   0.00000  Uiso   1.00
C266   C     0.95163   0.53920   0.48528   0.00000  Uiso   1.00
C267   C     0.85153   0.65472   0.25840   0.00000  Uiso   1.00
C268   C     0.81512   0.34528   0.24163   0.00000  Uiso   1.00
C269   C     0.79465   0.49596   0.33311   0.00000  Uiso   1.00
C270   C     0.87199   0.50369   0.16685   0.00000  Uiso   1.00
C271   C     0.77126   0.48869   0.38048   0.00000  Uiso   1.00
C272   C     0.89539   0.50807   0.11916   0.00000  Uiso   1.00
C273   C     0.69273   0.44736   0.44275   0.00000  Uiso   1.00
C274   C     0.97729   0.54004   0.05493   0.00000  Uiso   1.00
C275   C     0.70981   0.46098   0.39893   0.00000  Uiso   1.00
C276   C     0.95875   0.53038   0.09959   0.00000  Uiso   1.00
C277   C     0.81438   0.50463   0.40658   0.00000  Uiso   1.00
C278   C     0.85168   0.49299   0.09334   0.00000  Uiso   1.00
C279   C     0.79931   0.48980   0.45047   0.00000  Uiso   1.00
C280   C     0.86927   0.50147   0.04806   0.00000  Uiso   1.00
C281   C     0.73703   0.46099   0.46844   0.00000  Uiso   1.00
C282   C     0.93291   0.52676   0.02930   0.00000  Uiso   1.00
C283   C     0.84440   0.50196   0.47664   0.00000  Uiso   1.00
C284   C     0.82505   0.48723   0.02136   0.00000  Uiso   1.00
Cu285  Cu    0.77404   0.49441   0.24516   0.00000  Uiso   1.00
Cu286  Cu    0.89263   0.50559   0.25483   0.00000  Uiso   1.00
H287   H     0.67230   0.42293   0.02557   0.00000  Uiso   1.00
H288   H     0.66691   0.55843   0.47059   0.00000  Uiso   1.00
H289   H     0.99326   0.54220   0.11901   0.00000  Uiso   1.00
H290   H     0.67586   0.44829   0.37918   0.00000  Uiso   1.00
H291   H     0.97845   0.42532   0.45644   0.00000  Uiso   1.00
H292   H     0.69286   0.55871   0.04049   0.00000  Uiso   1.00
H293   H     0.74504   0.44331   0.07033   0.00000  Uiso   1.00
H294   H     0.92780   0.53793   0.42571   0.00000  Uiso   1.00
N295   N     0.98173   0.51401   0.26212   0.00000  Uiso   1.00
N296   N     0.68494   0.48599   0.23788   0.00000  Uiso   1.00
O297   O     0.79482   0.57142   0.24686   0.00000  Uiso   1.00
O298   O     0.87185   0.42858   0.25314   0.00000  Uiso   1.00
O299   O     0.89496   0.58086   0.25502   0.00000  Uiso   1.00
O300   O     0.77171   0.41914   0.24497   0.00000  Uiso   1.00
O301   O     0.75518   0.49263   0.30854   0.00000  Uiso   1.00
O302   O     0.91149   0.50737   0.19145   0.00000  Uiso   1.00
O303   O     0.85532   0.50207   0.31671   0.00000  Uiso   1.00
O304   O     0.81134   0.49793   0.18329   0.00000  Uiso   1.00
H305   H     0.80341   0.47648   0.10987   0.00000  Uiso   1.00
H306   H     0.85992   0.52800   0.39128   0.00000  Uiso   1.00
C307   C     0.89133   0.34736   0.28699   0.00000  Uiso   1.00
N308   N     0.92301   0.36786   0.30974   0.00000  Uiso   1.00
C309   C     0.77530   0.65264   0.21305   0.00000  Uiso   1.00
N310   N     0.74360   0.63214   0.19032   0.00000  Uiso   1.00
H311   H     0.66813   0.53834   0.28424   0.00000  Uiso   1.00
H312   H     0.99854   0.46166   0.21576   0.00000  Uiso   1.00
C313   C     0.18089   0.93309   0.25213   0.00000  Uiso   1.00
C314   C     0.15244   0.73358   0.24788   0.00000  Uiso   1.00
C315   C     0.09581   0.79149   0.03768   0.00000  Uiso   1.00
C316   C     0.24181   0.86069   0.45944   0.00000  Uiso   1.00
C317   C     0.05298   0.77867   0.01165   0.00000  Uiso   1.00
C318   C     0.28496   0.87253   0.48528   0.00000  Uiso   1.00
C319   C     0.18486   0.98806   0.25840   0.00000  Uiso   1.00
C320   C     0.14846   0.67861   0.24163   0.00000  Uiso   1.00
C321   C     0.12799   0.82929   0.33311   0.00000  Uiso   1.00
C322   C     0.20532   0.83703   0.16685   0.00000  Uiso   1.00
C323   C     0.10459   0.82202   0.38048   0.00000  Uiso   1.00
C324   C     0.22872   0.84141   0.11916   0.00000  Uiso   1.00
C325   C     0.02606   0.78069   0.44275   0.00000  Uiso   1.00
C326   C     0.31062   0.87337   0.05493   0.00000  Uiso   1.00
C327   C     0.04314   0.79432   0.39893   0.00000  Uiso   1.00
C328   C     0.29209   0.86372   0.09959   0.00000  Uiso   1.00
C329   C     0.14771   0.83796   0.40658   0.00000  Uiso   1.00
C330   C     0.18502   0.82632   0.09334   0.00000  Uiso   1.00
C331   C     0.13264   0.82313   0.45047   0.00000  Uiso   1.00
C332   C     0.20260   0.83480   0.04806   0.00000  Uiso   1.00
C333   C     0.07036   0.79433   0.46844   0.00000  Uiso   1.00
C334   C     0.26624   0.86010   0.02930   0.00000  Uiso   1.00
C335   C     0.17773   0.83530   0.47664   0.00000  Uiso   1.00
C336   C     0.15838   0.82057   0.02136   0.00000  Uiso   1.00
Cu337  Cu    0.10737   0.82775   0.24516   0.00000  Uiso   1.00
Cu338  Cu    0.22596   0.83892   0.25483   0.00000  Uiso   1.00
H339   H     0.00564   0.75626   0.02557   0.00000  Uiso   1.00
H340   H     0.00024   0.89176   0.47059   0.00000  Uiso   1.00
H341   H     0.32660   0.87553   0.11901   0.00000  Uiso   1.00
H342   H     0.00919   0.78162   0.37918   0.00000  Uiso   1.00
H343   H     0.31179   0.75865   0.45644   0.00000  Uiso   1.00
H344   H     0.02620   0.89204   0.04049   0.00000  Uiso   1.00
H345   H     0.07837   0.77664   0.07033   0.00000  Uiso   1.00
H346   H     0.26113   0.87126   0.42571   0.00000  Uiso   1.00
N347   N     0.31506   0.84735   0.26212   0.00000  Uiso   1.00
N348   N     0.01827   0.81932   0.23788   0.00000  Uiso   1.00
O349   O     0.12815   0.90476   0.24686   0.00000  Uiso   1.00
O350   O     0.20518   0.76191   0.25314   0.00000  Uiso   1.00
O351   O     0.22829   0.91420   0.25502   0.00000  Uiso   1.00
O352   O     0.10504   0.75247   0.24497   0.00000  Uiso   1.00
O353   O     0.08851   0.82597   0.30854   0.00000  Uiso   1.00
O354   O     0.24482   0.84070   0.19145   0.00000  Uiso   1.00
O355   O     0.18866   0.83540   0.31671   0.00000  Uiso   1.00
O356   O     0.14468   0.83126   0.18329   0.00000  Uiso   1.00
H357   H     0.13674   0.80981   0.10987   0.00000  Uiso   1.00
H358   H     0.19325   0.86133   0.39128   0.00000  Uiso   1.00
C359   C     0.22466   0.68070   0.28699   0.00000  Uiso   1.00
N360   N     0.25634   0.70119   0.30974   0.00000  Uiso   1.00
C361   C     0.10863   0.98597   0.21305   0.00000  Uiso   1.00
N362   N     0.07693   0.96548   0.19032   0.00000  Uiso   1.00
H363   H     0.00146   0.87168   0.28424   0.00000  Uiso   1.00
H364   H     0.33187   0.79499   0.21576   0.00000  Uiso   1.00
C365   C     0.51422   0.93309   0.25213   0.00000  Uiso   1.00
C366   C     0.48577   0.73358   0.24788   0.00000  Uiso   1.00
C367   C     0.42914   0.79149   0.03768   0.00000  Uiso   1.00
C368   C     0.57514   0.86069   0.45944   0.00000  Uiso   1.00
C369   C     0.38631   0.77867   0.01165   0.00000  Uiso   1.00
C370   C     0.61829   0.87253   0.48528   0.00000  Uiso   1.00
C371   C     0.51819   0.98806   0.25840   0.00000  Uiso   1.00
C372   C     0.48179   0.67861   0.24163   0.00000  Uiso   1.00
C373   C     0.46132   0.82929   0.33311   0.00000  Uiso   1.00
C374   C     0.53866   0.83703   0.16685   0.00000  Uiso   1.00
C375   C     0.43793   0.82202   0.38048   0.00000  Uiso   1.00
C376   C     0.56205   0.84141   0.11916   0.00000  Uiso   1.00
C377   C     0.35940   0.78069   0.44275   0.00000  Uiso   1.00
C378   C     0.64396   0.87337   0.05493   0.00000  Uiso   1.00
C379   C     0.37647   0.79432   0.39893   0.00000  Uiso   1.00
C380   C     0.62542   0.86372   0.09959   0.00000  Uiso   1.00
C381   C     0.48104   0.83796   0.40658   0.00000  Uiso   1.00
C382   C     0.51835   0.82632   0.09334   0.00000  Uiso   1.00
C383   C     0.46597   0.82313   0.45047   0.00000  Uiso   1.00
C384   C     0.53594   0.83480   0.04806   0.00000  Uiso   1.00
C385   C     0.40369   0.79433   0.46844   0.00000  Uiso   1.00
C386   C     0.59958   0.86010   0.02930   0.00000  Uiso   1.00
C387   C     0.51106   0.83530   0.47664   0.00000  Uiso   1.00
C388   C     0.49172   0.82057   0.02136   0.00000  Uiso   1.00
Cu389  Cu    0.44071   0.82775   0.24516   0.00000  Uiso   1.00
Cu390  Cu    0.55929   0.83892   0.25483   0.00000  Uiso   1.00
H391   H     0.33897   0.75626   0.02557   0.00000  Uiso   1.00
H392   H     0.33358   0.89176   0.47059   0.00000  Uiso   1.00
H393   H     0.65993   0.87553   0.11901   0.00000  Uiso   1.00
H394   H     0.34252   0.78162   0.37918   0.00000  Uiso   1.00
H395   H     0.64512   0.75865   0.45644   0.00000  Uiso   1.00
H396   H     0.35953   0.89204   0.04049   0.00000  Uiso   1.00
H397   H     0.41170   0.77664   0.07033   0.00000  Uiso   1.00
H398   H     0.59447   0.87126   0.42571   0.00000  Uiso   1.00
N399   N     0.64839   0.84735   0.26212   0.00000  Uiso   1.00
N400   N     0.35161   0.81932   0.23788   0.00000  Uiso   1.00
O401   O     0.46148   0.90476   0.24686   0.00000  Uiso   1.00
O402   O     0.53852   0.76191   0.25314   0.00000  Uiso   1.00
O403   O     0.56163   0.91420   0.25502   0.00000  Uiso   1.00
O404   O     0.43837   0.75247   0.24497   0.00000  Uiso   1.00
O405   O     0.42185   0.82597   0.30854   0.00000  Uiso   1.00
O406   O     0.57815   0.84070   0.19145   0.00000  Uiso   1.00
O407   O     0.52199   0.83540   0.31671   0.00000  Uiso   1.00
O408   O     0.47801   0.83126   0.18329   0.00000  Uiso   1.00
H409   H     0.47007   0.80981   0.10987   0.00000  Uiso   1.00
H410   H     0.52659   0.86133   0.39128   0.00000  Uiso   1.00
C411   C     0.55800   0.68070   0.28699   0.00000  Uiso   1.00
N412   N     0.58967   0.70119   0.30974   0.00000  Uiso   1.00
C413   C     0.44196   0.98597   0.21305   0.00000  Uiso   1.00
N414   N     0.41027   0.96548   0.19032   0.00000  Uiso   1.00
H415   H     0.33480   0.87168   0.28424   0.00000  Uiso   1.00
H416   H     0.66520   0.79499   0.21576   0.00000  Uiso   1.00
C417   C     0.84755   0.93309   0.25213   0.00000  Uiso   1.00
C418   C     0.81911   0.73358   0.24788   0.00000  Uiso   1.00
C419   C     0.76248   0.79149   0.03768   0.00000  Uiso   1.00
C420   C     0.90847   0.86069   0.45944   0.00000  Uiso   1.00
C421   C     0.71964   0.77867   0.01165   0.00000  Uiso   1.00
C422   C     0.95163   0.87253   0.48528   0.00000  Uiso   1.00
C423   C     0.85153   0.98806   0.25840   0.00000  Uiso   1.00
C424   C     0.81512   0.67861   0.24163   0.00000  Uiso   1.00
C425   C     0.79465   0.82929   0.33311   0.00000  Uiso   1.00
C426   C     0.87199   0.83703   0.16685   0.00000  Uiso   1.00
C427   C     0.77126   0.82202   0.38048   0.00000  Uiso   1.00
C428   C     0.89539   0.84141   0.11916   0.00000  Uiso   1.00
C429   C     0.69273   0.78069   0.44275   0.00000  Uiso   1.00
C430   C     0.97729   0.87337   0.05493   0.00000  Uiso   1.00
C431   C     0.70981   0.79432   0.39893   0.00000  Uiso   1.00
C432   C     0.95875   0.86372   0.09959   0.00000  Uiso   1.00
C433   C     0.81438   0.83796   0.40658   0.00000  Uiso   1.00
C434   C     0.85168   0.82632   0.09334   0.00000  Uiso   1.00
C435   C     0.79931   0.82313   0.45047   0.00000  Uiso   1.00
C436   C     0.86927   0.83480   0.04806   0.00000  Uiso   1.00
C437   C     0.73703   0.79433   0.46844   0.00000  Uiso   1.00
C438   C     0.93291   0.86010   0.02930   0.00000  Uiso   1.00
C439   C     0.84440   0.83530   0.47664   0.00000  Uiso   1.00
C440   C     0.82505   0.82057   0.02136   0.00000  Uiso   1.00
Cu441  Cu    0.77404   0.82775   0.24516   0.00000  Uiso   1.00
Cu442  Cu    0.89263   0.83892   0.25483   0.00000  Uiso   1.00
H443   H     0.67230   0.75626   0.02557   0.00000  Uiso   1.00
H444   H     0.66691   0.89176   0.47059   0.00000  Uiso   1.00
H445   H     0.99326   0.87553   0.11901   0.00000  Uiso   1.00
H446   H     0.67586   0.78162   0.37918   0.00000  Uiso   1.00
H447   H     0.97845   0.75865   0.45644   0.00000  Uiso   1.00
H448   H     0.69286   0.89204   0.04049   0.00000  Uiso   1.00
H449   H     0.74504   0.77664   0.07033   0.00000  Uiso   1.00
H450   H     0.92780   0.87126   0.42571   0.00000  Uiso   1.00
N451   N     0.98173   0.84735   0.26212   0.00000  Uiso   1.00
N452   N     0.68494   0.81932   0.23788   0.00000  Uiso   1.00
O453   O     0.79482   0.90476   0.24686   0.00000  Uiso   1.00
O454   O     0.87185   0.76191   0.25314   0.00000  Uiso   1.00
O455   O     0.89496   0.91420   0.25502   0.00000  Uiso   1.00
O456   O     0.77171   0.75247   0.24497   0.00000  Uiso   1.00
O457   O     0.75518   0.82597   0.30854   0.00000  Uiso   1.00
O458   O     0.91149   0.84070   0.19145   0.00000  Uiso   1.00
O459   O     0.85532   0.83540   0.31671   0.00000  Uiso   1.00
O460   O     0.81134   0.83126   0.18329   0.00000  Uiso   1.00
H461   H     0.80341   0.80981   0.10987   0.00000  Uiso   1.00
H462   H     0.85992   0.86133   0.39128   0.00000  Uiso   1.00
C463   C     0.89133   0.68070   0.28699   0.00000  Uiso   1.00
N464   N     0.92301   0.70119   0.30974   0.00000  Uiso   1.00
C465   C     0.77530   0.98597   0.21305   0.00000  Uiso   1.00
N466   N     0.74360   0.96548   0.19032   0.00000  Uiso   1.00
H467   H     0.66813   0.87168   0.28424   0.00000  Uiso   1.00
H468   H     0.99854   0.79499   0.21576   0.00000  Uiso   1.00
C469   C     0.18089   0.26642   0.75213   0.00000  Uiso   1.00
C470   C     0.15244   0.06691   0.74788   0.00000  Uiso   1.00
C471   C     0.09581   0.12482   0.53768   0.00000  Uiso   1.00
C472   C     0.24181   0.19403   0.95944   0.00000  Uiso   1.00
C473   C     0.05298   0.11200   0.51165   0.00000  Uiso   1.00
C474   C     0.28496   0.20587   0.98528   0.00000  Uiso   1.00
C475   C     0.18486   0.32139   0.75840   0.00000  Uiso   1.00
C476   C     0.14846   0.01194   0.74163   0.00000  Uiso   1.00
C477   C     0.12799   0.16263   0.83311   0.00000  Uiso   1.00
C478   C     0.20532   0.17036   0.66685   0.00000  Uiso   1.00
C479   C     0.10459   0.15535   0.88048   0.00000  Uiso   1.00
C480   C     0.22872   0.17474   0.61916   0.00000  Uiso   1.00
C481   C     0.02606   0.11402   0.94275   0.00000  Uiso   1.00
C482   C     0.31062   0.20671   0.55493   0.00000  Uiso   1.00
C483   C     0.04314   0.12765   0.89893   0.00000  Uiso   1.00
C484   C     0.29209   0.19705   0.59959   0.00000  Uiso   1.00
C485   C     0.14771   0.17129   0.90658   0.00000  Uiso   1.00
C486   C     0.18502   0.15966   0.59334   0.00000  Uiso   1.00
C487   C     0.13264   0.15647   0.95047   0.00000  Uiso   1.00
C488   C     0.20260   0.16814   0.54806   0.00000  Uiso   1.00
C489   C     0.07036   0.12766   0.96844   0.00000  Uiso   1.00
C490   C     0.26624   0.19343   0.52930   0.00000  Uiso   1.00
C491   C     0.17773   0.16863   0.97664   0.00000  Uiso   1.00
C492   C     0.15838   0.15390   0.52136   0.00000  Uiso   1.00
Cu493  Cu    0.10737   0.16108   0.74516   0.00000  Uiso   1.00
Cu494  Cu    0.22596   0.17225   0.75483   0.00000  Uiso   1.00
H495   H     0.00564   0.08959   0.52557   0.00000  Uiso   1.00
H496   H     0.00024   0.22510   0.97059   0.00000  Uiso   1.00
H497   H     0.32660   0.20886   0.61901   0.00000  Uiso   1.00
H498   H     0.00919   0.11495   0.87918   0.00000  Uiso   1.00
H499   H     0.31179   0.09199   0.95644   0.00000  Uiso   1.00
H500   H     0.02620   0.22538   0.54049   0.00000  Uiso   1.00
H501   H     0.07837   0.10998   0.57033   0.00000  Uiso   1.00
H502   H     0.26113   0.20459   0.92571   0.00000  Uiso   1.00
N503   N     0.31506   0.18068   0.76212   0.00000  Uiso   1.00
N504   N     0.01827   0.15265   0.73788   0.00000  Uiso   1.00
O505   O     0.12815   0.23809   0.74686   0.00000  Uiso   1.00
O506   O     0.20518   0.09524   0.75314   0.00000  Uiso   1.00
O507   O     0.22829   0.24753   0.75502   0.00000  Uiso   1.00
O508   O     0.10504   0.08580   0.74497   0.00000  Uiso   1.00
O509   O     0.08851   0.15930   0.80854   0.00000  Uiso   1.00
O510   O     0.24482   0.17403   0.69145   0.00000  Uiso   1.00
O511   O     0.18866   0.16874   0.81671   0.00000  Uiso   1.00
O512   O     0.14468   0.16460   0.68329   0.00000  Uiso   1.00
H513   H     0.13674   0.14314   0.60987   0.00000  Uiso   1.00
H514   H     0.19325   0.19467   0.89128   0.00000  Uiso   1.00
C515   C     0.22466   0.01403   0.78699   0.00000  Uiso   1.00
N516   N     0.25634   0.03452   0.80974   0.00000  Uiso   1.00
C517   C     0.10863   0.31930   0.71305   0.00000  Uiso   1.00
N518   N     0.07693   0.29881   0.69032   0.00000  Uiso   1.00
H519   H     0.00146   0.20501   0.78424   0.00000  Uiso   1.00
H520   H     0.33187   0.12832   0.71576   0.00000  Uiso   1.00
C521   C     0.51422   0.26642   0.75213   0.00000  Uiso   1.00
C522   C     0.48577   0.06691   0.74788   0.00000  Uiso   1.00
C523   C     0.42914   0.12482   0.53768   0.00000  Uiso   1.00
C524   C     0.57514   0.19403   0.95944   0.00000  Uiso   1.00
C525   C     0.38631   0.11200   0.51165   0.00000  Uiso   1.00
C526   C     0.61829   0.20587   0.98528   0.00000  Uiso   1.00
C527   C     0.51819   0.32139   0.75840   0.00000  Uiso   1.00
C528   C     0.48179   0.01194   0.74163   0.00000  Uiso   1.00
C529   C     0.46132   0.16263   0.83311   0.00000  Uiso   1.00
C530   C     0.53866   0.17036   0.66685   0.00000  Uiso   1.00
C531   C     0.43793   0.15535   0.88048   0.00000  Uiso   1.00
C532   C     0.56205   0.17474   0.61916   0.00000  Uiso   1.00
C533   C     0.35940   0.11402   0.94275   0.00000  Uiso   1.00
C534   C     0.64396   0.20671   0.55493   0.00000  Uiso   1.00
C535   C     0.37647   0.12765   0.89893   0.00000  Uiso   1.00
C536   C     0.62542   0.19705   0.59959   0.00000  Uiso   1.00
C537   C     0.48104   0.17129   0.90658   0.00000  Uiso   1.00
C538   C     0.51835   0.15966   0.59334   0.00000  Uiso   1.00
C539   C     0.46597   0.15647   0.95047   0.00000  Uiso   1.00
C540   C     0.53594   0.16814   0.54806   0.00000  Uiso   1.00
C541   C     0.40369   0.12766   0.96844   0.00000  Uiso   1.00
C542   C     0.59958   0.19343   0.52930   0.00000  Uiso   1.00
C543   C     0.51106   0.16863   0.97664   0.00000  Uiso   1.00
C544   C     0.49172   0.15390   0.52136   0.00000  Uiso   1.00
Cu545  Cu    0.44071   0.16108   0.74516   0.00000  Uiso   1.00
Cu546  Cu    0.55929   0.17225   0.75483   0.00000  Uiso   1.00
H547   H     0.33897   0.08959   0.52557   0.00000  Uiso   1.00
H548   H     0.33358   0.22510   0.97059   0.00000  Uiso   1.00
H549   H     0.65993   0.20886   0.61901   0.00000  Uiso   1.00
H550   H     0.34252   0.11495   0.87918   0.00000  Uiso   1.00
H551   H     0.64512   0.09199   0.95644   0.00000  Uiso   1.00
H552   H     0.35953   0.22538   0.54049   0.00000  Uiso   1.00
H553   H     0.41170   0.10998   0.57033   0.00000  Uiso   1.00
H554   H     0.59447   0.20459   0.92571   0.00000  Uiso   1.00
N555   N     0.64839   0.18068   0.76212   0.00000  Uiso   1.00
N556   N     0.35161   0.15265   0.73788   0.00000  Uiso   1.00
O557   O     0.46148   0.23809   0.74686   0.00000  Uiso   1.00
O558   O     0.53852   0.09524   0.75314   0.00000  Uiso   1.00
O559   O     0.56163   0.24753   0.75502   0.00000  Uiso   1.00
O560   O     0.43837   0.08580   0.74497   0.00000  Uiso   1.00
O561   O     0.42185   0.15930   0.80854   0.00000  Uiso   1.00
O562   O     0.57815   0.17403   0.69145   0.00000  Uiso   1.00
O563   O     0.52199   0.16874   0.81671   0.00000  Uiso   1.00
O564   O     0.47801   0.16460   0.68329   0.00000  Uiso   1.00
H565   H     0.47007   0.14314   0.60987   0.00000  Uiso   1.00
H566   H     0.52659   0.19467   0.89128   0.00000  Uiso   1.00
C567   C     0.55800   0.01403   0.78699   0.00000  Uiso   1.00
N568   N     0.58967   0.03452   0.80974   0.00000  Uiso   1.00
C569   C     0.44196   0.31930   0.71305   0.00000  Uiso   1.00
N570   N     0.41027   0.29881   0.69032   0.00000  Uiso   1.00
H571   H     0.33480   0.20501   0.78424   0.00000  Uiso   1.00
H572   H     0.66520   0.12832   0.71576   0.00000  Uiso   1.00
C573   C     0.84755   0.26642   0.75213   0.00000  Uiso   1.00
C574   C     0.81911   0.06691   0.74788   0.00000  Uiso   1.00
C575   C     0.76248   0.12482   0.53768   0.00000  Uiso   1.00
C576   C     0.90847   0.19403   0.95944   0.00000  Uiso   1.00
C577   C     0.71964   0.11200   0.51165   0.00000  Uiso   1.00
C578   C     0.95163   0.20587   0.98528   0.00000  Uiso   1.00
C579   C     0.85153   0.32139   0.75840   0.00000  Uiso   1.00
C580   C     0.81512   0.01194   0.74163   0.00000  Uiso   1.00
C581   C     0.79465   0.16263   0.83311   0.00000  Uiso   1.00
C582   C     0.87199   0.17036   0.66685   0.00000  Uiso   1.00
C583   C     0.77126   0.15535   0.88048   0.00000  Uiso   1.00
C584   C     0.89539   0.17474   0.61916   0.00000  Uiso   1.00
C585   C     0.69273   0.11402   0.94275   0.00000  Uiso   1.00
C586   C     0.97729   0.20671   0.55493   0.00000  Uiso   1.00
C587   C     0.70981   0.12765   0.89893   0.00000  Uiso   1.00
C588   C     0.95875   0.19705   0.59959   0.00000  Uiso   1.00
C589   C     0.81438   0.17129   0.90658   0.00000  Uiso   1.00
C590   C     0.85168   0.15966   0.59334   0.00000  Uiso   1.00
C591   C     0.79931   0.15647   0.95047   0.00000  Uiso   1.00
C592   C     0.86927   0.16814   0.54806   0.00000  Uiso   1.00
C593   C     0.73703   0.12766   0.96844   0.00000  Uiso   1.00
C594   C     0.93291   0.19343   0.52930   0.00000  Uiso   1.00
C595   C     0.84440   0.16863   0.97664   0.00000  Uiso   1.00
C596   C     0.82505   0.15390   0.52136   0.00000  Uiso   1.00
Cu597  Cu    0.77404   0.16108   0.74516   0.00000  Uiso   1.00
Cu598  Cu    0.89263   0.17225   0.75483   0.00000  Uiso   1.00
H599   H     0.67230   0.08959   0.52557   0.00000  Uiso   1.00
H600   H     0.66691   0.22510   0.97059   0.00000  Uiso   1.00
H601   H     0.99326   0.20886   0.61901   0.00000  Uiso   1.00
H602   H     0.67586   0.11495   0.87918   0.00000  Uiso   1.00
H603   H     0.97845   0.09199   0.95644   0.00000  Uiso   1.00
H604   H     0.69286   0.22538   0.54049   0.00000  Uiso   1.00
H605   H     0.74504   0.10998   0.57033   0.00000  Uiso   1.00
H606   H     0.92780   0.20459   0.92571   0.00000  Uiso   1.00
N607   N     0.98173   0.18068   0.76212   0.00000  Uiso   1.00
N608   N     0.68494   0.15265   0.73788   0.00000  Uiso   1.00
O609   O     0.79482   0.23809   0.74686   0.00000  Uiso   1.00
O610   O     0.87185   0.09524   0.75314   0.00000  Uiso   1.00
O611   O     0.89496   0.24753   0.75502   0.00000  Uiso   1.00
O612   O     0.77171   0.08580   0.74497   0.00000  Uiso   1.00
O613   O     0.75518   0.15930   0.80854   0.00000  Uiso   1.00
O614   O     0.91149   0.17403   0.69145   0.00000  Uiso   1.00
O615   O     0.85532   0.16874   0.81671   0.00000  Uiso   1.00
O616   O     0.81134   0.16460   0.68329   0.00000  Uiso   1.00
H617   H     0.80341   0.14314   0.60987   0.00000  Uiso   1.00
H618   H     0.85992   0.19467   0.89128   0.00000  Uiso   1.00
C619   C     0.89133   0.01403   0.78699   0.00000  Uiso   1.00
N620   N     0.92301   0.03452   0.80974   0.00000  Uiso   1.00
C621   C     0.77530   0.31930   0.71305   0.00000  Uiso   1.00
N622   N     0.74360   0.29881   0.69032   0.00000  Uiso   1.00
H623   H     0.66813   0.20501   0.78424   0.00000  Uiso   1.00
H624   H     0.99854   0.12832   0.71576   0.00000  Uiso   1.00
C625   C     0.18089   0.59975   0.75213   0.00000  Uiso   1.00
C626   C     0.15244   0.40025   0.74788   0.00000  Uiso   1.00
C627   C     0.09581   0.45815   0.53768   0.00000  Uiso   1.00
C628   C     0.24181   0.52736   0.95944   0.00000  Uiso   1.00
C629   C     0.05298   0.44534   0.51165   0.00000  Uiso   1.00
C630   C     0.28496   0.53920   0.98528   0.00000  Uiso   1.00
C631   C     0.18486   0.65472   0.75840   0.00000  Uiso   1.00
C632   C     0.14846   0.34528   0.74163   0.00000  Uiso   1.00
C633   C     0.12799   0.49596   0.83311   0.00000  Uiso   1.00
C634   C     0.20532   0.50369   0.66685   0.00000  Uiso   1.00
C635   C     0.10459   0.48869   0.88048   0.00000  Uiso   1.00
C636   C     0.22872   0.50807   0.61916   0.00000  Uiso   1.00
C637   C     0.02606   0.44736   0.94275   0.00000  Uiso   1.00
C638   C     0.31062   0.54004   0.55493   0.00000  Uiso   1.00
C639   C     0.04314   0.46098   0.89893   0.00000  Uiso   1.00
C640   C     0.29209   0.53038   0.59959   0.00000  Uiso   1.00
C641   C     0.14771   0.50463   0.90658   0.00000  Uiso   1.00
C642   C     0.18502   0.49299   0.59334   0.00000  Uiso   1.00
C643   C     0.13264   0.48980   0.95047   0.00000  Uiso   1.00
C644   C     0.20260   0.50147   0.54806   0.00000  Uiso   1.00
C645   C     0.07036   0.46099   0.96844   0.00000  Uiso   1.00
C646   C     0.26624   0.52676   0.52930   0.00000  Uiso   1.00
C647   C     0.17773   0.50196   0.97664   0.00000  Uiso   1.00
C648   C     0.15838   0.48723   0.52136   0.00000  Uiso   1.00
Cu649  Cu    0.10737   0.49441   0.74516   0.00000  Uiso   1.00
Cu650  Cu    0.22596   0.50559   0.75483   0.00000  Uiso   1.00
H651   H     0.00564   0.42293   0.52557   0.00000  Uiso   1.00
H652   H     0.00024   0.55843   0.97059   0.00000  Uiso   1.00
H653   H     0.32660   0.54220   0.61901   0.00000  Uiso   1.00
H654   H     0.00919   0.44829   0.87918   0.00000  Uiso   1.00
H655   H     0.31179   0.42532   0.95644   0.00000  Uiso   1.00
H656   H     0.02620   0.55871   0.54049   0.00000  Uiso   1.00
H657   H     0.07837   0.44331   0.57033   0.00000  Uiso   1.00
H658   H     0.26113   0.53793   0.92571   0.00000  Uiso   1.00
N659   N     0.31506   0.51401   0.76212   0.00000  Uiso   1.00
N660   N     0.01827   0.48599   0.73788   0.00000  Uiso   1.00
O661   O     0.12815   0.57142   0.74686   0.00000  Uiso   1.00
O662   O     0.20518   0.42858   0.75314   0.00000  Uiso   1.00
O663   O     0.22829   0.58086   0.75502   0.00000  Uiso   1.00
O664   O     0.10504   0.41914   0.74497   0.00000  Uiso   1.00
O665   O     0.08851   0.49263   0.80854   0.00000  Uiso   1.00
O666   O     0.24482   0.50737   0.69145   0.00000  Uiso   1.00
O667   O     0.18866   0.50207   0.81671   0.00000  Uiso   1.00
O668   O     0.14468   0.49793   0.68329   0.00000  Uiso   1.00
H669   H     0.13674   0.47648   0.60987   0.00000  Uiso   1.00
H670   H     0.19325   0.52800   0.89128   0.00000  Uiso   1.00
C671   C     0.22466   0.34736   0.78699   0.00000  Uiso   1.00
N672   N     0.25634   0.36786   0.80974   0.00000  Uiso   1.00
C673   C     0.10863   0.65264   0.71305   0.00000  Uiso   1.00
N674   N     0.07693   0.63214   0.69032   0.00000  Uiso   1.00
H675   H     0.00146   0.53834   0.78424   0.00000  Uiso   1.00
H676   H     0.33187   0.46166   0.71576   0.00000  Uiso   1.00
C677   C     0.51422   0.59975   0.75213   0.00000  Uiso   1.00
C678   C     0.48577   0.40025   0.74788   0.00000  Uiso   1.00
C679   C     0.42914   0.45815   0.53768   0.00000  Uiso   1.00
C680   C     0.57514   0.52736   0.95944   0.00000  Uiso   1.00
C681   C     0.38631   0.44534   0.51165   0.00000  Uiso   1.00
C682   C     0.61829   0.53920   0.98528   0.00000  Uiso   1.00
C683   C     0.51819   0.65472   0.75840   0.00000  Uiso   1.00
C684   C     0.48179   0.34528   0.74163   0.00000  Uiso   1.00
C685   C     0.46132   0.49596   0.83311   0.00000  Uiso   1.00
C686   C     0.53866   0.50369   0.66685   0.00000  Uiso   1.00
C687   C     0.43793   0.48869   0.88048   0.00000  Uiso   1.00
C688   C     0.56205   0.50807   0.61916   0.00000  Uiso   1.00
C689   C     0.35940   0.44736   0.94275   0.00000  Uiso   1.00
C690   C     0.64396   0.54004   0.55493   0.00000  Uiso   1.00
C691   C     0.37647   0.46098   0.89893   0.00000  Uiso   1.00
C692   C     0.62542   0.53038   0.59959   0.00000  Uiso   1.00
C693   C     0.48104   0.50463   0.90658   0.00000  Uiso   1.00
C694   C     0.51835   0.49299   0.59334   0.00000  Uiso   1.00
C695   C     0.46597   0.48980   0.95047   0.00000  Uiso   1.00
C696   C     0.53594   0.50147   0.54806   0.00000  Uiso   1.00
C697   C     0.40369   0.46099   0.96844   0.00000  Uiso   1.00
C698   C     0.59958   0.52676   0.52930   0.00000  Uiso   1.00
C699   C     0.51106   0.50196   0.97664   0.00000  Uiso   1.00
C700   C     0.49172   0.48723   0.52136   0.00000  Uiso   1.00
Cu701  Cu    0.44071   0.49441   0.74516   0.00000  Uiso   1.00
Cu702  Cu    0.55929   0.50559   0.75483   0.00000  Uiso   1.00
H703   H     0.33897   0.42293   0.52557   0.00000  Uiso   1.00
H704   H     0.33358   0.55843   0.97059   0.00000  Uiso   1.00
H705   H     0.65993   0.54220   0.61901   0.00000  Uiso   1.00
H706   H     0.34252   0.44829   0.87918   0.00000  Uiso   1.00
H707   H     0.64512   0.42532   0.95644   0.00000  Uiso   1.00
H708   H     0.35953   0.55871   0.54049   0.00000  Uiso   1.00
H709   H     0.41170   0.44331   0.57033   0.00000  Uiso   1.00
H710   H     0.59447   0.53793   0.92571   0.00000  Uiso   1.00
N711   N     0.64839   0.51401   0.76212   0.00000  Uiso   1.00
N712   N     0.35161   0.48599   0.73788   0.00000  Uiso   1.00
O713   O     0.46148   0.57142   0.74686   0.00000  Uiso   1.00
O714   O     0.53852   0.42858   0.75314   0.00000  Uiso   1.00
O715   O     0.56163   0.58086   0.75502   0.00000  Uiso   1.00
O716   O     0.43837   0.41914   0.74497   0.00000  Uiso   1.00
O717   O     0.42185   0.49263   0.80854   0.00000  Uiso   1.00
O718   O     0.57815   0.50737   0.69145   0.00000  Uiso   1.00
O719   O     0.52199   0.50207   0.81671   0.00000  Uiso   1.00
O720   O     0.47801   0.49793   0.68329   0.00000  Uiso   1.00
H721   H     0.47007   0.47648   0.60987   0.00000  Uiso   1.00
H722   H     0.52659   0.52800   0.89128   0.00000  Uiso   1.00
C723   C     0.55800   0.34736   0.78699   0.00000  Uiso   1.00
N724   N     0.58967   0.36786   0.80974   0.00000  Uiso   1.00
C725   C     0.44196   0.65264   0.71305   0.00000  Uiso   1.00
N726   N     0.41027   0.63214   0.69032   0.00000  Uiso   1.00
H727   H     0.33480   0.53834   0.78424   0.00000  Uiso   1.00
H728   H     0.66520   0.46166   0.71576   0.00000  Uiso   1.00
C729   C     0.84755   0.59975   0.75213   0.00000  Uiso   1.00
C730   C     0.81911   0.40025   0.74788   0.00000  Uiso   1.00
C731   C     0.76248   0.45815   0.53768   0.00000  Uiso   1.00
C732   C     0.90847   0.52736   0.95944   0.00000  Uiso   1.00
C733   C     0.71964   0.44534   0.51165   0.00000  Uiso   1.00
C734   C     0.95163   0.53920   0.98528   0.00000  Uiso   1.00
C735   C     0.85153   0.65472   0.75840   0.00000  Uiso   1.00
C736   C     0.81512   0.34528   0.74163   0.00000  Uiso   1.00
C737   C     0.79465   0.49596   0.83311   0.00000  Uiso   1.00
C738   C     0.87199   0.50369   0.66685   0.00000  Uiso   1.00
C739   C     0.77126   0.48869   0.88048   0.00000  Uiso   1.00
C740   C     0.89539   0.50807   0.61916   0.00000  Uiso   1.00
C741   C     0.69273   0.44736   0.94275   0.00000  Uiso   1.00
C742   C     0.97729   0.54004   0.55493   0.00000  Uiso   1.00
C743   C     0.70981   0.46098   0.89893   0.00000  Uiso   1.00
C744   C     0.95875   0.53038   0.59959   0.00000  Uiso   1.00
C745   C     0.81438   0.50463   0.90658   0.00000  Uiso   1.00
C746   C     0.85168   0.49299   0.59334   0.00000  Uiso   1.00
C747   C     0.79931   0.48980   0.95047   0.00000  Uiso   1.00
C748   C     0.86927   0.50147   0.54806   0.00000  Uiso   1.00
C749   C     0.73703   0.46099   0.96844   0.00000  Uiso   1.00
C750   C     0.93291   0.52676   0.52930   0.00000  Uiso   1.00
C751   C     0.84440   0.50196   0.97664   0.00000  Uiso   1.00
C752   C     0.82505   0.48723   0.52136   0.00000  Uiso   1.00
Cu753  Cu    0.77404   0.49441   0.74516   0.00000  Uiso   1.00
Cu754  Cu    0.89263   0.50559   0.75483   0.00000  Uiso   1.00
H755   H     0.67230   0.42293   0.52557   0.00000  Uiso   1.00
H756   H     0.66691   0.55843   0.97059   0.00000  Uiso   1.00
H757   H     0.99326   0.54220   0.61901   0.00000  Uiso   1.00
H758   H     0.67586   0.44829   0.87918   0.00000  Uiso   1.00
H759   H     0.97845   0.42532   0.95644   0.00000  Uiso   1.00
H760   H     0.69286   0.55871   0.54049   0.00000  Uiso   1.00
H761   H     0.74504   0.44331   0.57033   0.00000  Uiso   1.00
H762   H     0.92780   0.53793   0.92571   0.00000  Uiso   1.00
N763   N     0.98173   0.51401   0.76212   0.00000  Uiso   1.00
N764   N     0.68494   0.48599   0.73788   0.00000  Uiso   1.00
O765   O     0.79482   0.57142   0.74686   0.00000  Uiso   1.00
O766   O     0.87185   0.42858   0.75314   0.00000  Uiso   1.00
O767   O     0.89496   0.58086   0.75502   0.00000  Uiso   1.00
O768   O     0.77171   0.41914   0.74497   0.00000  Uiso   1.00
O769   O     0.75518   0.49263   0.80854   0.00000  Uiso   1.00
O770   O     0.91149   0.50737   0.69145   0.00000  Uiso   1.00
O771   O     0.85532   0.50207   0.81671   0.00000  Uiso   1.00
O772   O     0.81134   0.49793   0.68329   0.00000  Uiso   1.00
H773   H     0.80341   0.47648   0.60987   0.00000  Uiso   1.00
H774   H     0.85992   0.52800   0.89128   0.00000  Uiso   1.00
C775   C     0.89133   0.34736   0.78699   0.00000  Uiso   1.00
N776   N     0.92301   0.36786   0.80974   0.00000  Uiso   1.00
C777   C     0.77530   0.65264   0.71305   0.00000  Uiso   1.00
N778   N     0.74360   0.63214   0.69032   0.00000  Uiso   1.00
H779   H     0.66813   0.53834   0.78424   0.00000  Uiso   1.00
H780   H     0.99854   0.46166   0.71576   0.00000  Uiso   1.00
C781   C     0.18089   0.93309   0.75213   0.00000  Uiso   1.00
C782   C     0.15244   0.73358   0.74788   0.00000  Uiso   1.00
C783   C     0.09581   0.79149   0.53768   0.00000  Uiso   1.00
C784   C     0.24181   0.86069   0.95944   0.00000  Uiso   1.00
C785   C     0.05298   0.77867   0.51165   0.00000  Uiso   1.00
C786   C     0.28496   0.87253   0.98528   0.00000  Uiso   1.00
C787   C     0.18486   0.98806   0.75840   0.00000  Uiso   1.00
C788   C     0.14846   0.67861   0.74163   0.00000  Uiso   1.00
C789   C     0.12799   0.82929   0.83311   0.00000  Uiso   1.00
C790   C     0.20532   0.83703   0.66685   0.00000  Uiso   1.00
C791   C     0.10459   0.82202   0.88048   0.00000  Uiso   1.00
C792   C     0.22872   0.84141   0.61916   0.00000  Uiso   1.00
C793   C     0.02606   0.78069   0.94275   0.00000  Uiso   1.00
C794   C     0.31062   0.87337   0.55493   0.00000  Uiso   1.00
C795   C     0.04314   0.79432   0.89893   0.00000  Uiso   1.00
C796   C     0.29209   0.86372   0.59959   0.00000  Uiso   1.00
C797   C     0.14771   0.83796   0.90658   0.00000  Uiso   1.00
C798   C     0.18502   0.82632   0.59334   0.00000  Uiso   1.00
C799   C     0.13264   0.82313   0.95047   0.00000  Uiso   1.00
C800   C     0.20260   0.83480   0.54806   0.00000  Uiso   1.00
C801   C     0.07036   0.79433   0.96844   0.00000  Uiso   1.00
C802   C     0.26624   0.86010   0.52930   0.00000  Uiso   1.00
C803   C     0.17773   0.83530   0.97664   0.00000  Uiso   1.00
C804   C     0.15838   0.82057   0.52136   0.00000  Uiso   1.00
Cu805  Cu    0.10737   0.82775   0.74516   0.00000  Uiso   1.00
Cu806  Cu    0.22596   0.83892   0.75483   0.00000  Uiso   1.00
H807   H     0.00564   0.75626   0.52557   0.00000  Uiso   1.00
H808   H     0.00024   0.89176   0.97059   0.00000  Uiso   1.00
H809   H     0.32660   0.87553   0.61901   0.00000  Uiso   1.00
H810   H     0.00919   0.78162   0.87918   0.00000  Uiso   1.00
H811   H     0.31179   0.75865   0.95644   0.00000  Uiso   1.00
H812   H     0.02620   0.89204   0.54049   0.00000  Uiso   1.00
H813   H     0.07837   0.77664   0.57033   0.00000  Uiso   1.00
H814   H     0.26113   0.87126   0.92571   0.00000  Uiso   1.00
N815   N     0.31506   0.84735   0.76212   0.00000  Uiso   1.00
N816   N     0.01827   0.81932   0.73788   0.00000  Uiso   1.00
O817   O     0.12815   0.90476   0.74686   0.00000  Uiso   1.00
O818   O     0.20518   0.76191   0.75314   0.00000  Uiso   1.00
O819   O     0.22829   0.91420   0.75502   0.00000  Uiso   1.00
O820   O     0.10504   0.75247   0.74497   0.00000  Uiso   1.00
O821   O     0.08851   0.82597   0.80854   0.00000  Uiso   1.00
O822   O     0.24482   0.84070   0.69145   0.00000  Uiso   1.00
O823   O     0.18866   0.83540   0.81671   0.00000  Uiso   1.00
O824   O     0.14468   0.83126   0.68329   0.00000  Uiso   1.00
H825   H     0.13674   0.80981   0.60987   0.00000  Uiso   1.00
H826   H     0.19325   0.86133   0.89128   0.00000  Uiso   1.00
C827   C     0.22466   0.68070   0.78699   0.00000  Uiso   1.00
N828   N     0.25634   0.70119   0.80974   0.00000  Uiso   1.00
C829   C     0.10863   0.98597   0.71305   0.00000  Uiso   1.00
N830   N     0.07693   0.96548   0.69032   0.00000  Uiso   1.00
H831   H     0.00146   0.87168   0.78424   0.00000  Uiso   1.00
H832   H     0.33187   0.79499   0.71576   0.00000  Uiso   1.00
C833   C     0.51422   0.93309   0.75213   0.00000  Uiso   1.00
C834   C     0.48577   0.73358   0.74788   0.00000  Uiso   1.00
C835   C     0.42914   0.79149   0.53768   0.00000  Uiso   1.00
C836   C     0.57514   0.86069   0.95944   0.00000  Uiso   1.00
C837   C     0.38631   0.77867   0.51165   0.00000  Uiso   1.00
C838   C     0.61829   0.87253   0.98528   0.00000  Uiso   1.00
C839   C     0.51819   0.98806   0.75840   0.00000  Uiso   1.00
C840   C     0.48179   0.67861   0.74163   0.00000  Uiso   1.00
C841   C     0.46132   0.82929   0.83311   0.00000  Uiso   1.00
C842   C     0.53866   0.83703   0.66685   0.00000  Uiso   1.00
C843   C     0.43793   0.82202   0.88048   0.00000  Uiso   1.00
C844   C     0.56205   0.84141   0.61916   0.00000  Uiso   1.00
C845   C     0.35940   0.78069   0.94275   0.00000  Uiso   1.00
C846   C     0.64396   0.87337   0.55493   0.00000  Uiso   1.00
C847   C     0.37647   0.79432   0.89893   0.00000  Uiso   1.00
C848   C     0.62542   0.86372   0.59959   0.00000  Uiso   1.00
C849   C     0.48104   0.83796   0.90658   0.00000  Uiso   1.00
C850   C     0.51835   0.82632   0.59334   0.00000  Uiso   1.00
C851   C     0.46597   0.82313   0.95047   0.00000  Uiso   1.00
C852   C     0.53594   0.83480   0.54806   0.00000  Uiso   1.00
C853   C     0.40369   0.79433   0.96844   0.00000  Uiso   1.00
C854   C     0.59958   0.86010   0.52930   0.00000  Uiso   1.00
C855   C     0.51106   0.83530   0.97664   0.00000  Uiso   1.00
C856   C     0.49172   0.82057   0.52136   0.00000  Uiso   1.00
Cu857  Cu    0.44071   0.82775   0.74516   0.00000  Uiso   1.00
Cu858  Cu    0.55929   0.83892   0.75483   0.00000  Uiso   1.00
H859   H     0.33897   0.75626   0.52557   0.00000  Uiso   1.00
H860   H     0.33358   0.89176   0.97059   0.00000  Uiso   1.00
H861   H     0.65993   0.87553   0.61901   0.00000  Uiso   1.00
H862   H     0.34252   0.78162   0.87918   0.00000  Uiso   1.00
H863   H     0.64512   0.75865   0.95644   0.00000  Uiso   1.00
H864   H     0.35953   0.89204   0.54049   0.00000  Uiso   1.00
H865   H     0.41170   0.77664   0.57033   0.00000  Uiso   1.00
H866   H     0.59447   0.87126   0.92571   0.00000  Uiso   1.00
N867   N     0.64839   0.84735   0.76212   0.00000  Uiso   1.00
N868   N     0.35161   0.81932   0.73788   0.00000  Uiso   1.00
O869   O     0.46148   0.90476   0.74686   0.00000  Uiso   1.00
O870   O     0.53852   0.76191   0.75314   0.00000  Uiso   1.00
O871   O     0.56163   0.91420   0.75502   0.00000  Uiso   1.00
O872   O     0.43837   0.75247   0.74497   0.00000  Uiso   1.00
O873   O     0.42185   0.82597   0.80854   0.00000  Uiso   1.00
O874   O     0.57815   0.84070   0.69145   0.00000  Uiso   1.00
O875   O     0.52199   0.83540   0.81671   0.00000  Uiso   1.00
O876   O     0.47801   0.83126   0.68329   0.00000  Uiso   1.00
H877   H     0.47007   0.80981   0.60987   0.00000  Uiso   1.00
H878   H     0.52659   0.86133   0.89128   0.00000  Uiso   1.00
C879   C     0.55800   0.68070   0.78699   0.00000  Uiso   1.00
N880   N     0.58967   0.70119   0.80974   0.00000  Uiso   1.00
C881   C     0.44196   0.98597   0.71305   0.00000  Uiso   1.00
N882   N     0.41027   0.96548   0.69032   0.00000  Uiso   1.00
H883   H     0.33480   0.87168   0.78424   0.00000  Uiso   1.00
H884   H     0.66520   0.79499   0.71576   0.00000  Uiso   1.00
C885   C     0.84755   0.93309   0.75213   0.00000  Uiso   1.00
C886   C     0.81911   0.73358   0.74788   0.00000  Uiso   1.00
C887   C     0.76248   0.79149   0.53768   0.00000  Uiso   1.00
C888   C     0.90847   0.86069   0.95944   0.00000  Uiso   1.00
C889   C     0.71964   0.77867   0.51165   0.00000  Uiso   1.00
C890   C     0.95163   0.87253   0.98528   0.00000  Uiso   1.00
C891   C     0.85153   0.98806   0.75840   0.00000  Uiso   1.00
C892   C     0.81512   0.67861   0.74163   0.00000  Uiso   1.00
C893   C     0.79465   0.82929   0.83311   0.00000  Uiso   1.00
C894   C     0.87199   0.83703   0.66685   0.00000  Uiso   1.00
C895   C     0.77126   0.82202   0.88048   0.00000  Uiso   1.00
C896   C     0.89539   0.84141   0.61916   0.00000  Uiso   1.00
C897   C     0.69273   0.78069   0.94275   0.00000  Uiso   1.00
C898   C     0.97729   0.87337   0.55493   0.00000  Uiso   1.00
C899   C     0.70981   0.79432   0.89893   0.00000  Uiso   1.00
C900   C     0.95875   0.86372   0.59959   0.00000  Uiso   1.00
C901   C     0.81438   0.83796   0.90658   0.00000  Uiso   1.00
C902   C     0.85168   0.82632   0.59334   0.00000  Uiso   1.00
C903   C     0.79931   0.82313   0.95047   0.00000  Uiso   1.00
C904   C     0.86927   0.83480   0.54806   0.00000  Uiso   1.00
C905   C     0.73703   0.79433   0.96844   0.00000  Uiso   1.00
C906   C     0.93291   0.86010   0.52930   0.00000  Uiso   1.00
C907   C     0.84440   0.83530   0.97664   0.00000  Uiso   1.00
C908   C     0.82505   0.82057   0.52136   0.00000  Uiso   1.00
Cu909  Cu    0.77404   0.82775   0.74516   0.00000  Uiso   1.00
Cu910  Cu    0.89263   0.83892   0.75483   0.00000  Uiso   1.00
H911   H     0.67230   0.75626   0.52557   0.00000  Uiso   1.00
H912   H     0.66691   0.89176   0.97059   0.00000  Uiso   1.00
H913   H     0.99326   0.87553   0.61901   0.00000  Uiso   1.00
H914   H     0.67586   0.78162   0.87918   0.00000  Uiso   1.00
H915   H     0.97845   0.75865   0.95644   0.00000  Uiso   1.00
H916   H     0.69286   0.89204   0.54049   0.00000  Uiso   1.00
H917   H     0.74504   0.77664   0.57033   0.00000  Uiso   1.00
H918   H     0.92780   0.87126   0.92571   0.00000  Uiso   1.00
N919   N     0.98173   0.84735   0.76212   0.00000  Uiso   1.00
N920   N     0.68494   0.81932   0.73788   0.00000  Uiso   1.00
O921   O     0.79482   0.90476   0.74686   0.00000  Uiso   1.00
O922   O     0.87185   0.76191   0.75314   0.00000  Uiso   1.00
O923   O     0.89496   0.91420   0.75502   0.00000  Uiso   1.00
O924   O     0.77171   0.75247   0.74497   0.00000  Uiso   1.00
O925   O     0.75518   0.82597   0.80854   0.00000  Uiso   1.00
O926   O     0.91149   0.84070   0.69145   0.00000  Uiso   1.00
O927   O     0.85532   0.83540   0.81671   0.00000  Uiso   1.00
O928   O     0.81134   0.83126   0.68329   0.00000  Uiso   1.00
H929   H     0.80341   0.80981   0.60987   0.00000  Uiso   1.00
H930   H     0.85992   0.86133   0.89128   0.00000  Uiso   1.00
C931   C     0.89133   0.68070   0.78699   0.00000  Uiso   1.00
N932   N     0.92301   0.70119   0.80974   0.00000  Uiso   1.00
C933   C     0.77530   0.98597   0.71305   0.00000  Uiso   1.00
N934   N     0.74360   0.96548   0.69032   0.00000  Uiso   1.00
H935   H     0.66813   0.87168   0.78424   0.00000  Uiso   1.00
H936   H     0.99854   0.79499   0.71576   0.00000  Uiso   1.00
loop_
_geom_bond_atom_site_label_1
_geom_bond_atom_site_label_2
_geom_bond_distance
_geom_bond_site_symmetry_2
_ccdc_geom_bond_type
C1     O37     1.286   .     A
C1     C7      1.431   .     S
C1     O39     1.289   .     A
C2     O38     1.286   .     A
C2     O40     1.289   .     A
C2     C8      1.431   .     S
C3     C24     1.417   .     A
C3     H33     1.076   .     S
C3     C5      1.387   .     A
C4     H34     1.075   .     S
C4     C6      1.387   .     A
C4     C23     1.417   .     A
C5     H27     1.084   .     S
C5     C489    1.390   1_554 S
C6     C490    1.389   .     S
C6     H80     1.085   .     S
C7     C164    1.354   .     S
C7     C203    1.457   .     S
C8     C319    1.354   1_545 S
C8     C361    1.457   1_545 S
C9     O41     1.301   .     A
C9     C11     1.467   .     S
C9     O43     1.294   .     A
C10    O42     1.301   .     A
C10    C12     1.469   .     S
C10    O44     1.295   .     A
C11    C15     1.397   .     A
C11    C17     1.399   .     A
C12    C18     1.401   .     A
C12    C16     1.398   .     A
C13    C21     1.405   .     A
C13    C15     1.393   .     A
C13    H135    1.084   1_455 S
C14    C16     1.393   .     A
C14    C22     1.405   .     A
C14    H84     1.084   .     S
C15    H30     1.083   .     S
C16    H29     1.083   .     S
C17    C19     1.406   .     A
C17    H46     1.075   .     S
C18    C20     1.406   .     A
C18    H45     1.075   .     S
C19    C23     1.429   .     A
C19    C21     1.418   .     A
C20    C22     1.418   .     A
C20    C24     1.429   .     A
C21    C473    1.390   .     S
C22    C474    1.389   1_554 S
C23    C492    1.426   .     S
C24    C491    1.426   1_554 S
Cu25   O41     1.943   .     S
Cu25   O44     1.921   .     S
Cu25   O40     1.969   .     S
Cu25   N36     2.018   .     S
Cu25   O37     1.975   .     S
Cu25   Cu26    2.685   .     S
Cu26   O43     1.921   .     S
Cu26   O39     1.969   .     S
Cu26   N35     2.018   .     S
Cu26   O42     1.943   .     S
Cu26   O38     1.975   .     S
H28    C110    1.085   1_455 S
H31    C65     1.084   .     S
H32    C118    1.084   1_455 S
N35    N88     1.286   .     S
N35    H103    1.029   .     S
N36    N139    1.286   1_455 S
N36    H156    1.029   1_455 S
C47    N48     1.158   .     T
C47    C319    1.457   1_545 S
C49    N50     1.158   .     T
C49    C164    1.457   .     S
H51    N139    1.029   1_455 S
H52    N88     1.029   .     S
C53    O89     1.286   .     A
C53    C59     1.431   .     S
C53    O91     1.289   .     A
C54    O90     1.286   .     A
C54    O92     1.289   .     A
C54    C60     1.431   .     S
C55    C76     1.417   .     A
C55    H85     1.076   .     S
C55    C57     1.387   .     A
C56    H86     1.075   .     S
C56    C58     1.387   .     A
C56    C75     1.417   .     A
C57    H79     1.084   .     S
C57    C541    1.390   1_554 S
C58    C542    1.389   .     S
C58    H132    1.085   .     S
C59    C216    1.354   .     S
C59    C255    1.457   .     S
C60    C371    1.354   1_545 S
C60    C413    1.457   1_545 S
C61    O93     1.301   .     A
C61    C63     1.467   .     S
C61    O95     1.294   .     A
C62    O94     1.301   .     A
C62    C64     1.469   .     S
C62    O96     1.295   .     A
C63    C67     1.397   .     A
C63    C69     1.399   .     A
C64    C70     1.401   .     A
C64    C68     1.398   .     A
C65    C73     1.405   .     A
C65    C67     1.393   .     A
C66    C68     1.393   .     A
C66    C74     1.405   .     A
C66    H136    1.084   .     S
C67    H82     1.083   .     S
C68    H81     1.083   .     S
C69    C71     1.406   .     A
C69    H98     1.075   .     S
C70    C72     1.406   .     A
C70    H97     1.075   .     S
C71    C75     1.429   .     A
C71    C73     1.418   .     A
C72    C74     1.418   .     A
C72    C76     1.429   .     A
C73    C525    1.390   .     S
C74    C526    1.389   1_554 S
C75    C544    1.426   .     S
C76    C543    1.426   1_554 S
Cu77   O93     1.943   .     S
Cu77   O96     1.921   .     S
Cu77   O92     1.969   .     S
Cu77   N88     2.018   .     S
Cu77   O89     1.975   .     S
Cu77   Cu78    2.685   .     S
Cu78   O95     1.921   .     S
Cu78   O91     1.969   .     S
Cu78   N87     2.018   .     S
Cu78   O94     1.943   .     S
Cu78   O90     1.975   .     S
H83    C117    1.084   .     S
N87    N140    1.286   .     S
N87    H155    1.029   .     S
C99    N100    1.158   .     T
C99    C371    1.457   1_545 S
C101   N102    1.158   .     T
C101   C216    1.457   .     S
H104   N140    1.029   .     S
C105   O141    1.286   .     A
C105   C111    1.431   .     S
C105   O143    1.289   .     A
C106   O142    1.286   .     A
C106   O144    1.289   .     A
C106   C112    1.431   .     S
C107   C128    1.417   .     A
C107   H137    1.076   .     S
C107   C109    1.387   .     A
C108   H138    1.075   .     S
C108   C110    1.387   .     A
C108   C127    1.417   .     A
C109   H131    1.084   .     S
C109   C593    1.390   1_554 S
C110   C594    1.389   .     S
C110   H28     1.085   1_655 S
C111   C268    1.354   .     S
C111   C307    1.457   .     S
C112   C423    1.354   1_545 S
C112   C465    1.457   1_545 S
C113   O145    1.301   .     A
C113   C115    1.467   .     S
C113   O147    1.294   .     A
C114   O146    1.301   .     A
C114   C116    1.469   .     S
C114   O148    1.295   .     A
C115   C119    1.397   .     A
C115   C121    1.399   .     A
C116   C122    1.401   .     A
C116   C120    1.398   .     A
C117   C125    1.405   .     A
C117   C119    1.393   .     A
C118   C120    1.393   .     A
C118   C126    1.405   .     A
C118   H32     1.084   1_655 S
C119   H134    1.083   .     S
C120   H133    1.083   .     S
C121   C123    1.406   .     A
C121   H150    1.075   .     S
C122   C124    1.406   .     A
C122   H149    1.075   .     S
C123   C127    1.429   .     A
C123   C125    1.418   .     A
C124   C126    1.418   .     A
C124   C128    1.429   .     A
C125   C577    1.390   .     S
C126   C578    1.389   1_554 S
C127   C596    1.426   .     S
C128   C595    1.426   1_554 S
Cu129  O145    1.943   .     S
Cu129  O148    1.921   .     S
Cu129  O144    1.969   .     S
Cu129  N140    2.018   .     S
Cu129  O141    1.975   .     S
Cu129  Cu130   2.685   .     S
Cu130  O147    1.921   .     S
Cu130  O143    1.969   .     S
Cu130  N139    2.018   .     S
Cu130  O146    1.943   .     S
Cu130  O142    1.975   .     S
H135   C13     1.084   1_655 S
N139   N36     1.286   1_655 S
N139   H51     1.029   1_655 S
C151   N152    1.158   .     T
C151   C423    1.457   1_545 S
C153   N154    1.158   .     T
C153   C268    1.457   .     S
H156   N36     1.029   1_655 S
C157   O193    1.286   .     A
C157   C163    1.431   .     S
C157   O195    1.289   .     A
C158   O194    1.286   .     A
C158   O196    1.289   .     A
C158   C164    1.431   .     S
C159   C180    1.417   .     A
C159   H189    1.076   .     S
C159   C161    1.387   .     A
C160   H190    1.075   .     S
C160   C162    1.387   .     A
C160   C179    1.417   .     A
C161   H183    1.084   .     S
C161   C645    1.390   1_554 S
C162   C646    1.389   .     S
C162   H236    1.085   .     S
C163   C320    1.354   .     S
C163   C359    1.457   .     S
C165   O197    1.301   .     A
C165   C167    1.467   .     S
C165   O199    1.294   .     A
C166   O198    1.301   .     A
C166   C168    1.469   .     S
C166   O200    1.295   .     A
C167   C171    1.397   .     A
C167   C173    1.399   .     A
C168   C174    1.401   .     A
C168   C172    1.398   .     A
C169   C177    1.405   .     A
C169   C171    1.393   .     A
C169   H291    1.084   1_455 S
C170   C172    1.393   .     A
C170   C178    1.405   .     A
C170   H240    1.084   .     S
C171   H186    1.083   .     S
C172   H185    1.083   .     S
C173   C175    1.406   .     A
C173   H202    1.075   .     S
C174   C176    1.406   .     A
C174   H201    1.075   .     S
C175   C179    1.429   .     A
C175   C177    1.418   .     A
C176   C178    1.418   .     A
C176   C180    1.429   .     A
C177   C629    1.390   .     S
C178   C630    1.389   1_554 S
C179   C648    1.426   .     S
C180   C647    1.426   1_554 S
Cu181  O197    1.943   .     S
Cu181  O200    1.921   .     S
Cu181  O196    1.969   .     S
Cu181  N192    2.018   .     S
Cu181  O193    1.975   .     S
Cu181  Cu182   2.685   .     S
Cu182  O199    1.921   .     S
Cu182  O195    1.969   .     S
Cu182  N191    2.018   .     S
Cu182  O198    1.943   .     S
Cu182  O194    1.975   .     S
H184   C266    1.085   1_455 S
H187   C221    1.084   .     S
H188   C274    1.084   1_455 S
N191   N244    1.286   .     S
N191   H259    1.029   .     S
N192   N295    1.286   1_455 S
N192   H312    1.029   1_455 S
C203   N204    1.158   .     T
C205   N206    1.158   .     T
C205   C320    1.457   .     S
H207   N295    1.029   1_455 S
H208   N244    1.029   .     S
C209   O245    1.286   .     A
C209   C215    1.431   .     S
C209   O247    1.289   .     A
C210   O246    1.286   .     A
C210   O248    1.289   .     A
C210   C216    1.431   .     S
C211   C232    1.417   .     A
C211   H241    1.076   .     S
C211   C213    1.387   .     A
C212   H242    1.075   .     S
C212   C214    1.387   .     A
C212   C231    1.417   .     A
C213   H235    1.084   .     S
C213   C697    1.390   1_554 S
C214   C698    1.389   .     S
C214   H288    1.085   .     S
C215   C372    1.354   .     S
C215   C411    1.457   .     S
C217   O249    1.301   .     A
C217   C219    1.467   .     S
C217   O251    1.294   .     A
C218   O250    1.301   .     A
C218   C220    1.469   .     S
C218   O252    1.295   .     A
C219   C223    1.397   .     A
C219   C225    1.399   .     A
C220   C226    1.401   .     A
C220   C224    1.398   .     A
C221   C229    1.405   .     A
C221   C223    1.393   .     A
C222   C224    1.393   .     A
C222   C230    1.405   .     A
C222   H292    1.084   .     S
C223   H238    1.083   .     S
C224   H237    1.083   .     S
C225   C227    1.406   .     A
C225   H254    1.075   .     S
C226   C228    1.406   .     A
C226   H253    1.075   .     S
C227   C231    1.429   .     A
C227   C229    1.418   .     A
C228   C230    1.418   .     A
C228   C232    1.429   .     A
C229   C681    1.390   .     S
C230   C682    1.389   1_554 S
C231   C700    1.426   .     S
C232   C699    1.426   1_554 S
Cu233  O249    1.943   .     S
Cu233  O252    1.921   .     S
Cu233  O248    1.969   .     S
Cu233  N244    2.018   .     S
Cu233  O245    1.975   .     S
Cu233  Cu234   2.685   .     S
Cu234  O251    1.921   .     S
Cu234  O247    1.969   .     S
Cu234  N243    2.018   .     S
Cu234  O250    1.943   .     S
Cu234  O246    1.975   .     S
H239   C273    1.084   .     S
N243   N296    1.286   .     S
N243   H311    1.029   .     S
C255   N256    1.158   .     T
C257   N258    1.158   .     T
C257   C372    1.457   .     S
H260   N296    1.029   .     S
C261   O297    1.286   .     A
C261   C267    1.431   .     S
C261   O299    1.289   .     A
C262   O298    1.286   .     A
C262   O300    1.289   .     A
C262   C268    1.431   .     S
C263   C284    1.417   .     A
C263   H293    1.076   .     S
C263   C265    1.387   .     A
C264   H294    1.075   .     S
C264   C266    1.387   .     A
C264   C283    1.417   .     A
C265   H287    1.084   .     S
C265   C749    1.390   1_554 S
C266   C750    1.389   .     S
C266   H184    1.085   1_655 S
C267   C424    1.354   .     S
C267   C463    1.457   .     S
C269   O301    1.301   .     A
C269   C271    1.467   .     S
C269   O303    1.294   .     A
C270   O302    1.301   .     A
C270   C272    1.469   .     S
C270   O304    1.295   .     A
C271   C275    1.397   .     A
C271   C277    1.399   .     A
C272   C278    1.401   .     A
C272   C276    1.398   .     A
C273   C281    1.405   .     A
C273   C275    1.393   .     A
C274   C276    1.393   .     A
C274   C282    1.405   .     A
C274   H188    1.084   1_655 S
C275   H290    1.083   .     S
C276   H289    1.083   .     S
C277   C279    1.406   .     A
C277   H306    1.075   .     S
C278   C280    1.406   .     A
C278   H305    1.075   .     S
C279   C283    1.429   .     A
C279   C281    1.418   .     A
C280   C282    1.418   .     A
C280   C284    1.429   .     A
C281   C733    1.390   .     S
C282   C734    1.389   1_554 S
C283   C752    1.426   .     S
C284   C751    1.426   1_554 S
Cu285  O301    1.943   .     S
Cu285  O304    1.921   .     S
Cu285  O300    1.969   .     S
Cu285  N296    2.018   .     S
Cu285  O297    1.975   .     S
Cu285  Cu286   2.685   .     S
Cu286  O303    1.921   .     S
Cu286  O299    1.969   .     S
Cu286  N295    2.018   .     S
Cu286  O302    1.943   .     S
Cu286  O298    1.975   .     S
H291   C169    1.084   1_655 S
N295   N192    1.286   1_655 S
N295   H207    1.029   1_655 S
C307   N308    1.158   .     T
C309   N310    1.158   .     T
C309   C424    1.457   .     S
H312   N192    1.029   1_655 S
C313   O349    1.286   .     A
C313   C319    1.431   .     S
C313   O351    1.289   .     A
C314   O350    1.286   .     A
C314   O352    1.289   .     A
C314   C320    1.431   .     S
C315   C336    1.417   .     A
C315   H345    1.076   .     S
C315   C317    1.387   .     A
C316   H346    1.075   .     S
C316   C318    1.387   .     A
C316   C335    1.417   .     A
C317   H339    1.084   .     S
C317   C801    1.390   1_554 S
C318   C802    1.389   .     S
C318   H392    1.085   .     S
C319   C8      1.354   1_565 S
C319   C47     1.457   1_565 S
C321   O353    1.301   .     A
C321   C323    1.467   .     S
C321   O355    1.294   .     A
C322   O354    1.301   .     A
C322   C324    1.469   .     S
C322   O356    1.295   .     A
C323   C327    1.397   .     A
C323   C329    1.399   .     A
C324   C330    1.401   .     A
C324   C328    1.398   .     A
C325   C333    1.405   .     A
C325   C327    1.393   .     A
C325   H447    1.084   1_455 S
C326   C328    1.393   .     A
C326   C334    1.405   .     A
C326   H396    1.084   .     S
C327   H342    1.083   .     S
C328   H341    1.083   .     S
C329   C331    1.406   .     A
C329   H358    1.075   .     S
C330   C332    1.406   .     A
C330   H357    1.075   .     S
C331   C335    1.429   .     A
C331   C333    1.418   .     A
C332   C334    1.418   .     A
C332   C336    1.429   .     A
C333   C785    1.390   .     S
C334   C786    1.389   1_554 S
C335   C804    1.426   .     S
C336   C803    1.426   1_554 S
Cu337  O353    1.943   .     S
Cu337  O356    1.921   .     S
Cu337  O352    1.969   .     S
Cu337  N348    2.018   .     S
Cu337  O349    1.975   .     S
Cu337  Cu338   2.685   .     S
Cu338  O355    1.921   .     S
Cu338  O351    1.969   .     S
Cu338  N347    2.018   .     S
Cu338  O354    1.943   .     S
Cu338  O350    1.975   .     S
H340   C422    1.085   1_455 S
H343   C377    1.084   .     S
H344   C430    1.084   1_455 S
N347   N400    1.286   .     S
N347   H415    1.029   .     S
N348   N451    1.286   1_455 S
N348   H468    1.029   1_455 S
C359   N360    1.158   .     T
C361   N362    1.158   .     T
C361   C8      1.457   1_565 S
H363   N451    1.029   1_455 S
H364   N400    1.029   .     S
C365   O401    1.286   .     A
C365   C371    1.431   .     S
C365   O403    1.289   .     A
C366   O402    1.286   .     A
C366   O404    1.289   .     A
C366   C372    1.431   .     S
C367   C388    1.417   .     A
C367   H397    1.076   .     S
C367   C369    1.387   .     A
C368   H398    1.075   .     S
C368   C370    1.387   .     A
C368   C387    1.417   .     A
C369   H391    1.084   .     S
C369   C853    1.390   1_554 S
C370   C854    1.389   .     S
C370   H444    1.085   .     S
C371   C60     1.354   1_565 S
C371   C99     1.457   1_565 S
C373   O405    1.301   .     A
C373   C375    1.467   .     S
C373   O407    1.294   .     A
C374   O406    1.301   .     A
C374   C376    1.469   .     S
C374   O408    1.295   .     A
C375   C379    1.397   .     A
C375   C381    1.399   .     A
C376   C382    1.401   .     A
C376   C380    1.398   .     A
C377   C385    1.405   .     A
C377   C379    1.393   .     A
C378   C380    1.393   .     A
C378   C386    1.405   .     A
C378   H448    1.084   .     S
C379   H394    1.083   .     S
C380   H393    1.083   .     S
C381   C383    1.406   .     A
C381   H410    1.075   .     S
C382   C384    1.406   .     A
C382   H409    1.075   .     S
C383   C387    1.429   .     A
C383   C385    1.418   .     A
C384   C386    1.418   .     A
C384   C388    1.429   .     A
C385   C837    1.390   .     S
C386   C838    1.389   1_554 S
C387   C856    1.426   .     S
C388   C855    1.426   1_554 S
Cu389  O405    1.943   .     S
Cu389  O408    1.921   .     S
Cu389  O404    1.969   .     S
Cu389  N400    2.018   .     S
Cu389  O401    1.975   .     S
Cu389  Cu390   2.685   .     S
Cu390  O407    1.921   .     S
Cu390  O403    1.969   .     S
Cu390  N399    2.018   .     S
Cu390  O406    1.943   .     S
Cu390  O402    1.975   .     S
H395   C429    1.084   .     S
N399   N452    1.286   .     S
N399   H467    1.029   .     S
C411   N412    1.158   .     T
C413   N414    1.158   .     T
C413   C60     1.457   1_565 S
H416   N452    1.029   .     S
C417   O453    1.286   .     A
C417   C423    1.431   .     S
C417   O455    1.289   .     A
C418   O454    1.286   .     A
C418   O456    1.289   .     A
C418   C424    1.431   .     S
C419   C440    1.417   .     A
C419   H449    1.076   .     S
C419   C421    1.387   .     A
C420   H450    1.075   .     S
C420   C422    1.387   .     A
C420   C439    1.417   .     A
C421   H443    1.084   .     S
C421   C905    1.390   1_554 S
C422   C906    1.389   .     S
C422   H340    1.085   1_655 S
C423   C112    1.354   1_565 S
C423   C151    1.457   1_565 S
C425   O457    1.301   .     A
C425   C427    1.467   .     S
C425   O459    1.294   .     A
C426   O458    1.301   .     A
C426   C428    1.469   .     S
C426   O460    1.295   .     A
C427   C431    1.397   .     A
C427   C433    1.399   .     A
C428   C434    1.401   .     A
C428   C432    1.398   .     A
C429   C437    1.405   .     A
C429   C431    1.393   .     A
C430   C432    1.393   .     A
C430   C438    1.405   .     A
C430   H344    1.084   1_655 S
C431   H446    1.083   .     S
C432   H445    1.083   .     S
C433   C435    1.406   .     A
C433   H462    1.075   .     S
C434   C436    1.406   .     A
C434   H461    1.075   .     S
C435   C439    1.429   .     A
C435   C437    1.418   .     A
C436   C438    1.418   .     A
C436   C440    1.429   .     A
C437   C889    1.390   .     S
C438   C890    1.389   1_554 S
C439   C908    1.426   .     S
C440   C907    1.426   1_554 S
Cu441  O457    1.943   .     S
Cu441  O460    1.921   .     S
Cu441  O456    1.969   .     S
Cu441  N452    2.018   .     S
Cu441  O453    1.975   .     S
Cu441  Cu442   2.685   .     S
Cu442  O459    1.921   .     S
Cu442  O455    1.969   .     S
Cu442  N451    2.018   .     S
Cu442  O458    1.943   .     S
Cu442  O454    1.975   .     S
H447   C325    1.084   1_655 S
N451   N348    1.286   1_655 S
N451   H363    1.029   1_655 S
C463   N464    1.158   .     T
C465   N466    1.158   .     T
C465   C112    1.457   1_565 S
H468   N348    1.029   1_655 S
C469   O505    1.286   .     A
C469   C475    1.431   .     S
C469   O507    1.289   .     A
C470   O506    1.286   .     A
C470   O508    1.289   .     A
C470   C476    1.431   .     S
C471   C492    1.417   .     A
C471   H501    1.076   .     S
C471   C473    1.387   .     A
C472   H502    1.075   .     S
C472   C474    1.387   .     A
C472   C491    1.417   .     A
C473   H495    1.084   .     S
C474   C22     1.389   1_556 S
C474   H548    1.085   .     S
C475   C632    1.354   .     S
C475   C671    1.457   .     S
C476   C787    1.354   1_545 S
C476   C829    1.457   1_545 S
C477   O509    1.301   .     A
C477   C479    1.467   .     S
C477   O511    1.294   .     A
C478   O510    1.301   .     A
C478   C480    1.469   .     S
C478   O512    1.295   .     A
C479   C483    1.397   .     A
C479   C485    1.399   .     A
C480   C486    1.401   .     A
C480   C484    1.398   .     A
C481   C489    1.405   .     A
C481   C483    1.393   .     A
C481   H603    1.084   1_455 S
C482   C484    1.393   .     A
C482   C490    1.405   .     A
C482   H552    1.084   .     S
C483   H498    1.083   .     S
C484   H497    1.083   .     S
C485   C487    1.406   .     A
C485   H514    1.075   .     S
C486   C488    1.406   .     A
C486   H513    1.075   .     S
C487   C491    1.429   .     A
C487   C489    1.418   .     A
C488   C490    1.418   .     A
C488   C492    1.429   .     A
C489   C5      1.390   1_556 S
C491   C24     1.426   1_556 S
Cu493  O509    1.943   .     S
Cu493  O512    1.921   .     S
Cu493  O508    1.969   .     S
Cu493  N504    2.018   .     S
Cu493  O505    1.975   .     S
Cu493  Cu494   2.685   .     S
Cu494  O511    1.921   .     S
Cu494  O507    1.969   .     S
Cu494  N503    2.018   .     S
Cu494  O510    1.943   .     S
Cu494  O506    1.975   .     S
H496   C578    1.085   1_455 S
H499   C533    1.084   .     S
H500   C586    1.084   1_455 S
N503   N556    1.286   .     S
N503   H571    1.029   .     S
N504   N607    1.286   1_455 S
N504   H624    1.029   1_455 S
C515   N516    1.158   .     T
C515   C787    1.457   1_545 S
C517   N518    1.158   .     T
C517   C632    1.457   .     S
H519   N607    1.029   1_455 S
H520   N556    1.029   .     S
C521   O557    1.286   .     A
C521   C527    1.431   .     S
C521   O559    1.289   .     A
C522   O558    1.286   .     A
C522   O560    1.289   .     A
C522   C528    1.431   .     S
C523   C544    1.417   .     A
C523   H553    1.076   .     S
C523   C525    1.387   .     A
C524   H554    1.075   .     S
C524   C526    1.387   .     A
C524   C543    1.417   .     A
C525   H547    1.084   .     S
C526   C74     1.389   1_556 S
C526   H600    1.085   .     S
C527   C684    1.354   .     S
C527   C723    1.457   .     S
C528   C839    1.354   1_545 S
C528   C881    1.457   1_545 S
C529   O561    1.301   .     A
C529   C531    1.467   .     S
C529   O563    1.294   .     A
C530   O562    1.301   .     A
C530   C532    1.469   .     S
C530   O564    1.295   .     A
C531   C535    1.397   .     A
C531   C537    1.399   .     A
C532   C538    1.401   .     A
C532   C536    1.398   .     A
C533   C541    1.405   .     A
C533   C535    1.393   .     A
C534   C536    1.393   .     A
C534   C542    1.405   .     A
C534   H604    1.084   .     S
C535   H550    1.083   .     S
C536   H549    1.083   .     S
C537   C539    1.406   .     A
C537   H566    1.075   .     S
C538   C540    1.406   .     A
C538   H565    1.075   .     S
C539   C543    1.429   .     A
C539   C541    1.418   .     A
C540   C542    1.418   .     A
C540   C544    1.429   .     A
C541   C57     1.390   1_556 S
C543   C76     1.426   1_556 S
Cu545  O561    1.943   .     S
Cu545  O564    1.921   .     S
Cu545  O560    1.969   .     S
Cu545  N556    2.018   .     S
Cu545  O557    1.975   .     S
Cu545  Cu546   2.685   .     S
Cu546  O563    1.921   .     S
Cu546  O559    1.969   .     S
Cu546  N555    2.018   .     S
Cu546  O562    1.943   .     S
Cu546  O558    1.975   .     S
H551   C585    1.084   .     S
N555   N608    1.286   .     S
N555   H623    1.029   .     S
C567   N568    1.158   .     T
C567   C839    1.457   1_545 S
C569   N570    1.158   .     T
C569   C684    1.457   .     S
H572   N608    1.029   .     S
C573   O609    1.286   .     A
C573   C579    1.431   .     S
C573   O611    1.289   .     A
C574   O610    1.286   .     A
C574   O612    1.289   .     A
C574   C580    1.431   .     S
C575   C596    1.417   .     A
C575   H605    1.076   .     S
C575   C577    1.387   .     A
C576   H606    1.075   .     S
C576   C578    1.387   .     A
C576   C595    1.417   .     A
C577   H599    1.084   .     S
C578   C126    1.389   1_556 S
C578   H496    1.085   1_655 S
C579   C736    1.354   .     S
C579   C775    1.457   .     S
C580   C891    1.354   1_545 S
C580   C933    1.457   1_545 S
C581   O613    1.301   .     A
C581   C583    1.467   .     S
C581   O615    1.294   .     A
C582   O614    1.301   .     A
C582   C584    1.469   .     S
C582   O616    1.295   .     A
C583   C587    1.397   .     A
C583   C589    1.399   .     A
C584   C590    1.401   .     A
C584   C588    1.398   .     A
C585   C593    1.405   .     A
C585   C587    1.393   .     A
C586   C588    1.393   .     A
C586   C594    1.405   .     A
C586   H500    1.084   1_655 S
C587   H602    1.083   .     S
C588   H601    1.083   .     S
C589   C591    1.406   .     A
C589   H618    1.075   .     S
C590   C592    1.406   .     A
C590   H617    1.075   .     S
C591   C595    1.429   .     A
C591   C593    1.418   .     A
C592   C594    1.418   .     A
C592   C596    1.429   .     A
C593   C109    1.390   1_556 S
C595   C128    1.426   1_556 S
Cu597  O613    1.943   .     S
Cu597  O616    1.921   .     S
Cu597  O612    1.969   .     S
Cu597  N608    2.018   .     S
Cu597  O609    1.975   .     S
Cu597  Cu598   2.685   .     S
Cu598  O615    1.921   .     S
Cu598  O611    1.969   .     S
Cu598  N607    2.018   .     S
Cu598  O614    1.943   .     S
Cu598  O610    1.975   .     S
H603   C481    1.084   1_655 S
N607   N504    1.286   1_655 S
N607   H519    1.029   1_655 S
C619   N620    1.158   .     T
C619   C891    1.457   1_545 S
C621   N622    1.158   .     T
C621   C736    1.457   .     S
H624   N504    1.029   1_655 S
C625   O661    1.286   .     A
C625   C631    1.431   .     S
C625   O663    1.289   .     A
C626   O662    1.286   .     A
C626   O664    1.289   .     A
C626   C632    1.431   .     S
C627   C648    1.417   .     A
C627   H657    1.076   .     S
C627   C629    1.387   .     A
C628   H658    1.075   .     S
C628   C630    1.387   .     A
C628   C647    1.417   .     A
C629   H651    1.084   .     S
C630   C178    1.389   1_556 S
C630   H704    1.085   .     S
C631   C788    1.354   .     S
C631   C827    1.457   .     S
C633   O665    1.301   .     A
C633   C635    1.467   .     S
C633   O667    1.294   .     A
C634   O666    1.301   .     A
C634   C636    1.469   .     S
C634   O668    1.295   .     A
C635   C639    1.397   .     A
C635   C641    1.399   .     A
C636   C642    1.401   .     A
C636   C640    1.398   .     A
C637   C645    1.405   .     A
C637   C639    1.393   .     A
C637   H759    1.084   1_455 S
C638   C640    1.393   .     A
C638   C646    1.405   .     A
C638   H708    1.084   .     S
C639   H654    1.083   .     S
C640   H653    1.083   .     S
C641   C643    1.406   .     A
C641   H670    1.075   .     S
C642   C644    1.406   .     A
C642   H669    1.075   .     S
C643   C647    1.429   .     A
C643   C645    1.418   .     A
C644   C646    1.418   .     A
C644   C648    1.429   .     A
C645   C161    1.390   1_556 S
C647   C180    1.426   1_556 S
Cu649  O665    1.943   .     S
Cu649  O668    1.921   .     S
Cu649  O664    1.969   .     S
Cu649  N660    2.018   .     S
Cu649  O661    1.975   .     S
Cu649  Cu650   2.685   .     S
Cu650  O667    1.921   .     S
Cu650  O663    1.969   .     S
Cu650  N659    2.018   .     S
Cu650  O666    1.943   .     S
Cu650  O662    1.975   .     S
H652   C734    1.085   1_455 S
H655   C689    1.084   .     S
H656   C742    1.084   1_455 S
N659   N712    1.286   .     S
N659   H727    1.029   .     S
N660   N763    1.286   1_455 S
N660   H780    1.029   1_455 S
C671   N672    1.158   .     T
C673   N674    1.158   .     T
C673   C788    1.457   .     S
H675   N763    1.029   1_455 S
H676   N712    1.029   .     S
C677   O713    1.286   .     A
C677   C683    1.431   .     S
C677   O715    1.289   .     A
C678   O714    1.286   .     A
C678   O716    1.289   .     A
C678   C684    1.431   .     S
C679   C700    1.417   .     A
C679   H709    1.076   .     S
C679   C681    1.387   .     A
C680   H710    1.075   .     S
C680   C682    1.387   .     A
C680   C699    1.417   .     A
C681   H703    1.084   .     S
C682   C230    1.389   1_556 S
C682   H756    1.085   .     S
C683   C840    1.354   .     S
C683   C879    1.457   .     S
C685   O717    1.301   .     A
C685   C687    1.467   .     S
C685   O719    1.294   .     A
C686   O718    1.301   .     A
C686   C688    1.469   .     S
C686   O720    1.295   .     A
C687   C691    1.397   .     A
C687   C693    1.399   .     A
C688   C694    1.401   .     A
C688   C692    1.398   .     A
C689   C697    1.405   .     A
C689   C691    1.393   .     A
C690   C692    1.393   .     A
C690   C698    1.405   .     A
C690   H760    1.084   .     S
C691   H706    1.083   .     S
C692   H705    1.083   .     S
C693   C695    1.406   .     A
C693   H722    1.075   .     S
C694   C696    1.406   .     A
C694   H721    1.075   .     S
C695   C699    1.429   .     A
C695   C697    1.418   .     A
C696   C698    1.418   .     A
C696   C700    1.429   .     A
C697   C213    1.390   1_556 S
C699   C232    1.426   1_556 S
Cu701  O717    1.943   .     S
Cu701  O720    1.921   .     S
Cu701  O716    1.969   .     S
Cu701  N712    2.018   .     S
Cu701  O713    1.975   .     S
Cu701  Cu702   2.685   .     S
Cu702  O719    1.921   .     S
Cu702  O715    1.969   .     S
Cu702  N711    2.018   .     S
Cu702  O718    1.943   .     S
Cu702  O714    1.975   .     S
H707   C741    1.084   .     S
N711   N764    1.286   .     S
N711   H779    1.029   .     S
C723   N724    1.158   .     T
C725   N726    1.158   .     T
C725   C840    1.457   .     S
H728   N764    1.029   .     S
C729   O765    1.286   .     A
C729   C735    1.431   .     S
C729   O767    1.289   .     A
C730   O766    1.286   .     A
C730   O768    1.289   .     A
C730   C736    1.431   .     S
C731   C752    1.417   .     A
C731   H761    1.076   .     S
C731   C733    1.387   .     A
C732   H762    1.075   .     S
C732   C734    1.387   .     A
C732   C751    1.417   .     A
C733   H755    1.084   .     S
C734   C282    1.389   1_556 S
C734   H652    1.085   1_655 S
C735   C892    1.354   .     S
C735   C931    1.457   .     S
C737   O769    1.301   .     A
C737   C739    1.467   .     S
C737   O771    1.294   .     A
C738   O770    1.301   .     A
C738   C740    1.469   .     S
C738   O772    1.295   .     A
C739   C743    1.397   .     A
C739   C745    1.399   .     A
C740   C746    1.401   .     A
C740   C744    1.398   .     A
C741   C749    1.405   .     A
C741   C743    1.393   .     A
C742   C744    1.393   .     A
C742   C750    1.405   .     A
C742   H656    1.084   1_655 S
C743   H758    1.083   .     S
C744   H757    1.083   .     S
C745   C747    1.406   .     A
C745   H774    1.075   .     S
C746   C748    1.406   .     A
C746   H773    1.075   .     S
C747   C751    1.429   .     A
C747   C749    1.418   .     A
C748   C750    1.418   .     A
C748   C752    1.429   .     A
C749   C265    1.390   1_556 S
C751   C284    1.426   1_556 S
Cu753  O769    1.943   .     S
Cu753  O772    1.921   .     S
Cu753  O768    1.969   .     S
Cu753  N764    2.018   .     S
Cu753  O765    1.975   .     S
Cu753  Cu754   2.685   .     S
Cu754  O771    1.921   .     S
Cu754  O767    1.969   .     S
Cu754  N763    2.018   .     S
Cu754  O770    1.943   .     S
Cu754  O766    1.975   .     S
H759   C637    1.084   1_655 S
N763   N660    1.286   1_655 S
N763   H675    1.029   1_655 S
C775   N776    1.158   .     T
C777   N778    1.158   .     T
C777   C892    1.457   .     S
H780   N660    1.029   1_655 S
C781   O817    1.286   .     A
C781   C787    1.431   .     S
C781   O819    1.289   .     A
C782   O818    1.286   .     A
C782   O820    1.289   .     A
C782   C788    1.431   .     S
C783   C804    1.417   .     A
C783   H813    1.076   .     S
C783   C785    1.387   .     A
C784   H814    1.075   .     S
C784   C786    1.387   .     A
C784   C803    1.417   .     A
C785   H807    1.084   .     S
C786   C334    1.389   1_556 S
C786   H860    1.085   .     S
C787   C476    1.354   1_565 S
C787   C515    1.457   1_565 S
C789   O821    1.301   .     A
C789   C791    1.467   .     S
C789   O823    1.294   .     A
C790   O822    1.301   .     A
C790   C792    1.469   .     S
C790   O824    1.295   .     A
C791   C795    1.397   .     A
C791   C797    1.399   .     A
C792   C798    1.401   .     A
C792   C796    1.398   .     A
C793   C801    1.405   .     A
C793   C795    1.393   .     A
C793   H915    1.084   1_455 S
C794   C796    1.393   .     A
C794   C802    1.405   .     A
C794   H864    1.084   .     S
C795   H810    1.083   .     S
C796   H809    1.083   .     S
C797   C799    1.406   .     A
C797   H826    1.075   .     S
C798   C800    1.406   .     A
C798   H825    1.075   .     S
C799   C803    1.429   .     A
C799   C801    1.418   .     A
C800   C802    1.418   .     A
C800   C804    1.429   .     A
C801   C317    1.390   1_556 S
C803   C336    1.426   1_556 S
Cu805  O821    1.943   .     S
Cu805  O824    1.921   .     S
Cu805  O820    1.969   .     S
Cu805  N816    2.018   .     S
Cu805  O817    1.975   .     S
Cu805  Cu806   2.685   .     S
Cu806  O823    1.921   .     S
Cu806  O819    1.969   .     S
Cu806  N815    2.018   .     S
Cu806  O822    1.943   .     S
Cu806  O818    1.975   .     S
H808   C890    1.085   1_455 S
H811   C845    1.084   .     S
H812   C898    1.084   1_455 S
N815   N868    1.286   .     S
N815   H883    1.029   .     S
N816   N919    1.286   1_455 S
N816   H936    1.029   1_455 S
C827   N828    1.158   .     T
C829   N830    1.158   .     T
C829   C476    1.457   1_565 S
H831   N919    1.029   1_455 S
H832   N868    1.029   .     S
C833   O869    1.286   .     A
C833   C839    1.431   .     S
C833   O871    1.289   .     A
C834   O870    1.286   .     A
C834   O872    1.289   .     A
C834   C840    1.431   .     S
C835   C856    1.417   .     A
C835   H865    1.076   .     S
C835   C837    1.387   .     A
C836   H866    1.075   .     S
C836   C838    1.387   .     A
C836   C855    1.417   .     A
C837   H859    1.084   .     S
C838   C386    1.389   1_556 S
C838   H912    1.085   .     S
C839   C528    1.354   1_565 S
C839   C567    1.457   1_565 S
C841   O873    1.301   .     A
C841   C843    1.467   .     S
C841   O875    1.294   .     A
C842   O874    1.301   .     A
C842   C844    1.469   .     S
C842   O876    1.295   .     A
C843   C847    1.397   .     A
C843   C849    1.399   .     A
C844   C850    1.401   .     A
C844   C848    1.398   .     A
C845   C853    1.405   .     A
C845   C847    1.393   .     A
C846   C848    1.393   .     A
C846   C854    1.405   .     A
C846   H916    1.084   .     S
C847   H862    1.083   .     S
C848   H861    1.083   .     S
C849   C851    1.406   .     A
C849   H878    1.075   .     S
C850   C852    1.406   .     A
C850   H877    1.075   .     S
C851   C855    1.429   .     A
C851   C853    1.418   .     A
C852   C854    1.418   .     A
C852   C856    1.429   .     A
C853   C369    1.390   1_556 S
C855   C388    1.426   1_556 S
Cu857  O873    1.943   .     S
Cu857  O876    1.921   .     S
Cu857  O872    1.969   .     S
Cu857  N868    2.018   .     S
Cu857  O869    1.975   .     S
Cu857  Cu858   2.685   .     S
Cu858  O875    1.921   .     S
Cu858  O871    1.969   .     S
Cu858  N867    2.018   .     S
Cu858  O874    1.943   .     S
Cu858  O870    1.975   .     S
H863   C897    1.084   .     S
N867   N920    1.286   .     S
N867   H935    1.029   .     S
C879   N880    1.158   .     T
C881   N882    1.158   .     T
C881   C528    1.457   1_565 S
H884   N920    1.029   .     S
C885   O921    1.286   .     A
C885   C891    1.431   .     S
C885   O923    1.289   .     A
C886   O922    1.286   .     A
C886   O924    1.289   .     A
C886   C892    1.431   .     S
C887   C908    1.417   .     A
C887   H917    1.076   .     S
C887   C889    1.387   .     A
C888   H918    1.075   .     S
C888   C890    1.387   .     A
C888   C907    1.417   .     A
C889   H911    1.084   .     S
C890   C438    1.389   1_556 S
C890   H808    1.085   1_655 S
C891   C580    1.354   1_565 S
C891   C619    1.457   1_565 S
C893   O925    1.301   .     A
C893   C895    1.467   .     S
C893   O927    1.294   .     A
C894   O926    1.301   .     A
C894   C896    1.469   .     S
C894   O928    1.295   .     A
C895   C899    1.397   .     A
C895   C901    1.399   .     A
C896   C902    1.401   .     A
C896   C900    1.398   .     A
C897   C905    1.405   .     A
C897   C899    1.393   .     A
C898   C900    1.393   .     A
C898   C906    1.405   .     A
C898   H812    1.084   1_655 S
C899   H914    1.083   .     S
C900   H913    1.083   .     S
C901   C903    1.406   .     A
C901   H930    1.075   .     S
C902   C904    1.406   .     A
C902   H929    1.075   .     S
C903   C907    1.429   .     A
C903   C905    1.418   .     A
C904   C906    1.418   .     A
C904   C908    1.429   .     A
C905   C421    1.390   1_556 S
C907   C440    1.426   1_556 S
Cu909  O925    1.943   .     S
Cu909  O928    1.921   .     S
Cu909  O924    1.969   .     S
Cu909  N920    2.018   .     S
Cu909  O921    1.975   .     S
Cu909  Cu910   2.685   .     S
Cu910  O927    1.921   .     S
Cu910  O923    1.969   .     S
Cu910  N919    2.018   .     S
Cu910  O926    1.943   .     S
Cu910  O922    1.975   .     S
H915   C793    1.084   1_655 S
N919   N816    1.286   1_655 S
N919   H831    1.029   1_655 S
C931   N932    1.158   .     T
C933   N934    1.158   .     T
C933   C580    1.457   1_565 S
H936   N816    1.029   1_655 S
