data_str_m3_o1_o16_pcu_sym.104
_audit_creation_date              2020-01-03
_audit_creation_method            'Materials Studio'
_symmetry_space_group_name_H-M    'P1'
_symmetry_Int_Tables_number       1
_symmetry_cell_setting            triclinic
loop_
_symmetry_equiv_pos_as_xyz
  x,y,z
_cell_length_a                    30.0128
_cell_length_b                    32.1054
_cell_length_c                    26.1806
_cell_angle_alpha                 93.6039
_cell_angle_beta                  69.9245
_cell_angle_gamma                 89.5195
loop_
_atom_site_label
_atom_site_type_symbol
_atom_site_fract_x
_atom_site_fract_y
_atom_site_fract_z
_atom_site_U_iso_or_equiv
_atom_site_adp_type
_atom_site_occupancy
C1     C     0.16609   0.24661   0.25140   0.00000  Uiso   1.00
C2     C     0.15038   0.16059   0.48720   0.00000  Uiso   1.00
C3     C     0.14789   0.18216   0.44247   0.00000  Uiso   1.00
C4     C     0.18182   0.17460   0.01408   0.00000  Uiso   1.00
C5     C     0.20955   0.21001   0.49675   0.00000  Uiso   1.00
C6     C     0.20368   0.23274   0.45593   0.00000  Uiso   1.00
C7     C     0.17118   0.22094   0.43070   0.00000  Uiso   1.00
C8     C     0.18483   0.15586   0.05971   0.00000  Uiso   1.00
C9     C     0.23961   0.20719   0.07122   0.00000  Uiso   1.00
C10    C     0.12311   0.16344   0.41027   0.00000  Uiso   1.00
C11    C     0.19888   0.31162   0.27268   0.00000  Uiso   1.00
C12    C     0.14006   0.16738   0.35196   0.00000  Uiso   1.00
C13    C     0.19894   0.02141   0.27669   0.00000  Uiso   1.00
C14    C     0.16365   0.04320   0.26286   0.00000  Uiso   1.00
C15    C     0.12549   0.02205   0.25531   0.00000  Uiso   1.00
C16    C     0.12592   0.31274   0.25207   0.00000  Uiso   1.00
C17    C     0.16389   0.29100   0.25798   0.00000  Uiso   1.00
C18    C     0.32079   0.14210   0.21138   0.00000  Uiso   1.00
C19    C     0.03541   0.14071   0.21225   0.00000  Uiso   1.00
C20    C     0.01157   0.19071   0.28831   0.00000  Uiso   1.00
C21    C     0.29763   0.19053   0.28775   0.00000  Uiso   1.00
C22    C     0.16574   0.08704   0.25419   0.00000  Uiso   1.00
C23    C     0.19327   0.16709   0.14812   0.00000  Uiso   1.00
C24    C     0.24028   0.22450   0.02360   0.00000  Uiso   1.00
C25    C     0.20953   0.17442   0.09067   0.00000  Uiso   1.00
C26    C     0.09269   0.13061   0.42886   0.00000  Uiso   1.00
C27    C     0.09141   0.11227   0.47562   0.00000  Uiso   1.00
C28    C     0.12112   0.12580   0.00335   0.00000  Uiso   1.00
H29    H     0.25905   0.22177   0.09521   0.00000  Uiso   1.00
H30    H     0.09617   0.03822   0.24911   0.00000  Uiso   1.00
H31    H     0.09736   0.29696   0.24320   0.00000  Uiso   1.00
H32    H     0.27010   0.20974   0.31807   0.00000  Uiso   1.00
H33    H     0.22290   0.26127   0.44575   0.00000  Uiso   1.00
H34    H     0.26183   0.25136   0.01036   0.00000  Uiso   1.00
H35    H     0.16510   0.12898   0.07557   0.00000  Uiso   1.00
H36    H     0.07365   0.11625   0.40425   0.00000  Uiso   1.00
H37    H     0.12022   0.10795   0.03692   0.00000  Uiso   1.00
H38    H     0.06978   0.08543   0.48830   0.00000  Uiso   1.00
H39    H     0.22612   0.29400   0.28135   0.00000  Uiso   1.00
N40    N     0.04760   0.16668   0.25001   0.00000  Uiso   1.00
N41    N     0.28573   0.16665   0.25000   0.00000  Uiso   1.00
O42    O     0.12846   0.22775   0.25000   0.00000  Uiso   1.00
O43    O     0.20490   0.22774   0.25000   0.00000  Uiso   1.00
O44    O     0.10947   0.16666   0.32681   0.00000  Uiso   1.00
O45    O     0.18591   0.16665   0.32681   0.00000  Uiso   1.00
O46    O     0.12843   0.10559   0.24999   0.00000  Uiso   1.00
O47    O     0.20488   0.10558   0.24999   0.00000  Uiso   1.00
O48    O     0.14742   0.16668   0.17319   0.00000  Uiso   1.00
O49    O     0.22387   0.16667   0.17319   0.00000  Uiso   1.00
Zn50   Zn    0.11562   0.16667   0.25000   0.00000  Uiso   1.00
Zn51   Zn    0.21771   0.16666   0.25000   0.00000  Uiso   1.00
C52    C     0.23564   0.04169   0.29767   0.00000  Uiso   1.00
C53    C     0.21217   0.06434   0.35384   0.00000  Uiso   1.00
H54    H     0.23946   0.08042   0.36696   0.00000  Uiso   1.00
H55    H     0.18525   0.08785   0.35318   0.00000  Uiso   1.00
H56    H     0.19450   0.04157   0.38410   0.00000  Uiso   1.00
H57    H     0.26081   0.01777   0.30218   0.00000  Uiso   1.00
H58    H     0.25865   0.06259   0.26836   0.00000  Uiso   1.00
C59    C     0.30743   0.11572   0.16906   0.00000  Uiso   1.00
C60    C     0.32569   0.13199   0.11170   0.00000  Uiso   1.00
C61    C     0.30835   0.10544   0.07217   0.00000  Uiso   1.00
H62    H     0.32435   0.07338   0.06588   0.00000  Uiso   1.00
H63    H     0.26913   0.10344   0.08811   0.00000  Uiso   1.00
H64    H     0.31883   0.11967   0.03232   0.00000  Uiso   1.00
H65    H     0.31300   0.16484   0.11362   0.00000  Uiso   1.00
H66    H     0.03140   0.13168   0.09483   0.00000  Uiso   1.00
H67    H     0.31488   0.08233   0.17035   0.00000  Uiso   1.00
H68    H     0.26965   0.11458   0.18033   0.00000  Uiso   1.00
C69    C     0.07446   0.11416   0.16804   0.00000  Uiso   1.00
C70    C     0.06727   0.06753   0.15539   0.00000  Uiso   1.00
C71    C     0.11451   0.04276   0.12952   0.00000  Uiso   1.00
H72    H     0.13400   0.05328   0.08842   0.00000  Uiso   1.00
H73    H     0.13763   0.04673   0.15445   0.00000  Uiso   1.00
H74    H     0.10753   0.00904   0.12525   0.00000  Uiso   1.00
H75    H     0.04557   0.05322   0.19321   0.00000  Uiso   1.00
H76    H     0.05041   0.06405   0.12389   0.00000  Uiso   1.00
H77    H     0.08627   0.13082   0.13029   0.00000  Uiso   1.00
H78    H     0.10435   0.11234   0.18096   0.00000  Uiso   1.00
C79    C     0.02003   0.21744   0.33327   0.00000  Uiso   1.00
C80    C     0.33304   0.19756   0.38768   0.00000  Uiso   1.00
H81    H     0.01705   0.16651   0.38545   0.00000  Uiso   1.00
H82    H     0.00572   0.21787   0.42044   0.00000  Uiso   1.00
H83    H     0.29432   0.19350   0.39841   0.00000  Uiso   1.00
H84    H     0.05787   0.22281   0.32480   0.00000  Uiso   1.00
H85    H     0.00280   0.24879   0.33672   0.00000  Uiso   1.00
C86    C     0.15888   0.25305   0.39680   0.00000  Uiso   1.00
C87    C     0.10695   0.26794   0.42105   0.00000  Uiso   1.00
H88    H     0.10012   0.29256   0.39644   0.00000  Uiso   1.00
H89    H     0.09882   0.28119   0.46361   0.00000  Uiso   1.00
H90    H     0.08303   0.24191   0.42071   0.00000  Uiso   1.00
H91    H     0.18073   0.28115   0.39450   0.00000  Uiso   1.00
H92    H     0.16723   0.24120   0.35421   0.00000  Uiso   1.00
C93    C     0.49943   0.24661   0.25140   0.00000  Uiso   1.00
C94    C     0.48371   0.16059   0.48720   0.00000  Uiso   1.00
C95    C     0.48123   0.18216   0.44247   0.00000  Uiso   1.00
C96    C     0.51515   0.17460   0.01408   0.00000  Uiso   1.00
C97    C     0.54288   0.21001   0.49675   0.00000  Uiso   1.00
C98    C     0.53701   0.23274   0.45593   0.00000  Uiso   1.00
C99    C     0.50451   0.22094   0.43070   0.00000  Uiso   1.00
C100   C     0.51817   0.15586   0.05971   0.00000  Uiso   1.00
C101   C     0.57294   0.20719   0.07122   0.00000  Uiso   1.00
C102   C     0.45645   0.16344   0.41027   0.00000  Uiso   1.00
C103   C     0.53222   0.31162   0.27268   0.00000  Uiso   1.00
C104   C     0.47339   0.16738   0.35196   0.00000  Uiso   1.00
C105   C     0.53228   0.02141   0.27669   0.00000  Uiso   1.00
C106   C     0.49699   0.04320   0.26286   0.00000  Uiso   1.00
C107   C     0.45882   0.02205   0.25531   0.00000  Uiso   1.00
C108   C     0.45926   0.31274   0.25207   0.00000  Uiso   1.00
C109   C     0.49723   0.29100   0.25798   0.00000  Uiso   1.00
C110   C     0.65413   0.14210   0.21138   0.00000  Uiso   1.00
C111   C     0.36874   0.14071   0.21225   0.00000  Uiso   1.00
C112   C     0.34490   0.19071   0.28831   0.00000  Uiso   1.00
C113   C     0.63097   0.19053   0.28775   0.00000  Uiso   1.00
C114   C     0.49907   0.08704   0.25419   0.00000  Uiso   1.00
C115   C     0.52660   0.16709   0.14812   0.00000  Uiso   1.00
C116   C     0.57362   0.22450   0.02360   0.00000  Uiso   1.00
C117   C     0.54286   0.17442   0.09067   0.00000  Uiso   1.00
C118   C     0.42602   0.13061   0.42886   0.00000  Uiso   1.00
C119   C     0.42474   0.11227   0.47562   0.00000  Uiso   1.00
C120   C     0.45445   0.12580   0.00335   0.00000  Uiso   1.00
H121   H     0.59239   0.22177   0.09521   0.00000  Uiso   1.00
H122   H     0.42950   0.03822   0.24911   0.00000  Uiso   1.00
H123   H     0.43069   0.29696   0.24320   0.00000  Uiso   1.00
H124   H     0.60343   0.20974   0.31807   0.00000  Uiso   1.00
H125   H     0.55623   0.26127   0.44575   0.00000  Uiso   1.00
H126   H     0.59516   0.25136   0.01036   0.00000  Uiso   1.00
H127   H     0.49843   0.12898   0.07557   0.00000  Uiso   1.00
H128   H     0.40698   0.11625   0.40425   0.00000  Uiso   1.00
H129   H     0.45355   0.10795   0.03692   0.00000  Uiso   1.00
H130   H     0.40312   0.08543   0.48830   0.00000  Uiso   1.00
H131   H     0.55945   0.29400   0.28135   0.00000  Uiso   1.00
N132   N     0.38093   0.16668   0.25001   0.00000  Uiso   1.00
N133   N     0.61906   0.16665   0.25000   0.00000  Uiso   1.00
O134   O     0.46179   0.22775   0.25000   0.00000  Uiso   1.00
O135   O     0.53823   0.22774   0.25000   0.00000  Uiso   1.00
O136   O     0.44280   0.16666   0.32681   0.00000  Uiso   1.00
O137   O     0.51924   0.16665   0.32681   0.00000  Uiso   1.00
O138   O     0.46177   0.10559   0.24999   0.00000  Uiso   1.00
O139   O     0.53821   0.10558   0.24999   0.00000  Uiso   1.00
O140   O     0.48076   0.16668   0.17319   0.00000  Uiso   1.00
O141   O     0.55720   0.16667   0.17319   0.00000  Uiso   1.00
Zn142  Zn    0.44896   0.16667   0.25000   0.00000  Uiso   1.00
Zn143  Zn    0.55104   0.16666   0.25000   0.00000  Uiso   1.00
C144   C     0.56897   0.04169   0.29767   0.00000  Uiso   1.00
C145   C     0.54550   0.06434   0.35384   0.00000  Uiso   1.00
H146   H     0.57279   0.08042   0.36696   0.00000  Uiso   1.00
H147   H     0.51858   0.08785   0.35318   0.00000  Uiso   1.00
H148   H     0.52783   0.04157   0.38410   0.00000  Uiso   1.00
H149   H     0.59414   0.01777   0.30218   0.00000  Uiso   1.00
H150   H     0.59199   0.06259   0.26836   0.00000  Uiso   1.00
C151   C     0.64076   0.11572   0.16906   0.00000  Uiso   1.00
C152   C     0.65902   0.13199   0.11170   0.00000  Uiso   1.00
C153   C     0.64168   0.10544   0.07217   0.00000  Uiso   1.00
H154   H     0.65768   0.07338   0.06588   0.00000  Uiso   1.00
H155   H     0.60246   0.10344   0.08811   0.00000  Uiso   1.00
H156   H     0.65216   0.11967   0.03232   0.00000  Uiso   1.00
H157   H     0.64634   0.16484   0.11362   0.00000  Uiso   1.00
H158   H     0.36473   0.13168   0.09483   0.00000  Uiso   1.00
H159   H     0.64822   0.08233   0.17035   0.00000  Uiso   1.00
H160   H     0.60298   0.11458   0.18033   0.00000  Uiso   1.00
C161   C     0.40779   0.11416   0.16804   0.00000  Uiso   1.00
C162   C     0.40060   0.06753   0.15539   0.00000  Uiso   1.00
C163   C     0.44784   0.04276   0.12952   0.00000  Uiso   1.00
H164   H     0.46734   0.05328   0.08842   0.00000  Uiso   1.00
H165   H     0.47097   0.04673   0.15445   0.00000  Uiso   1.00
H166   H     0.44086   0.00904   0.12525   0.00000  Uiso   1.00
H167   H     0.37891   0.05322   0.19321   0.00000  Uiso   1.00
H168   H     0.38374   0.06405   0.12389   0.00000  Uiso   1.00
H169   H     0.41960   0.13082   0.13029   0.00000  Uiso   1.00
H170   H     0.43769   0.11234   0.18096   0.00000  Uiso   1.00
C171   C     0.35336   0.21744   0.33327   0.00000  Uiso   1.00
C172   C     0.66638   0.19756   0.38768   0.00000  Uiso   1.00
H173   H     0.35038   0.16651   0.38545   0.00000  Uiso   1.00
H174   H     0.33906   0.21787   0.42044   0.00000  Uiso   1.00
H175   H     0.62765   0.19350   0.39841   0.00000  Uiso   1.00
H176   H     0.39120   0.22281   0.32480   0.00000  Uiso   1.00
H177   H     0.33614   0.24879   0.33672   0.00000  Uiso   1.00
C178   C     0.49221   0.25305   0.39680   0.00000  Uiso   1.00
C179   C     0.44029   0.26794   0.42105   0.00000  Uiso   1.00
H180   H     0.43345   0.29256   0.39644   0.00000  Uiso   1.00
H181   H     0.43215   0.28119   0.46361   0.00000  Uiso   1.00
H182   H     0.41636   0.24191   0.42071   0.00000  Uiso   1.00
H183   H     0.51407   0.28115   0.39450   0.00000  Uiso   1.00
H184   H     0.50056   0.24120   0.35421   0.00000  Uiso   1.00
C185   C     0.83276   0.24661   0.25140   0.00000  Uiso   1.00
C186   C     0.81705   0.16059   0.48720   0.00000  Uiso   1.00
C187   C     0.81456   0.18216   0.44247   0.00000  Uiso   1.00
C188   C     0.84849   0.17460   0.01408   0.00000  Uiso   1.00
C189   C     0.87621   0.21001   0.49675   0.00000  Uiso   1.00
C190   C     0.87035   0.23274   0.45593   0.00000  Uiso   1.00
C191   C     0.83784   0.22094   0.43070   0.00000  Uiso   1.00
C192   C     0.85150   0.15586   0.05971   0.00000  Uiso   1.00
C193   C     0.90628   0.20719   0.07122   0.00000  Uiso   1.00
C194   C     0.78978   0.16344   0.41027   0.00000  Uiso   1.00
C195   C     0.86555   0.31162   0.27268   0.00000  Uiso   1.00
C196   C     0.80673   0.16738   0.35196   0.00000  Uiso   1.00
C197   C     0.86561   0.02141   0.27669   0.00000  Uiso   1.00
C198   C     0.83032   0.04320   0.26286   0.00000  Uiso   1.00
C199   C     0.79215   0.02205   0.25531   0.00000  Uiso   1.00
C200   C     0.79259   0.31274   0.25207   0.00000  Uiso   1.00
C201   C     0.83056   0.29100   0.25798   0.00000  Uiso   1.00
C202   C     0.98746   0.14210   0.21138   0.00000  Uiso   1.00
C203   C     0.70207   0.14071   0.21225   0.00000  Uiso   1.00
C204   C     0.67824   0.19071   0.28831   0.00000  Uiso   1.00
C205   C     0.96430   0.19053   0.28775   0.00000  Uiso   1.00
C206   C     0.83241   0.08704   0.25419   0.00000  Uiso   1.00
C207   C     0.85993   0.16709   0.14812   0.00000  Uiso   1.00
C208   C     0.90695   0.22450   0.02360   0.00000  Uiso   1.00
C209   C     0.87619   0.17442   0.09067   0.00000  Uiso   1.00
C210   C     0.75936   0.13061   0.42886   0.00000  Uiso   1.00
C211   C     0.75808   0.11227   0.47562   0.00000  Uiso   1.00
C212   C     0.78779   0.12580   0.00335   0.00000  Uiso   1.00
H213   H     0.92572   0.22177   0.09521   0.00000  Uiso   1.00
H214   H     0.76284   0.03822   0.24911   0.00000  Uiso   1.00
H215   H     0.76403   0.29696   0.24320   0.00000  Uiso   1.00
H216   H     0.93676   0.20974   0.31807   0.00000  Uiso   1.00
H217   H     0.88957   0.26127   0.44575   0.00000  Uiso   1.00
H218   H     0.92850   0.25136   0.01036   0.00000  Uiso   1.00
H219   H     0.83177   0.12898   0.07557   0.00000  Uiso   1.00
H220   H     0.74032   0.11625   0.40425   0.00000  Uiso   1.00
H221   H     0.78688   0.10795   0.03692   0.00000  Uiso   1.00
H222   H     0.73645   0.08543   0.48830   0.00000  Uiso   1.00
H223   H     0.89279   0.29400   0.28135   0.00000  Uiso   1.00
N224   N     0.71426   0.16668   0.25001   0.00000  Uiso   1.00
N225   N     0.95239   0.16665   0.25000   0.00000  Uiso   1.00
O226   O     0.79512   0.22775   0.25000   0.00000  Uiso   1.00
O227   O     0.87157   0.22774   0.25000   0.00000  Uiso   1.00
O228   O     0.77613   0.16666   0.32681   0.00000  Uiso   1.00
O229   O     0.85258   0.16665   0.32681   0.00000  Uiso   1.00
O230   O     0.79510   0.10559   0.24999   0.00000  Uiso   1.00
O231   O     0.87154   0.10558   0.24999   0.00000  Uiso   1.00
O232   O     0.81409   0.16668   0.17319   0.00000  Uiso   1.00
O233   O     0.89053   0.16667   0.17319   0.00000  Uiso   1.00
Zn234  Zn    0.78229   0.16667   0.25000   0.00000  Uiso   1.00
Zn235  Zn    0.88438   0.16666   0.25000   0.00000  Uiso   1.00
C236   C     0.90231   0.04169   0.29767   0.00000  Uiso   1.00
C237   C     0.87884   0.06434   0.35384   0.00000  Uiso   1.00
H238   H     0.90612   0.08042   0.36696   0.00000  Uiso   1.00
H239   H     0.85192   0.08785   0.35318   0.00000  Uiso   1.00
H240   H     0.86116   0.04157   0.38410   0.00000  Uiso   1.00
H241   H     0.92748   0.01777   0.30218   0.00000  Uiso   1.00
H242   H     0.92532   0.06259   0.26836   0.00000  Uiso   1.00
C243   C     0.97410   0.11572   0.16906   0.00000  Uiso   1.00
C244   C     0.99235   0.13199   0.11170   0.00000  Uiso   1.00
C245   C     0.97501   0.10544   0.07217   0.00000  Uiso   1.00
H246   H     0.99102   0.07338   0.06588   0.00000  Uiso   1.00
H247   H     0.93579   0.10344   0.08811   0.00000  Uiso   1.00
H248   H     0.98549   0.11967   0.03232   0.00000  Uiso   1.00
H249   H     0.97967   0.16484   0.11362   0.00000  Uiso   1.00
H250   H     0.69806   0.13168   0.09483   0.00000  Uiso   1.00
H251   H     0.98155   0.08233   0.17035   0.00000  Uiso   1.00
H252   H     0.93631   0.11458   0.18033   0.00000  Uiso   1.00
C253   C     0.74113   0.11416   0.16804   0.00000  Uiso   1.00
C254   C     0.73393   0.06753   0.15539   0.00000  Uiso   1.00
C255   C     0.78117   0.04276   0.12952   0.00000  Uiso   1.00
H256   H     0.80067   0.05328   0.08842   0.00000  Uiso   1.00
H257   H     0.80430   0.04673   0.15445   0.00000  Uiso   1.00
H258   H     0.77420   0.00904   0.12525   0.00000  Uiso   1.00
H259   H     0.71224   0.05322   0.19321   0.00000  Uiso   1.00
H260   H     0.71707   0.06405   0.12389   0.00000  Uiso   1.00
H261   H     0.75294   0.13082   0.13029   0.00000  Uiso   1.00
H262   H     0.77102   0.11234   0.18096   0.00000  Uiso   1.00
C263   C     0.68670   0.21744   0.33327   0.00000  Uiso   1.00
C264   C     0.99971   0.19756   0.38768   0.00000  Uiso   1.00
H265   H     0.68372   0.16651   0.38545   0.00000  Uiso   1.00
H266   H     0.67239   0.21787   0.42044   0.00000  Uiso   1.00
H267   H     0.96098   0.19350   0.39841   0.00000  Uiso   1.00
H268   H     0.72454   0.22281   0.32480   0.00000  Uiso   1.00
H269   H     0.66947   0.24879   0.33672   0.00000  Uiso   1.00
C270   C     0.82555   0.25305   0.39680   0.00000  Uiso   1.00
C271   C     0.77362   0.26794   0.42105   0.00000  Uiso   1.00
H272   H     0.76678   0.29256   0.39644   0.00000  Uiso   1.00
H273   H     0.76548   0.28119   0.46361   0.00000  Uiso   1.00
H274   H     0.74970   0.24191   0.42071   0.00000  Uiso   1.00
H275   H     0.84740   0.28115   0.39450   0.00000  Uiso   1.00
H276   H     0.83389   0.24120   0.35421   0.00000  Uiso   1.00
C277   C     0.16609   0.57994   0.25140   0.00000  Uiso   1.00
C278   C     0.15038   0.49392   0.48720   0.00000  Uiso   1.00
C279   C     0.14789   0.51549   0.44247   0.00000  Uiso   1.00
C280   C     0.18182   0.50794   0.01408   0.00000  Uiso   1.00
C281   C     0.20955   0.54335   0.49675   0.00000  Uiso   1.00
C282   C     0.20368   0.56607   0.45593   0.00000  Uiso   1.00
C283   C     0.17118   0.55427   0.43070   0.00000  Uiso   1.00
C284   C     0.18483   0.48919   0.05971   0.00000  Uiso   1.00
C285   C     0.23961   0.54052   0.07122   0.00000  Uiso   1.00
C286   C     0.12311   0.49677   0.41027   0.00000  Uiso   1.00
C287   C     0.19888   0.64495   0.27268   0.00000  Uiso   1.00
C288   C     0.14006   0.50072   0.35196   0.00000  Uiso   1.00
C289   C     0.19894   0.35474   0.27669   0.00000  Uiso   1.00
C290   C     0.16365   0.37653   0.26286   0.00000  Uiso   1.00
C291   C     0.12549   0.35538   0.25531   0.00000  Uiso   1.00
C292   C     0.12592   0.64607   0.25207   0.00000  Uiso   1.00
C293   C     0.16389   0.62433   0.25798   0.00000  Uiso   1.00
C294   C     0.32079   0.47543   0.21138   0.00000  Uiso   1.00
C295   C     0.03541   0.47404   0.21225   0.00000  Uiso   1.00
C296   C     0.01157   0.52405   0.28831   0.00000  Uiso   1.00
C297   C     0.29763   0.52386   0.28775   0.00000  Uiso   1.00
C298   C     0.16574   0.42037   0.25419   0.00000  Uiso   1.00
C299   C     0.19327   0.50042   0.14812   0.00000  Uiso   1.00
C300   C     0.24028   0.55783   0.02360   0.00000  Uiso   1.00
C301   C     0.20953   0.50775   0.09067   0.00000  Uiso   1.00
C302   C     0.09269   0.46395   0.42886   0.00000  Uiso   1.00
C303   C     0.09141   0.44560   0.47562   0.00000  Uiso   1.00
C304   C     0.12112   0.45914   0.00335   0.00000  Uiso   1.00
H305   H     0.25905   0.55511   0.09521   0.00000  Uiso   1.00
H306   H     0.09617   0.37155   0.24911   0.00000  Uiso   1.00
H307   H     0.09736   0.63029   0.24320   0.00000  Uiso   1.00
H308   H     0.27010   0.54307   0.31807   0.00000  Uiso   1.00
H309   H     0.22290   0.59460   0.44575   0.00000  Uiso   1.00
H310   H     0.26183   0.58469   0.01036   0.00000  Uiso   1.00
H311   H     0.16510   0.46232   0.07557   0.00000  Uiso   1.00
H312   H     0.07365   0.44958   0.40425   0.00000  Uiso   1.00
H313   H     0.12022   0.44129   0.03692   0.00000  Uiso   1.00
H314   H     0.06978   0.41877   0.48830   0.00000  Uiso   1.00
H315   H     0.22612   0.62734   0.28135   0.00000  Uiso   1.00
N316   N     0.04760   0.50001   0.25001   0.00000  Uiso   1.00
N317   N     0.28573   0.49998   0.25000   0.00000  Uiso   1.00
O318   O     0.12846   0.56108   0.25000   0.00000  Uiso   1.00
O319   O     0.20490   0.56107   0.25000   0.00000  Uiso   1.00
O320   O     0.10947   0.50000   0.32681   0.00000  Uiso   1.00
O321   O     0.18591   0.49999   0.32681   0.00000  Uiso   1.00
O322   O     0.12843   0.43893   0.24999   0.00000  Uiso   1.00
O323   O     0.20488   0.43892   0.24999   0.00000  Uiso   1.00
O324   O     0.14742   0.50001   0.17319   0.00000  Uiso   1.00
O325   O     0.22387   0.50000   0.17319   0.00000  Uiso   1.00
Zn326  Zn    0.11562   0.50001   0.25000   0.00000  Uiso   1.00
Zn327  Zn    0.21771   0.49999   0.25000   0.00000  Uiso   1.00
C328   C     0.23564   0.37502   0.29767   0.00000  Uiso   1.00
C329   C     0.21217   0.39768   0.35384   0.00000  Uiso   1.00
H330   H     0.23946   0.41376   0.36696   0.00000  Uiso   1.00
H331   H     0.18525   0.42118   0.35318   0.00000  Uiso   1.00
H332   H     0.19450   0.37490   0.38410   0.00000  Uiso   1.00
H333   H     0.26081   0.35110   0.30218   0.00000  Uiso   1.00
H334   H     0.25865   0.39592   0.26836   0.00000  Uiso   1.00
C335   C     0.30743   0.44905   0.16906   0.00000  Uiso   1.00
C336   C     0.32569   0.46532   0.11170   0.00000  Uiso   1.00
C337   C     0.30835   0.43878   0.07217   0.00000  Uiso   1.00
H338   H     0.32435   0.40671   0.06588   0.00000  Uiso   1.00
H339   H     0.26913   0.43678   0.08811   0.00000  Uiso   1.00
H340   H     0.31883   0.45300   0.03232   0.00000  Uiso   1.00
H341   H     0.31300   0.49817   0.11362   0.00000  Uiso   1.00
H342   H     0.03140   0.46502   0.09483   0.00000  Uiso   1.00
H343   H     0.31488   0.41567   0.17035   0.00000  Uiso   1.00
H344   H     0.26965   0.44791   0.18033   0.00000  Uiso   1.00
C345   C     0.07446   0.44750   0.16804   0.00000  Uiso   1.00
C346   C     0.06727   0.40087   0.15539   0.00000  Uiso   1.00
C347   C     0.11451   0.37609   0.12952   0.00000  Uiso   1.00
H348   H     0.13400   0.38662   0.08842   0.00000  Uiso   1.00
H349   H     0.13763   0.38006   0.15445   0.00000  Uiso   1.00
H350   H     0.10753   0.34237   0.12525   0.00000  Uiso   1.00
H351   H     0.04557   0.38655   0.19321   0.00000  Uiso   1.00
H352   H     0.05041   0.39739   0.12389   0.00000  Uiso   1.00
H353   H     0.08627   0.46415   0.13029   0.00000  Uiso   1.00
H354   H     0.10435   0.44568   0.18096   0.00000  Uiso   1.00
C355   C     0.02003   0.55077   0.33327   0.00000  Uiso   1.00
C356   C     0.33304   0.53089   0.38768   0.00000  Uiso   1.00
H357   H     0.01705   0.49985   0.38545   0.00000  Uiso   1.00
H358   H     0.00572   0.55120   0.42044   0.00000  Uiso   1.00
H359   H     0.29432   0.52683   0.39841   0.00000  Uiso   1.00
H360   H     0.05787   0.55615   0.32480   0.00000  Uiso   1.00
H361   H     0.00280   0.58212   0.33672   0.00000  Uiso   1.00
C362   C     0.15888   0.58639   0.39680   0.00000  Uiso   1.00
C363   C     0.10695   0.60128   0.42105   0.00000  Uiso   1.00
H364   H     0.10012   0.62590   0.39644   0.00000  Uiso   1.00
H365   H     0.09882   0.61452   0.46361   0.00000  Uiso   1.00
H366   H     0.08303   0.57525   0.42071   0.00000  Uiso   1.00
H367   H     0.18073   0.61448   0.39450   0.00000  Uiso   1.00
H368   H     0.16723   0.57453   0.35421   0.00000  Uiso   1.00
C369   C     0.49943   0.57994   0.25140   0.00000  Uiso   1.00
C370   C     0.48371   0.49392   0.48720   0.00000  Uiso   1.00
C371   C     0.48123   0.51549   0.44247   0.00000  Uiso   1.00
C372   C     0.51515   0.50794   0.01408   0.00000  Uiso   1.00
C373   C     0.54288   0.54335   0.49675   0.00000  Uiso   1.00
C374   C     0.53701   0.56607   0.45593   0.00000  Uiso   1.00
C375   C     0.50451   0.55427   0.43070   0.00000  Uiso   1.00
C376   C     0.51817   0.48919   0.05971   0.00000  Uiso   1.00
C377   C     0.57294   0.54052   0.07122   0.00000  Uiso   1.00
C378   C     0.45645   0.49677   0.41027   0.00000  Uiso   1.00
C379   C     0.53222   0.64495   0.27268   0.00000  Uiso   1.00
C380   C     0.47339   0.50072   0.35196   0.00000  Uiso   1.00
C381   C     0.53228   0.35474   0.27669   0.00000  Uiso   1.00
C382   C     0.49699   0.37653   0.26286   0.00000  Uiso   1.00
C383   C     0.45882   0.35538   0.25531   0.00000  Uiso   1.00
C384   C     0.45926   0.64607   0.25207   0.00000  Uiso   1.00
C385   C     0.49723   0.62433   0.25798   0.00000  Uiso   1.00
C386   C     0.65413   0.47543   0.21138   0.00000  Uiso   1.00
C387   C     0.36874   0.47404   0.21225   0.00000  Uiso   1.00
C388   C     0.34490   0.52405   0.28831   0.00000  Uiso   1.00
C389   C     0.63097   0.52386   0.28775   0.00000  Uiso   1.00
C390   C     0.49907   0.42037   0.25419   0.00000  Uiso   1.00
C391   C     0.52660   0.50042   0.14812   0.00000  Uiso   1.00
C392   C     0.57362   0.55783   0.02360   0.00000  Uiso   1.00
C393   C     0.54286   0.50775   0.09067   0.00000  Uiso   1.00
C394   C     0.42602   0.46395   0.42886   0.00000  Uiso   1.00
C395   C     0.42474   0.44560   0.47562   0.00000  Uiso   1.00
C396   C     0.45445   0.45914   0.00335   0.00000  Uiso   1.00
H397   H     0.59239   0.55511   0.09521   0.00000  Uiso   1.00
H398   H     0.42950   0.37155   0.24911   0.00000  Uiso   1.00
H399   H     0.43069   0.63029   0.24320   0.00000  Uiso   1.00
H400   H     0.60343   0.54307   0.31807   0.00000  Uiso   1.00
H401   H     0.55623   0.59460   0.44575   0.00000  Uiso   1.00
H402   H     0.59516   0.58469   0.01036   0.00000  Uiso   1.00
H403   H     0.49843   0.46232   0.07557   0.00000  Uiso   1.00
H404   H     0.40698   0.44958   0.40425   0.00000  Uiso   1.00
H405   H     0.45355   0.44129   0.03692   0.00000  Uiso   1.00
H406   H     0.40312   0.41877   0.48830   0.00000  Uiso   1.00
H407   H     0.55945   0.62734   0.28135   0.00000  Uiso   1.00
N408   N     0.38093   0.50001   0.25001   0.00000  Uiso   1.00
N409   N     0.61906   0.49998   0.25000   0.00000  Uiso   1.00
O410   O     0.46179   0.56108   0.25000   0.00000  Uiso   1.00
O411   O     0.53823   0.56107   0.25000   0.00000  Uiso   1.00
O412   O     0.44280   0.50000   0.32681   0.00000  Uiso   1.00
O413   O     0.51924   0.49999   0.32681   0.00000  Uiso   1.00
O414   O     0.46177   0.43893   0.24999   0.00000  Uiso   1.00
O415   O     0.53821   0.43892   0.24999   0.00000  Uiso   1.00
O416   O     0.48076   0.50001   0.17319   0.00000  Uiso   1.00
O417   O     0.55720   0.50000   0.17319   0.00000  Uiso   1.00
Zn418  Zn    0.44896   0.50001   0.25000   0.00000  Uiso   1.00
Zn419  Zn    0.55104   0.49999   0.25000   0.00000  Uiso   1.00
C420   C     0.56897   0.37502   0.29767   0.00000  Uiso   1.00
C421   C     0.54550   0.39768   0.35384   0.00000  Uiso   1.00
H422   H     0.57279   0.41376   0.36696   0.00000  Uiso   1.00
H423   H     0.51858   0.42118   0.35318   0.00000  Uiso   1.00
H424   H     0.52783   0.37490   0.38410   0.00000  Uiso   1.00
H425   H     0.59414   0.35110   0.30218   0.00000  Uiso   1.00
H426   H     0.59199   0.39592   0.26836   0.00000  Uiso   1.00
C427   C     0.64076   0.44905   0.16906   0.00000  Uiso   1.00
C428   C     0.65902   0.46532   0.11170   0.00000  Uiso   1.00
C429   C     0.64168   0.43878   0.07217   0.00000  Uiso   1.00
H430   H     0.65768   0.40671   0.06588   0.00000  Uiso   1.00
H431   H     0.60246   0.43678   0.08811   0.00000  Uiso   1.00
H432   H     0.65216   0.45300   0.03232   0.00000  Uiso   1.00
H433   H     0.64634   0.49817   0.11362   0.00000  Uiso   1.00
H434   H     0.36473   0.46502   0.09483   0.00000  Uiso   1.00
H435   H     0.64822   0.41567   0.17035   0.00000  Uiso   1.00
H436   H     0.60298   0.44791   0.18033   0.00000  Uiso   1.00
C437   C     0.40779   0.44750   0.16804   0.00000  Uiso   1.00
C438   C     0.40060   0.40087   0.15539   0.00000  Uiso   1.00
C439   C     0.44784   0.37609   0.12952   0.00000  Uiso   1.00
H440   H     0.46734   0.38662   0.08842   0.00000  Uiso   1.00
H441   H     0.47097   0.38006   0.15445   0.00000  Uiso   1.00
H442   H     0.44086   0.34237   0.12525   0.00000  Uiso   1.00
H443   H     0.37891   0.38655   0.19321   0.00000  Uiso   1.00
H444   H     0.38374   0.39739   0.12389   0.00000  Uiso   1.00
H445   H     0.41960   0.46415   0.13029   0.00000  Uiso   1.00
H446   H     0.43769   0.44568   0.18096   0.00000  Uiso   1.00
C447   C     0.35336   0.55077   0.33327   0.00000  Uiso   1.00
C448   C     0.66638   0.53089   0.38768   0.00000  Uiso   1.00
H449   H     0.35038   0.49985   0.38545   0.00000  Uiso   1.00
H450   H     0.33906   0.55120   0.42044   0.00000  Uiso   1.00
H451   H     0.62765   0.52683   0.39841   0.00000  Uiso   1.00
H452   H     0.39120   0.55615   0.32480   0.00000  Uiso   1.00
H453   H     0.33614   0.58212   0.33672   0.00000  Uiso   1.00
C454   C     0.49221   0.58639   0.39680   0.00000  Uiso   1.00
C455   C     0.44029   0.60128   0.42105   0.00000  Uiso   1.00
H456   H     0.43345   0.62590   0.39644   0.00000  Uiso   1.00
H457   H     0.43215   0.61452   0.46361   0.00000  Uiso   1.00
H458   H     0.41636   0.57525   0.42071   0.00000  Uiso   1.00
H459   H     0.51407   0.61448   0.39450   0.00000  Uiso   1.00
H460   H     0.50056   0.57453   0.35421   0.00000  Uiso   1.00
C461   C     0.83276   0.57994   0.25140   0.00000  Uiso   1.00
C462   C     0.81705   0.49392   0.48720   0.00000  Uiso   1.00
C463   C     0.81456   0.51549   0.44247   0.00000  Uiso   1.00
C464   C     0.84849   0.50794   0.01408   0.00000  Uiso   1.00
C465   C     0.87621   0.54335   0.49675   0.00000  Uiso   1.00
C466   C     0.87035   0.56607   0.45593   0.00000  Uiso   1.00
C467   C     0.83784   0.55427   0.43070   0.00000  Uiso   1.00
C468   C     0.85150   0.48919   0.05971   0.00000  Uiso   1.00
C469   C     0.90628   0.54052   0.07122   0.00000  Uiso   1.00
C470   C     0.78978   0.49677   0.41027   0.00000  Uiso   1.00
C471   C     0.86555   0.64495   0.27268   0.00000  Uiso   1.00
C472   C     0.80673   0.50072   0.35196   0.00000  Uiso   1.00
C473   C     0.86561   0.35474   0.27669   0.00000  Uiso   1.00
C474   C     0.83032   0.37653   0.26286   0.00000  Uiso   1.00
C475   C     0.79215   0.35538   0.25531   0.00000  Uiso   1.00
C476   C     0.79259   0.64607   0.25207   0.00000  Uiso   1.00
C477   C     0.83056   0.62433   0.25798   0.00000  Uiso   1.00
C478   C     0.98746   0.47543   0.21138   0.00000  Uiso   1.00
C479   C     0.70207   0.47404   0.21225   0.00000  Uiso   1.00
C480   C     0.67824   0.52405   0.28831   0.00000  Uiso   1.00
C481   C     0.96430   0.52386   0.28775   0.00000  Uiso   1.00
C482   C     0.83241   0.42037   0.25419   0.00000  Uiso   1.00
C483   C     0.85993   0.50042   0.14812   0.00000  Uiso   1.00
C484   C     0.90695   0.55783   0.02360   0.00000  Uiso   1.00
C485   C     0.87619   0.50775   0.09067   0.00000  Uiso   1.00
C486   C     0.75936   0.46395   0.42886   0.00000  Uiso   1.00
C487   C     0.75808   0.44560   0.47562   0.00000  Uiso   1.00
C488   C     0.78779   0.45914   0.00335   0.00000  Uiso   1.00
H489   H     0.92572   0.55511   0.09521   0.00000  Uiso   1.00
H490   H     0.76284   0.37155   0.24911   0.00000  Uiso   1.00
H491   H     0.76403   0.63029   0.24320   0.00000  Uiso   1.00
H492   H     0.93676   0.54307   0.31807   0.00000  Uiso   1.00
H493   H     0.88957   0.59460   0.44575   0.00000  Uiso   1.00
H494   H     0.92850   0.58469   0.01036   0.00000  Uiso   1.00
H495   H     0.83177   0.46232   0.07557   0.00000  Uiso   1.00
H496   H     0.74032   0.44958   0.40425   0.00000  Uiso   1.00
H497   H     0.78688   0.44129   0.03692   0.00000  Uiso   1.00
H498   H     0.73645   0.41877   0.48830   0.00000  Uiso   1.00
H499   H     0.89279   0.62734   0.28135   0.00000  Uiso   1.00
N500   N     0.71426   0.50001   0.25001   0.00000  Uiso   1.00
N501   N     0.95239   0.49998   0.25000   0.00000  Uiso   1.00
O502   O     0.79512   0.56108   0.25000   0.00000  Uiso   1.00
O503   O     0.87157   0.56107   0.25000   0.00000  Uiso   1.00
O504   O     0.77613   0.50000   0.32681   0.00000  Uiso   1.00
O505   O     0.85258   0.49999   0.32681   0.00000  Uiso   1.00
O506   O     0.79510   0.43893   0.24999   0.00000  Uiso   1.00
O507   O     0.87154   0.43892   0.24999   0.00000  Uiso   1.00
O508   O     0.81409   0.50001   0.17319   0.00000  Uiso   1.00
O509   O     0.89053   0.50000   0.17319   0.00000  Uiso   1.00
Zn510  Zn    0.78229   0.50001   0.25000   0.00000  Uiso   1.00
Zn511  Zn    0.88438   0.49999   0.25000   0.00000  Uiso   1.00
C512   C     0.90231   0.37502   0.29767   0.00000  Uiso   1.00
C513   C     0.87884   0.39768   0.35384   0.00000  Uiso   1.00
H514   H     0.90612   0.41376   0.36696   0.00000  Uiso   1.00
H515   H     0.85192   0.42118   0.35318   0.00000  Uiso   1.00
H516   H     0.86116   0.37490   0.38410   0.00000  Uiso   1.00
H517   H     0.92748   0.35110   0.30218   0.00000  Uiso   1.00
H518   H     0.92532   0.39592   0.26836   0.00000  Uiso   1.00
C519   C     0.97410   0.44905   0.16906   0.00000  Uiso   1.00
C520   C     0.99235   0.46532   0.11170   0.00000  Uiso   1.00
C521   C     0.97501   0.43878   0.07217   0.00000  Uiso   1.00
H522   H     0.99102   0.40671   0.06588   0.00000  Uiso   1.00
H523   H     0.93579   0.43678   0.08811   0.00000  Uiso   1.00
H524   H     0.98549   0.45300   0.03232   0.00000  Uiso   1.00
H525   H     0.97967   0.49817   0.11362   0.00000  Uiso   1.00
H526   H     0.69806   0.46502   0.09483   0.00000  Uiso   1.00
H527   H     0.98155   0.41567   0.17035   0.00000  Uiso   1.00
H528   H     0.93631   0.44791   0.18033   0.00000  Uiso   1.00
C529   C     0.74113   0.44750   0.16804   0.00000  Uiso   1.00
C530   C     0.73393   0.40087   0.15539   0.00000  Uiso   1.00
C531   C     0.78117   0.37609   0.12952   0.00000  Uiso   1.00
H532   H     0.80067   0.38662   0.08842   0.00000  Uiso   1.00
H533   H     0.80430   0.38006   0.15445   0.00000  Uiso   1.00
H534   H     0.77420   0.34237   0.12525   0.00000  Uiso   1.00
H535   H     0.71224   0.38655   0.19321   0.00000  Uiso   1.00
H536   H     0.71707   0.39739   0.12389   0.00000  Uiso   1.00
H537   H     0.75294   0.46415   0.13029   0.00000  Uiso   1.00
H538   H     0.77102   0.44568   0.18096   0.00000  Uiso   1.00
C539   C     0.68670   0.55077   0.33327   0.00000  Uiso   1.00
C540   C     0.99971   0.53089   0.38768   0.00000  Uiso   1.00
H541   H     0.68372   0.49985   0.38545   0.00000  Uiso   1.00
H542   H     0.67239   0.55120   0.42044   0.00000  Uiso   1.00
H543   H     0.96098   0.52683   0.39841   0.00000  Uiso   1.00
H544   H     0.72454   0.55615   0.32480   0.00000  Uiso   1.00
H545   H     0.66947   0.58212   0.33672   0.00000  Uiso   1.00
C546   C     0.82555   0.58639   0.39680   0.00000  Uiso   1.00
C547   C     0.77362   0.60128   0.42105   0.00000  Uiso   1.00
H548   H     0.76678   0.62590   0.39644   0.00000  Uiso   1.00
H549   H     0.76548   0.61452   0.46361   0.00000  Uiso   1.00
H550   H     0.74970   0.57525   0.42071   0.00000  Uiso   1.00
H551   H     0.84740   0.61448   0.39450   0.00000  Uiso   1.00
H552   H     0.83389   0.57453   0.35421   0.00000  Uiso   1.00
C553   C     0.16609   0.91328   0.25140   0.00000  Uiso   1.00
C554   C     0.15038   0.82726   0.48720   0.00000  Uiso   1.00
C555   C     0.14789   0.84882   0.44247   0.00000  Uiso   1.00
C556   C     0.18182   0.84127   0.01408   0.00000  Uiso   1.00
C557   C     0.20955   0.87668   0.49675   0.00000  Uiso   1.00
C558   C     0.20368   0.89940   0.45593   0.00000  Uiso   1.00
C559   C     0.17118   0.88761   0.43070   0.00000  Uiso   1.00
C560   C     0.18483   0.82252   0.05971   0.00000  Uiso   1.00
C561   C     0.23961   0.87386   0.07122   0.00000  Uiso   1.00
C562   C     0.12311   0.83010   0.41027   0.00000  Uiso   1.00
C563   C     0.19888   0.97829   0.27268   0.00000  Uiso   1.00
C564   C     0.14006   0.83405   0.35196   0.00000  Uiso   1.00
C565   C     0.19894   0.68808   0.27669   0.00000  Uiso   1.00
C566   C     0.16365   0.70987   0.26286   0.00000  Uiso   1.00
C567   C     0.12549   0.68872   0.25531   0.00000  Uiso   1.00
C568   C     0.12592   0.97940   0.25207   0.00000  Uiso   1.00
C569   C     0.16389   0.95766   0.25798   0.00000  Uiso   1.00
C570   C     0.32079   0.80877   0.21138   0.00000  Uiso   1.00
C571   C     0.03541   0.80738   0.21225   0.00000  Uiso   1.00
C572   C     0.01157   0.85738   0.28831   0.00000  Uiso   1.00
C573   C     0.29763   0.85719   0.28775   0.00000  Uiso   1.00
C574   C     0.16574   0.75370   0.25419   0.00000  Uiso   1.00
C575   C     0.19327   0.83376   0.14812   0.00000  Uiso   1.00
C576   C     0.24028   0.89117   0.02360   0.00000  Uiso   1.00
C577   C     0.20953   0.84109   0.09067   0.00000  Uiso   1.00
C578   C     0.09269   0.79728   0.42886   0.00000  Uiso   1.00
C579   C     0.09141   0.77893   0.47562   0.00000  Uiso   1.00
C580   C     0.12112   0.79247   0.00335   0.00000  Uiso   1.00
H581   H     0.25905   0.88844   0.09521   0.00000  Uiso   1.00
H582   H     0.09617   0.70488   0.24911   0.00000  Uiso   1.00
H583   H     0.09736   0.96362   0.24320   0.00000  Uiso   1.00
H584   H     0.27010   0.87640   0.31807   0.00000  Uiso   1.00
H585   H     0.22290   0.92794   0.44575   0.00000  Uiso   1.00
H586   H     0.26183   0.91802   0.01036   0.00000  Uiso   1.00
H587   H     0.16510   0.79565   0.07557   0.00000  Uiso   1.00
H588   H     0.07365   0.78292   0.40425   0.00000  Uiso   1.00
H589   H     0.12022   0.77462   0.03692   0.00000  Uiso   1.00
H590   H     0.06978   0.75210   0.48830   0.00000  Uiso   1.00
H591   H     0.22612   0.96067   0.28135   0.00000  Uiso   1.00
N592   N     0.04760   0.83334   0.25001   0.00000  Uiso   1.00
N593   N     0.28573   0.83331   0.25000   0.00000  Uiso   1.00
O594   O     0.12846   0.89442   0.25000   0.00000  Uiso   1.00
O595   O     0.20490   0.89441   0.25000   0.00000  Uiso   1.00
O596   O     0.10947   0.83333   0.32681   0.00000  Uiso   1.00
O597   O     0.18591   0.83332   0.32681   0.00000  Uiso   1.00
O598   O     0.12843   0.77226   0.24999   0.00000  Uiso   1.00
O599   O     0.20488   0.77225   0.24999   0.00000  Uiso   1.00
O600   O     0.14742   0.83335   0.17319   0.00000  Uiso   1.00
O601   O     0.22387   0.83334   0.17319   0.00000  Uiso   1.00
Zn602  Zn    0.11562   0.83334   0.25000   0.00000  Uiso   1.00
Zn603  Zn    0.21771   0.83333   0.25000   0.00000  Uiso   1.00
C604   C     0.23564   0.70835   0.29767   0.00000  Uiso   1.00
C605   C     0.21217   0.73101   0.35384   0.00000  Uiso   1.00
H606   H     0.23946   0.74709   0.36696   0.00000  Uiso   1.00
H607   H     0.18525   0.75452   0.35318   0.00000  Uiso   1.00
H608   H     0.19450   0.70823   0.38410   0.00000  Uiso   1.00
H609   H     0.26081   0.68444   0.30218   0.00000  Uiso   1.00
H610   H     0.25865   0.72925   0.26836   0.00000  Uiso   1.00
C611   C     0.30743   0.78238   0.16906   0.00000  Uiso   1.00
C612   C     0.32569   0.79866   0.11170   0.00000  Uiso   1.00
C613   C     0.30835   0.77211   0.07217   0.00000  Uiso   1.00
H614   H     0.32435   0.74005   0.06588   0.00000  Uiso   1.00
H615   H     0.26913   0.77011   0.08811   0.00000  Uiso   1.00
H616   H     0.31883   0.78633   0.03232   0.00000  Uiso   1.00
H617   H     0.31300   0.83150   0.11362   0.00000  Uiso   1.00
H618   H     0.03140   0.79835   0.09483   0.00000  Uiso   1.00
H619   H     0.31488   0.74900   0.17035   0.00000  Uiso   1.00
H620   H     0.26965   0.78125   0.18033   0.00000  Uiso   1.00
C621   C     0.07446   0.78083   0.16804   0.00000  Uiso   1.00
C622   C     0.06727   0.73420   0.15539   0.00000  Uiso   1.00
C623   C     0.11451   0.70943   0.12952   0.00000  Uiso   1.00
H624   H     0.13400   0.71995   0.08842   0.00000  Uiso   1.00
H625   H     0.13763   0.71339   0.15445   0.00000  Uiso   1.00
H626   H     0.10753   0.67570   0.12525   0.00000  Uiso   1.00
H627   H     0.04557   0.71989   0.19321   0.00000  Uiso   1.00
H628   H     0.05041   0.73072   0.12389   0.00000  Uiso   1.00
H629   H     0.08627   0.79748   0.13029   0.00000  Uiso   1.00
H630   H     0.10435   0.77901   0.18096   0.00000  Uiso   1.00
C631   C     0.02003   0.88411   0.33327   0.00000  Uiso   1.00
C632   C     0.33304   0.86422   0.38768   0.00000  Uiso   1.00
H633   H     0.01705   0.83318   0.38545   0.00000  Uiso   1.00
H634   H     0.00572   0.88454   0.42044   0.00000  Uiso   1.00
H635   H     0.29432   0.86016   0.39841   0.00000  Uiso   1.00
H636   H     0.05787   0.88948   0.32480   0.00000  Uiso   1.00
H637   H     0.00280   0.91546   0.33672   0.00000  Uiso   1.00
C638   C     0.15888   0.91972   0.39680   0.00000  Uiso   1.00
C639   C     0.10695   0.93461   0.42105   0.00000  Uiso   1.00
H640   H     0.10012   0.95923   0.39644   0.00000  Uiso   1.00
H641   H     0.09882   0.94785   0.46361   0.00000  Uiso   1.00
H642   H     0.08303   0.90858   0.42071   0.00000  Uiso   1.00
H643   H     0.18073   0.94781   0.39450   0.00000  Uiso   1.00
H644   H     0.16723   0.90786   0.35421   0.00000  Uiso   1.00
C645   C     0.49943   0.91328   0.25140   0.00000  Uiso   1.00
C646   C     0.48371   0.82726   0.48720   0.00000  Uiso   1.00
C647   C     0.48123   0.84882   0.44247   0.00000  Uiso   1.00
C648   C     0.51515   0.84127   0.01408   0.00000  Uiso   1.00
C649   C     0.54288   0.87668   0.49675   0.00000  Uiso   1.00
C650   C     0.53701   0.89940   0.45593   0.00000  Uiso   1.00
C651   C     0.50451   0.88761   0.43070   0.00000  Uiso   1.00
C652   C     0.51817   0.82252   0.05971   0.00000  Uiso   1.00
C653   C     0.57294   0.87386   0.07122   0.00000  Uiso   1.00
C654   C     0.45645   0.83010   0.41027   0.00000  Uiso   1.00
C655   C     0.53222   0.97829   0.27268   0.00000  Uiso   1.00
C656   C     0.47339   0.83405   0.35196   0.00000  Uiso   1.00
C657   C     0.53228   0.68808   0.27669   0.00000  Uiso   1.00
C658   C     0.49699   0.70987   0.26286   0.00000  Uiso   1.00
C659   C     0.45882   0.68872   0.25531   0.00000  Uiso   1.00
C660   C     0.45926   0.97940   0.25207   0.00000  Uiso   1.00
C661   C     0.49723   0.95766   0.25798   0.00000  Uiso   1.00
C662   C     0.65413   0.80877   0.21138   0.00000  Uiso   1.00
C663   C     0.36874   0.80738   0.21225   0.00000  Uiso   1.00
C664   C     0.34490   0.85738   0.28831   0.00000  Uiso   1.00
C665   C     0.63097   0.85719   0.28775   0.00000  Uiso   1.00
C666   C     0.49907   0.75370   0.25419   0.00000  Uiso   1.00
C667   C     0.52660   0.83376   0.14812   0.00000  Uiso   1.00
C668   C     0.57362   0.89117   0.02360   0.00000  Uiso   1.00
C669   C     0.54286   0.84109   0.09067   0.00000  Uiso   1.00
C670   C     0.42602   0.79728   0.42886   0.00000  Uiso   1.00
C671   C     0.42474   0.77893   0.47562   0.00000  Uiso   1.00
C672   C     0.45445   0.79247   0.00335   0.00000  Uiso   1.00
H673   H     0.59239   0.88844   0.09521   0.00000  Uiso   1.00
H674   H     0.42950   0.70488   0.24911   0.00000  Uiso   1.00
H675   H     0.43069   0.96362   0.24320   0.00000  Uiso   1.00
H676   H     0.60343   0.87640   0.31807   0.00000  Uiso   1.00
H677   H     0.55623   0.92794   0.44575   0.00000  Uiso   1.00
H678   H     0.59516   0.91802   0.01036   0.00000  Uiso   1.00
H679   H     0.49843   0.79565   0.07557   0.00000  Uiso   1.00
H680   H     0.40698   0.78292   0.40425   0.00000  Uiso   1.00
H681   H     0.45355   0.77462   0.03692   0.00000  Uiso   1.00
H682   H     0.40312   0.75210   0.48830   0.00000  Uiso   1.00
H683   H     0.55945   0.96067   0.28135   0.00000  Uiso   1.00
N684   N     0.38093   0.83334   0.25001   0.00000  Uiso   1.00
N685   N     0.61906   0.83331   0.25000   0.00000  Uiso   1.00
O686   O     0.46179   0.89442   0.25000   0.00000  Uiso   1.00
O687   O     0.53823   0.89441   0.25000   0.00000  Uiso   1.00
O688   O     0.44280   0.83333   0.32681   0.00000  Uiso   1.00
O689   O     0.51924   0.83332   0.32681   0.00000  Uiso   1.00
O690   O     0.46177   0.77226   0.24999   0.00000  Uiso   1.00
O691   O     0.53821   0.77225   0.24999   0.00000  Uiso   1.00
O692   O     0.48076   0.83335   0.17319   0.00000  Uiso   1.00
O693   O     0.55720   0.83334   0.17319   0.00000  Uiso   1.00
Zn694  Zn    0.44896   0.83334   0.25000   0.00000  Uiso   1.00
Zn695  Zn    0.55104   0.83333   0.25000   0.00000  Uiso   1.00
C696   C     0.56897   0.70835   0.29767   0.00000  Uiso   1.00
C697   C     0.54550   0.73101   0.35384   0.00000  Uiso   1.00
H698   H     0.57279   0.74709   0.36696   0.00000  Uiso   1.00
H699   H     0.51858   0.75452   0.35318   0.00000  Uiso   1.00
H700   H     0.52783   0.70823   0.38410   0.00000  Uiso   1.00
H701   H     0.59414   0.68444   0.30218   0.00000  Uiso   1.00
H702   H     0.59199   0.72925   0.26836   0.00000  Uiso   1.00
C703   C     0.64076   0.78238   0.16906   0.00000  Uiso   1.00
C704   C     0.65902   0.79866   0.11170   0.00000  Uiso   1.00
C705   C     0.64168   0.77211   0.07217   0.00000  Uiso   1.00
H706   H     0.65768   0.74005   0.06588   0.00000  Uiso   1.00
H707   H     0.60246   0.77011   0.08811   0.00000  Uiso   1.00
H708   H     0.65216   0.78633   0.03232   0.00000  Uiso   1.00
H709   H     0.64634   0.83150   0.11362   0.00000  Uiso   1.00
H710   H     0.36473   0.79835   0.09483   0.00000  Uiso   1.00
H711   H     0.64822   0.74900   0.17035   0.00000  Uiso   1.00
H712   H     0.60298   0.78125   0.18033   0.00000  Uiso   1.00
C713   C     0.40779   0.78083   0.16804   0.00000  Uiso   1.00
C714   C     0.40060   0.73420   0.15539   0.00000  Uiso   1.00
C715   C     0.44784   0.70943   0.12952   0.00000  Uiso   1.00
H716   H     0.46734   0.71995   0.08842   0.00000  Uiso   1.00
H717   H     0.47097   0.71339   0.15445   0.00000  Uiso   1.00
H718   H     0.44086   0.67570   0.12525   0.00000  Uiso   1.00
H719   H     0.37891   0.71989   0.19321   0.00000  Uiso   1.00
H720   H     0.38374   0.73072   0.12389   0.00000  Uiso   1.00
H721   H     0.41960   0.79748   0.13029   0.00000  Uiso   1.00
H722   H     0.43769   0.77901   0.18096   0.00000  Uiso   1.00
C723   C     0.35336   0.88411   0.33327   0.00000  Uiso   1.00
C724   C     0.66638   0.86422   0.38768   0.00000  Uiso   1.00
H725   H     0.35038   0.83318   0.38545   0.00000  Uiso   1.00
H726   H     0.33906   0.88454   0.42044   0.00000  Uiso   1.00
H727   H     0.62765   0.86016   0.39841   0.00000  Uiso   1.00
H728   H     0.39120   0.88948   0.32480   0.00000  Uiso   1.00
H729   H     0.33614   0.91546   0.33672   0.00000  Uiso   1.00
C730   C     0.49221   0.91972   0.39680   0.00000  Uiso   1.00
C731   C     0.44029   0.93461   0.42105   0.00000  Uiso   1.00
H732   H     0.43345   0.95923   0.39644   0.00000  Uiso   1.00
H733   H     0.43215   0.94785   0.46361   0.00000  Uiso   1.00
H734   H     0.41636   0.90858   0.42071   0.00000  Uiso   1.00
H735   H     0.51407   0.94781   0.39450   0.00000  Uiso   1.00
H736   H     0.50056   0.90786   0.35421   0.00000  Uiso   1.00
C737   C     0.83276   0.91328   0.25140   0.00000  Uiso   1.00
C738   C     0.81705   0.82726   0.48720   0.00000  Uiso   1.00
C739   C     0.81456   0.84882   0.44247   0.00000  Uiso   1.00
C740   C     0.84849   0.84127   0.01408   0.00000  Uiso   1.00
C741   C     0.87621   0.87668   0.49675   0.00000  Uiso   1.00
C742   C     0.87035   0.89940   0.45593   0.00000  Uiso   1.00
C743   C     0.83784   0.88761   0.43070   0.00000  Uiso   1.00
C744   C     0.85150   0.82252   0.05971   0.00000  Uiso   1.00
C745   C     0.90628   0.87386   0.07122   0.00000  Uiso   1.00
C746   C     0.78978   0.83010   0.41027   0.00000  Uiso   1.00
C747   C     0.86555   0.97829   0.27268   0.00000  Uiso   1.00
C748   C     0.80673   0.83405   0.35196   0.00000  Uiso   1.00
C749   C     0.86561   0.68808   0.27669   0.00000  Uiso   1.00
C750   C     0.83032   0.70987   0.26286   0.00000  Uiso   1.00
C751   C     0.79215   0.68872   0.25531   0.00000  Uiso   1.00
C752   C     0.79259   0.97940   0.25207   0.00000  Uiso   1.00
C753   C     0.83056   0.95766   0.25798   0.00000  Uiso   1.00
C754   C     0.98746   0.80877   0.21138   0.00000  Uiso   1.00
C755   C     0.70207   0.80738   0.21225   0.00000  Uiso   1.00
C756   C     0.67824   0.85738   0.28831   0.00000  Uiso   1.00
C757   C     0.96430   0.85719   0.28775   0.00000  Uiso   1.00
C758   C     0.83241   0.75370   0.25419   0.00000  Uiso   1.00
C759   C     0.85993   0.83376   0.14812   0.00000  Uiso   1.00
C760   C     0.90695   0.89117   0.02360   0.00000  Uiso   1.00
C761   C     0.87619   0.84109   0.09067   0.00000  Uiso   1.00
C762   C     0.75936   0.79728   0.42886   0.00000  Uiso   1.00
C763   C     0.75808   0.77893   0.47562   0.00000  Uiso   1.00
C764   C     0.78779   0.79247   0.00335   0.00000  Uiso   1.00
H765   H     0.92572   0.88844   0.09521   0.00000  Uiso   1.00
H766   H     0.76284   0.70488   0.24911   0.00000  Uiso   1.00
H767   H     0.76403   0.96362   0.24320   0.00000  Uiso   1.00
H768   H     0.93676   0.87640   0.31807   0.00000  Uiso   1.00
H769   H     0.88957   0.92794   0.44575   0.00000  Uiso   1.00
H770   H     0.92850   0.91802   0.01036   0.00000  Uiso   1.00
H771   H     0.83177   0.79565   0.07557   0.00000  Uiso   1.00
H772   H     0.74032   0.78292   0.40425   0.00000  Uiso   1.00
H773   H     0.78688   0.77462   0.03692   0.00000  Uiso   1.00
H774   H     0.73645   0.75210   0.48830   0.00000  Uiso   1.00
H775   H     0.89279   0.96067   0.28135   0.00000  Uiso   1.00
N776   N     0.71426   0.83334   0.25001   0.00000  Uiso   1.00
N777   N     0.95239   0.83331   0.25000   0.00000  Uiso   1.00
O778   O     0.79512   0.89442   0.25000   0.00000  Uiso   1.00
O779   O     0.87157   0.89441   0.25000   0.00000  Uiso   1.00
O780   O     0.77613   0.83333   0.32681   0.00000  Uiso   1.00
O781   O     0.85258   0.83332   0.32681   0.00000  Uiso   1.00
O782   O     0.79510   0.77226   0.24999   0.00000  Uiso   1.00
O783   O     0.87154   0.77225   0.24999   0.00000  Uiso   1.00
O784   O     0.81409   0.83335   0.17319   0.00000  Uiso   1.00
O785   O     0.89053   0.83334   0.17319   0.00000  Uiso   1.00
Zn786  Zn    0.78229   0.83334   0.25000   0.00000  Uiso   1.00
Zn787  Zn    0.88438   0.83333   0.25000   0.00000  Uiso   1.00
C788   C     0.90231   0.70835   0.29767   0.00000  Uiso   1.00
C789   C     0.87884   0.73101   0.35384   0.00000  Uiso   1.00
H790   H     0.90612   0.74709   0.36696   0.00000  Uiso   1.00
H791   H     0.85192   0.75452   0.35318   0.00000  Uiso   1.00
H792   H     0.86116   0.70823   0.38410   0.00000  Uiso   1.00
H793   H     0.92748   0.68444   0.30218   0.00000  Uiso   1.00
H794   H     0.92532   0.72925   0.26836   0.00000  Uiso   1.00
C795   C     0.97410   0.78238   0.16906   0.00000  Uiso   1.00
C796   C     0.99235   0.79866   0.11170   0.00000  Uiso   1.00
C797   C     0.97501   0.77211   0.07217   0.00000  Uiso   1.00
H798   H     0.99102   0.74005   0.06588   0.00000  Uiso   1.00
H799   H     0.93579   0.77011   0.08811   0.00000  Uiso   1.00
H800   H     0.98549   0.78633   0.03232   0.00000  Uiso   1.00
H801   H     0.97967   0.83150   0.11362   0.00000  Uiso   1.00
H802   H     0.69806   0.79835   0.09483   0.00000  Uiso   1.00
H803   H     0.98155   0.74900   0.17035   0.00000  Uiso   1.00
H804   H     0.93631   0.78125   0.18033   0.00000  Uiso   1.00
C805   C     0.74113   0.78083   0.16804   0.00000  Uiso   1.00
C806   C     0.73393   0.73420   0.15539   0.00000  Uiso   1.00
C807   C     0.78117   0.70943   0.12952   0.00000  Uiso   1.00
H808   H     0.80067   0.71995   0.08842   0.00000  Uiso   1.00
H809   H     0.80430   0.71339   0.15445   0.00000  Uiso   1.00
H810   H     0.77420   0.67570   0.12525   0.00000  Uiso   1.00
H811   H     0.71224   0.71989   0.19321   0.00000  Uiso   1.00
H812   H     0.71707   0.73072   0.12389   0.00000  Uiso   1.00
H813   H     0.75294   0.79748   0.13029   0.00000  Uiso   1.00
H814   H     0.77102   0.77901   0.18096   0.00000  Uiso   1.00
C815   C     0.68670   0.88411   0.33327   0.00000  Uiso   1.00
C816   C     0.99971   0.86422   0.38768   0.00000  Uiso   1.00
H817   H     0.68372   0.83318   0.38545   0.00000  Uiso   1.00
H818   H     0.67239   0.88454   0.42044   0.00000  Uiso   1.00
H819   H     0.96098   0.86016   0.39841   0.00000  Uiso   1.00
H820   H     0.72454   0.88948   0.32480   0.00000  Uiso   1.00
H821   H     0.66947   0.91546   0.33672   0.00000  Uiso   1.00
C822   C     0.82555   0.91972   0.39680   0.00000  Uiso   1.00
C823   C     0.77362   0.93461   0.42105   0.00000  Uiso   1.00
H824   H     0.76678   0.95923   0.39644   0.00000  Uiso   1.00
H825   H     0.76548   0.94785   0.46361   0.00000  Uiso   1.00
H826   H     0.74970   0.90858   0.42071   0.00000  Uiso   1.00
H827   H     0.84740   0.94781   0.39450   0.00000  Uiso   1.00
H828   H     0.83389   0.90786   0.35421   0.00000  Uiso   1.00
C829   C     0.16609   0.24661   0.75140   0.00000  Uiso   1.00
C830   C     0.15038   0.16059   0.98720   0.00000  Uiso   1.00
C831   C     0.14789   0.18216   0.94247   0.00000  Uiso   1.00
C832   C     0.18182   0.17460   0.51408   0.00000  Uiso   1.00
C833   C     0.20955   0.21001   0.99675   0.00000  Uiso   1.00
C834   C     0.20368   0.23274   0.95593   0.00000  Uiso   1.00
C835   C     0.17118   0.22094   0.93070   0.00000  Uiso   1.00
C836   C     0.18483   0.15586   0.55971   0.00000  Uiso   1.00
C837   C     0.23961   0.20719   0.57122   0.00000  Uiso   1.00
C838   C     0.12311   0.16344   0.91027   0.00000  Uiso   1.00
C839   C     0.19888   0.31162   0.77268   0.00000  Uiso   1.00
C840   C     0.14006   0.16738   0.85196   0.00000  Uiso   1.00
C841   C     0.19894   0.02141   0.77669   0.00000  Uiso   1.00
C842   C     0.16365   0.04320   0.76286   0.00000  Uiso   1.00
C843   C     0.12549   0.02205   0.75531   0.00000  Uiso   1.00
C844   C     0.12592   0.31274   0.75207   0.00000  Uiso   1.00
C845   C     0.16389   0.29100   0.75798   0.00000  Uiso   1.00
C846   C     0.32079   0.14210   0.71138   0.00000  Uiso   1.00
C847   C     0.03541   0.14071   0.71225   0.00000  Uiso   1.00
C848   C     0.01157   0.19071   0.78831   0.00000  Uiso   1.00
C849   C     0.29763   0.19053   0.78775   0.00000  Uiso   1.00
C850   C     0.16574   0.08704   0.75419   0.00000  Uiso   1.00
C851   C     0.19327   0.16709   0.64812   0.00000  Uiso   1.00
C852   C     0.24028   0.22450   0.52360   0.00000  Uiso   1.00
C853   C     0.20953   0.17442   0.59067   0.00000  Uiso   1.00
C854   C     0.09269   0.13061   0.92886   0.00000  Uiso   1.00
C855   C     0.09141   0.11227   0.97562   0.00000  Uiso   1.00
C856   C     0.12112   0.12580   0.50335   0.00000  Uiso   1.00
H857   H     0.25905   0.22177   0.59521   0.00000  Uiso   1.00
H858   H     0.09617   0.03822   0.74911   0.00000  Uiso   1.00
H859   H     0.09736   0.29696   0.74320   0.00000  Uiso   1.00
H860   H     0.27010   0.20974   0.81807   0.00000  Uiso   1.00
H861   H     0.22290   0.26127   0.94575   0.00000  Uiso   1.00
H862   H     0.26183   0.25136   0.51036   0.00000  Uiso   1.00
H863   H     0.16510   0.12898   0.57557   0.00000  Uiso   1.00
H864   H     0.07365   0.11625   0.90425   0.00000  Uiso   1.00
H865   H     0.12022   0.10795   0.53692   0.00000  Uiso   1.00
H866   H     0.06978   0.08543   0.98830   0.00000  Uiso   1.00
H867   H     0.22612   0.29400   0.78135   0.00000  Uiso   1.00
N868   N     0.04760   0.16668   0.75001   0.00000  Uiso   1.00
N869   N     0.28573   0.16665   0.75000   0.00000  Uiso   1.00
O870   O     0.12846   0.22775   0.75000   0.00000  Uiso   1.00
O871   O     0.20490   0.22774   0.75000   0.00000  Uiso   1.00
O872   O     0.10947   0.16666   0.82681   0.00000  Uiso   1.00
O873   O     0.18591   0.16665   0.82681   0.00000  Uiso   1.00
O874   O     0.12843   0.10559   0.74999   0.00000  Uiso   1.00
O875   O     0.20488   0.10558   0.74999   0.00000  Uiso   1.00
O876   O     0.14742   0.16668   0.67319   0.00000  Uiso   1.00
O877   O     0.22387   0.16667   0.67319   0.00000  Uiso   1.00
Zn878  Zn    0.11562   0.16667   0.75000   0.00000  Uiso   1.00
Zn879  Zn    0.21771   0.16666   0.75000   0.00000  Uiso   1.00
C880   C     0.23564   0.04169   0.79767   0.00000  Uiso   1.00
C881   C     0.21217   0.06434   0.85384   0.00000  Uiso   1.00
H882   H     0.23946   0.08042   0.86696   0.00000  Uiso   1.00
H883   H     0.18525   0.08785   0.85318   0.00000  Uiso   1.00
H884   H     0.19450   0.04157   0.88410   0.00000  Uiso   1.00
H885   H     0.26081   0.01777   0.80218   0.00000  Uiso   1.00
H886   H     0.25865   0.06259   0.76836   0.00000  Uiso   1.00
C887   C     0.30743   0.11572   0.66906   0.00000  Uiso   1.00
C888   C     0.32569   0.13199   0.61170   0.00000  Uiso   1.00
C889   C     0.30835   0.10544   0.57217   0.00000  Uiso   1.00
H890   H     0.32435   0.07338   0.56588   0.00000  Uiso   1.00
H891   H     0.26913   0.10344   0.58811   0.00000  Uiso   1.00
H892   H     0.31883   0.11967   0.53232   0.00000  Uiso   1.00
H893   H     0.31300   0.16484   0.61362   0.00000  Uiso   1.00
H894   H     0.03140   0.13168   0.59483   0.00000  Uiso   1.00
H895   H     0.31488   0.08233   0.67035   0.00000  Uiso   1.00
H896   H     0.26965   0.11458   0.68033   0.00000  Uiso   1.00
C897   C     0.07446   0.11416   0.66804   0.00000  Uiso   1.00
C898   C     0.06727   0.06753   0.65539   0.00000  Uiso   1.00
C899   C     0.11451   0.04276   0.62952   0.00000  Uiso   1.00
H900   H     0.13400   0.05328   0.58842   0.00000  Uiso   1.00
H901   H     0.13763   0.04673   0.65445   0.00000  Uiso   1.00
H902   H     0.10753   0.00904   0.62525   0.00000  Uiso   1.00
H903   H     0.04557   0.05322   0.69321   0.00000  Uiso   1.00
H904   H     0.05041   0.06405   0.62389   0.00000  Uiso   1.00
H905   H     0.08627   0.13082   0.63029   0.00000  Uiso   1.00
H906   H     0.10435   0.11234   0.68096   0.00000  Uiso   1.00
C907   C     0.02003   0.21744   0.83327   0.00000  Uiso   1.00
C908   C     0.33304   0.19756   0.88768   0.00000  Uiso   1.00
H909   H     0.01705   0.16651   0.88545   0.00000  Uiso   1.00
H910   H     0.00572   0.21787   0.92044   0.00000  Uiso   1.00
H911   H     0.29432   0.19350   0.89841   0.00000  Uiso   1.00
H912   H     0.05787   0.22281   0.82480   0.00000  Uiso   1.00
H913   H     0.00280   0.24879   0.83672   0.00000  Uiso   1.00
C914   C     0.15888   0.25305   0.89680   0.00000  Uiso   1.00
C915   C     0.10695   0.26794   0.92105   0.00000  Uiso   1.00
H916   H     0.10012   0.29256   0.89644   0.00000  Uiso   1.00
H917   H     0.09882   0.28119   0.96361   0.00000  Uiso   1.00
H918   H     0.08303   0.24191   0.92071   0.00000  Uiso   1.00
H919   H     0.18073   0.28115   0.89450   0.00000  Uiso   1.00
H920   H     0.16723   0.24120   0.85421   0.00000  Uiso   1.00
C921   C     0.49943   0.24661   0.75140   0.00000  Uiso   1.00
C922   C     0.48371   0.16059   0.98720   0.00000  Uiso   1.00
C923   C     0.48123   0.18216   0.94247   0.00000  Uiso   1.00
C924   C     0.51515   0.17460   0.51408   0.00000  Uiso   1.00
C925   C     0.54288   0.21001   0.99675   0.00000  Uiso   1.00
C926   C     0.53701   0.23274   0.95593   0.00000  Uiso   1.00
C927   C     0.50451   0.22094   0.93070   0.00000  Uiso   1.00
C928   C     0.51817   0.15586   0.55971   0.00000  Uiso   1.00
C929   C     0.57294   0.20719   0.57122   0.00000  Uiso   1.00
C930   C     0.45645   0.16344   0.91027   0.00000  Uiso   1.00
C931   C     0.53222   0.31162   0.77268   0.00000  Uiso   1.00
C932   C     0.47339   0.16738   0.85196   0.00000  Uiso   1.00
C933   C     0.53228   0.02141   0.77669   0.00000  Uiso   1.00
C934   C     0.49699   0.04320   0.76286   0.00000  Uiso   1.00
C935   C     0.45882   0.02205   0.75531   0.00000  Uiso   1.00
C936   C     0.45926   0.31274   0.75207   0.00000  Uiso   1.00
C937   C     0.49723   0.29100   0.75798   0.00000  Uiso   1.00
C938   C     0.65413   0.14210   0.71138   0.00000  Uiso   1.00
C939   C     0.36874   0.14071   0.71225   0.00000  Uiso   1.00
C940   C     0.34490   0.19071   0.78831   0.00000  Uiso   1.00
C941   C     0.63097   0.19053   0.78775   0.00000  Uiso   1.00
C942   C     0.49907   0.08704   0.75419   0.00000  Uiso   1.00
C943   C     0.52660   0.16709   0.64812   0.00000  Uiso   1.00
C944   C     0.57362   0.22450   0.52360   0.00000  Uiso   1.00
C945   C     0.54286   0.17442   0.59067   0.00000  Uiso   1.00
C946   C     0.42602   0.13061   0.92886   0.00000  Uiso   1.00
C947   C     0.42474   0.11227   0.97562   0.00000  Uiso   1.00
C948   C     0.45445   0.12580   0.50335   0.00000  Uiso   1.00
H949   H     0.59239   0.22177   0.59521   0.00000  Uiso   1.00
H950   H     0.42950   0.03822   0.74911   0.00000  Uiso   1.00
H951   H     0.43069   0.29696   0.74320   0.00000  Uiso   1.00
H952   H     0.60343   0.20974   0.81807   0.00000  Uiso   1.00
H953   H     0.55623   0.26127   0.94575   0.00000  Uiso   1.00
H954   H     0.59516   0.25136   0.51036   0.00000  Uiso   1.00
H955   H     0.49843   0.12898   0.57557   0.00000  Uiso   1.00
H956   H     0.40698   0.11625   0.90425   0.00000  Uiso   1.00
H957   H     0.45355   0.10795   0.53692   0.00000  Uiso   1.00
H958   H     0.40312   0.08543   0.98830   0.00000  Uiso   1.00
H959   H     0.55945   0.29400   0.78135   0.00000  Uiso   1.00
N960   N     0.38093   0.16668   0.75001   0.00000  Uiso   1.00
N961   N     0.61906   0.16665   0.75000   0.00000  Uiso   1.00
O962   O     0.46179   0.22775   0.75000   0.00000  Uiso   1.00
O963   O     0.53823   0.22774   0.75000   0.00000  Uiso   1.00
O964   O     0.44280   0.16666   0.82681   0.00000  Uiso   1.00
O965   O     0.51924   0.16665   0.82681   0.00000  Uiso   1.00
O966   O     0.46177   0.10559   0.74999   0.00000  Uiso   1.00
O967   O     0.53821   0.10558   0.74999   0.00000  Uiso   1.00
O968   O     0.48076   0.16668   0.67319   0.00000  Uiso   1.00
O969   O     0.55720   0.16667   0.67319   0.00000  Uiso   1.00
Zn970  Zn    0.44896   0.16667   0.75000   0.00000  Uiso   1.00
Zn971  Zn    0.55104   0.16666   0.75000   0.00000  Uiso   1.00
C972   C     0.56897   0.04169   0.79767   0.00000  Uiso   1.00
C973   C     0.54550   0.06434   0.85384   0.00000  Uiso   1.00
H974   H     0.57279   0.08042   0.86696   0.00000  Uiso   1.00
H975   H     0.51858   0.08785   0.85318   0.00000  Uiso   1.00
H976   H     0.52783   0.04157   0.88410   0.00000  Uiso   1.00
H977   H     0.59414   0.01777   0.80218   0.00000  Uiso   1.00
H978   H     0.59199   0.06259   0.76836   0.00000  Uiso   1.00
C979   C     0.64076   0.11572   0.66906   0.00000  Uiso   1.00
C980   C     0.65902   0.13199   0.61170   0.00000  Uiso   1.00
C981   C     0.64168   0.10544   0.57217   0.00000  Uiso   1.00
H982   H     0.65768   0.07338   0.56588   0.00000  Uiso   1.00
H983   H     0.60246   0.10344   0.58811   0.00000  Uiso   1.00
H984   H     0.65216   0.11967   0.53232   0.00000  Uiso   1.00
H985   H     0.64634   0.16484   0.61362   0.00000  Uiso   1.00
H986   H     0.36473   0.13168   0.59483   0.00000  Uiso   1.00
H987   H     0.64822   0.08233   0.67035   0.00000  Uiso   1.00
H988   H     0.60298   0.11458   0.68033   0.00000  Uiso   1.00
C989   C     0.40779   0.11416   0.66804   0.00000  Uiso   1.00
C990   C     0.40060   0.06753   0.65539   0.00000  Uiso   1.00
C991   C     0.44784   0.04276   0.62952   0.00000  Uiso   1.00
H992   H     0.46734   0.05328   0.58842   0.00000  Uiso   1.00
H993   H     0.47097   0.04673   0.65445   0.00000  Uiso   1.00
H994   H     0.44086   0.00904   0.62525   0.00000  Uiso   1.00
H995   H     0.37891   0.05322   0.69321   0.00000  Uiso   1.00
H996   H     0.38374   0.06405   0.62389   0.00000  Uiso   1.00
H997   H     0.41960   0.13082   0.63029   0.00000  Uiso   1.00
H998   H     0.43769   0.11234   0.68096   0.00000  Uiso   1.00
C999   C     0.35336   0.21744   0.83327   0.00000  Uiso   1.00
C1000  C     0.66638   0.19756   0.88768   0.00000  Uiso   1.00
H1001  H     0.35038   0.16651   0.88545   0.00000  Uiso   1.00
H1002  H     0.33906   0.21787   0.92044   0.00000  Uiso   1.00
H1003  H     0.62765   0.19350   0.89841   0.00000  Uiso   1.00
H1004  H     0.39120   0.22281   0.82480   0.00000  Uiso   1.00
H1005  H     0.33614   0.24879   0.83672   0.00000  Uiso   1.00
C1006  C     0.49221   0.25305   0.89680   0.00000  Uiso   1.00
C1007  C     0.44029   0.26794   0.92105   0.00000  Uiso   1.00
H1008  H     0.43345   0.29256   0.89644   0.00000  Uiso   1.00
H1009  H     0.43215   0.28119   0.96361   0.00000  Uiso   1.00
H1010  H     0.41636   0.24191   0.92071   0.00000  Uiso   1.00
H1011  H     0.51407   0.28115   0.89450   0.00000  Uiso   1.00
H1012  H     0.50056   0.24120   0.85421   0.00000  Uiso   1.00
C1013  C     0.83276   0.24661   0.75140   0.00000  Uiso   1.00
C1014  C     0.81705   0.16059   0.98720   0.00000  Uiso   1.00
C1015  C     0.81456   0.18216   0.94247   0.00000  Uiso   1.00
C1016  C     0.84849   0.17460   0.51408   0.00000  Uiso   1.00
C1017  C     0.87621   0.21001   0.99675   0.00000  Uiso   1.00
C1018  C     0.87035   0.23274   0.95593   0.00000  Uiso   1.00
C1019  C     0.83784   0.22094   0.93070   0.00000  Uiso   1.00
C1020  C     0.85150   0.15586   0.55971   0.00000  Uiso   1.00
C1021  C     0.90628   0.20719   0.57122   0.00000  Uiso   1.00
C1022  C     0.78978   0.16344   0.91027   0.00000  Uiso   1.00
C1023  C     0.86555   0.31162   0.77268   0.00000  Uiso   1.00
C1024  C     0.80673   0.16738   0.85196   0.00000  Uiso   1.00
C1025  C     0.86561   0.02141   0.77669   0.00000  Uiso   1.00
C1026  C     0.83032   0.04320   0.76286   0.00000  Uiso   1.00
C1027  C     0.79215   0.02205   0.75531   0.00000  Uiso   1.00
C1028  C     0.79259   0.31274   0.75207   0.00000  Uiso   1.00
C1029  C     0.83056   0.29100   0.75798   0.00000  Uiso   1.00
C1030  C     0.98746   0.14210   0.71138   0.00000  Uiso   1.00
C1031  C     0.70207   0.14071   0.71225   0.00000  Uiso   1.00
C1032  C     0.67824   0.19071   0.78831   0.00000  Uiso   1.00
C1033  C     0.96430   0.19053   0.78775   0.00000  Uiso   1.00
C1034  C     0.83241   0.08704   0.75419   0.00000  Uiso   1.00
C1035  C     0.85993   0.16709   0.64812   0.00000  Uiso   1.00
C1036  C     0.90695   0.22450   0.52360   0.00000  Uiso   1.00
C1037  C     0.87619   0.17442   0.59067   0.00000  Uiso   1.00
C1038  C     0.75936   0.13061   0.92886   0.00000  Uiso   1.00
C1039  C     0.75808   0.11227   0.97562   0.00000  Uiso   1.00
C1040  C     0.78779   0.12580   0.50335   0.00000  Uiso   1.00
H1041  H     0.92572   0.22177   0.59521   0.00000  Uiso   1.00
H1042  H     0.76284   0.03822   0.74911   0.00000  Uiso   1.00
H1043  H     0.76403   0.29696   0.74320   0.00000  Uiso   1.00
H1044  H     0.93676   0.20974   0.81807   0.00000  Uiso   1.00
H1045  H     0.88957   0.26127   0.94575   0.00000  Uiso   1.00
H1046  H     0.92850   0.25136   0.51036   0.00000  Uiso   1.00
H1047  H     0.83177   0.12898   0.57557   0.00000  Uiso   1.00
H1048  H     0.74032   0.11625   0.90425   0.00000  Uiso   1.00
H1049  H     0.78688   0.10795   0.53692   0.00000  Uiso   1.00
H1050  H     0.73645   0.08543   0.98830   0.00000  Uiso   1.00
H1051  H     0.89279   0.29400   0.78135   0.00000  Uiso   1.00
N1052  N     0.71426   0.16668   0.75001   0.00000  Uiso   1.00
N1053  N     0.95239   0.16665   0.75000   0.00000  Uiso   1.00
O1054  O     0.79512   0.22775   0.75000   0.00000  Uiso   1.00
O1055  O     0.87157   0.22774   0.75000   0.00000  Uiso   1.00
O1056  O     0.77613   0.16666   0.82681   0.00000  Uiso   1.00
O1057  O     0.85258   0.16665   0.82681   0.00000  Uiso   1.00
O1058  O     0.79510   0.10559   0.74999   0.00000  Uiso   1.00
O1059  O     0.87154   0.10558   0.74999   0.00000  Uiso   1.00
O1060  O     0.81409   0.16668   0.67319   0.00000  Uiso   1.00
O1061  O     0.89053   0.16667   0.67319   0.00000  Uiso   1.00
Zn1062 Zn    0.78229   0.16667   0.75000   0.00000  Uiso   1.00
Zn1063 Zn    0.88438   0.16666   0.75000   0.00000  Uiso   1.00
C1064  C     0.90231   0.04169   0.79767   0.00000  Uiso   1.00
C1065  C     0.87884   0.06434   0.85384   0.00000  Uiso   1.00
H1066  H     0.90612   0.08042   0.86696   0.00000  Uiso   1.00
H1067  H     0.85192   0.08785   0.85318   0.00000  Uiso   1.00
H1068  H     0.86116   0.04157   0.88410   0.00000  Uiso   1.00
H1069  H     0.92748   0.01777   0.80218   0.00000  Uiso   1.00
H1070  H     0.92532   0.06259   0.76836   0.00000  Uiso   1.00
C1071  C     0.97410   0.11572   0.66906   0.00000  Uiso   1.00
C1072  C     0.99235   0.13199   0.61170   0.00000  Uiso   1.00
C1073  C     0.97501   0.10544   0.57217   0.00000  Uiso   1.00
H1074  H     0.99102   0.07338   0.56588   0.00000  Uiso   1.00
H1075  H     0.93579   0.10344   0.58811   0.00000  Uiso   1.00
H1076  H     0.98549   0.11967   0.53232   0.00000  Uiso   1.00
H1077  H     0.97967   0.16484   0.61362   0.00000  Uiso   1.00
H1078  H     0.69806   0.13168   0.59483   0.00000  Uiso   1.00
H1079  H     0.98155   0.08233   0.67035   0.00000  Uiso   1.00
H1080  H     0.93631   0.11458   0.68033   0.00000  Uiso   1.00
C1081  C     0.74113   0.11416   0.66804   0.00000  Uiso   1.00
C1082  C     0.73393   0.06753   0.65539   0.00000  Uiso   1.00
C1083  C     0.78117   0.04276   0.62952   0.00000  Uiso   1.00
H1084  H     0.80067   0.05328   0.58842   0.00000  Uiso   1.00
H1085  H     0.80430   0.04673   0.65445   0.00000  Uiso   1.00
H1086  H     0.77420   0.00904   0.62525   0.00000  Uiso   1.00
H1087  H     0.71224   0.05322   0.69321   0.00000  Uiso   1.00
H1088  H     0.71707   0.06405   0.62389   0.00000  Uiso   1.00
H1089  H     0.75294   0.13082   0.63029   0.00000  Uiso   1.00
H1090  H     0.77102   0.11234   0.68096   0.00000  Uiso   1.00
C1091  C     0.68670   0.21744   0.83327   0.00000  Uiso   1.00
C1092  C     0.99971   0.19756   0.88768   0.00000  Uiso   1.00
H1093  H     0.68372   0.16651   0.88545   0.00000  Uiso   1.00
H1094  H     0.67239   0.21787   0.92044   0.00000  Uiso   1.00
H1095  H     0.96098   0.19350   0.89841   0.00000  Uiso   1.00
H1096  H     0.72454   0.22281   0.82480   0.00000  Uiso   1.00
H1097  H     0.66947   0.24879   0.83672   0.00000  Uiso   1.00
C1098  C     0.82555   0.25305   0.89680   0.00000  Uiso   1.00
C1099  C     0.77362   0.26794   0.92105   0.00000  Uiso   1.00
H1100  H     0.76678   0.29256   0.89644   0.00000  Uiso   1.00
H1101  H     0.76548   0.28119   0.96361   0.00000  Uiso   1.00
H1102  H     0.74970   0.24191   0.92071   0.00000  Uiso   1.00
H1103  H     0.84740   0.28115   0.89450   0.00000  Uiso   1.00
H1104  H     0.83389   0.24120   0.85421   0.00000  Uiso   1.00
C1105  C     0.16609   0.57994   0.75140   0.00000  Uiso   1.00
C1106  C     0.15038   0.49392   0.98720   0.00000  Uiso   1.00
C1107  C     0.14789   0.51549   0.94247   0.00000  Uiso   1.00
C1108  C     0.18182   0.50794   0.51408   0.00000  Uiso   1.00
C1109  C     0.20955   0.54335   0.99675   0.00000  Uiso   1.00
C1110  C     0.20368   0.56607   0.95593   0.00000  Uiso   1.00
C1111  C     0.17118   0.55427   0.93070   0.00000  Uiso   1.00
C1112  C     0.18483   0.48919   0.55971   0.00000  Uiso   1.00
C1113  C     0.23961   0.54052   0.57122   0.00000  Uiso   1.00
C1114  C     0.12311   0.49677   0.91027   0.00000  Uiso   1.00
C1115  C     0.19888   0.64495   0.77268   0.00000  Uiso   1.00
C1116  C     0.14006   0.50072   0.85196   0.00000  Uiso   1.00
C1117  C     0.19894   0.35474   0.77669   0.00000  Uiso   1.00
C1118  C     0.16365   0.37653   0.76286   0.00000  Uiso   1.00
C1119  C     0.12549   0.35538   0.75531   0.00000  Uiso   1.00
C1120  C     0.12592   0.64607   0.75207   0.00000  Uiso   1.00
C1121  C     0.16389   0.62433   0.75798   0.00000  Uiso   1.00
C1122  C     0.32079   0.47543   0.71138   0.00000  Uiso   1.00
C1123  C     0.03541   0.47404   0.71225   0.00000  Uiso   1.00
C1124  C     0.01157   0.52405   0.78831   0.00000  Uiso   1.00
C1125  C     0.29763   0.52386   0.78775   0.00000  Uiso   1.00
C1126  C     0.16574   0.42037   0.75419   0.00000  Uiso   1.00
C1127  C     0.19327   0.50042   0.64812   0.00000  Uiso   1.00
C1128  C     0.24028   0.55783   0.52360   0.00000  Uiso   1.00
C1129  C     0.20953   0.50775   0.59067   0.00000  Uiso   1.00
C1130  C     0.09269   0.46395   0.92886   0.00000  Uiso   1.00
C1131  C     0.09141   0.44560   0.97562   0.00000  Uiso   1.00
C1132  C     0.12112   0.45914   0.50335   0.00000  Uiso   1.00
H1133  H     0.25905   0.55511   0.59521   0.00000  Uiso   1.00
H1134  H     0.09617   0.37155   0.74911   0.00000  Uiso   1.00
H1135  H     0.09736   0.63029   0.74320   0.00000  Uiso   1.00
H1136  H     0.27010   0.54307   0.81807   0.00000  Uiso   1.00
H1137  H     0.22290   0.59460   0.94575   0.00000  Uiso   1.00
H1138  H     0.26183   0.58469   0.51036   0.00000  Uiso   1.00
H1139  H     0.16510   0.46232   0.57557   0.00000  Uiso   1.00
H1140  H     0.07365   0.44958   0.90425   0.00000  Uiso   1.00
H1141  H     0.12022   0.44129   0.53692   0.00000  Uiso   1.00
H1142  H     0.06978   0.41877   0.98830   0.00000  Uiso   1.00
H1143  H     0.22612   0.62734   0.78135   0.00000  Uiso   1.00
N1144  N     0.04760   0.50001   0.75001   0.00000  Uiso   1.00
N1145  N     0.28573   0.49998   0.75000   0.00000  Uiso   1.00
O1146  O     0.12846   0.56108   0.75000   0.00000  Uiso   1.00
O1147  O     0.20490   0.56107   0.75000   0.00000  Uiso   1.00
O1148  O     0.10947   0.50000   0.82681   0.00000  Uiso   1.00
O1149  O     0.18591   0.49999   0.82681   0.00000  Uiso   1.00
O1150  O     0.12843   0.43893   0.74999   0.00000  Uiso   1.00
O1151  O     0.20488   0.43892   0.74999   0.00000  Uiso   1.00
O1152  O     0.14742   0.50001   0.67319   0.00000  Uiso   1.00
O1153  O     0.22387   0.50000   0.67319   0.00000  Uiso   1.00
Zn1154 Zn    0.11562   0.50001   0.75000   0.00000  Uiso   1.00
Zn1155 Zn    0.21771   0.49999   0.75000   0.00000  Uiso   1.00
C1156  C     0.23564   0.37502   0.79767   0.00000  Uiso   1.00
C1157  C     0.21217   0.39768   0.85384   0.00000  Uiso   1.00
H1158  H     0.23946   0.41376   0.86696   0.00000  Uiso   1.00
H1159  H     0.18525   0.42118   0.85318   0.00000  Uiso   1.00
H1160  H     0.19450   0.37490   0.88410   0.00000  Uiso   1.00
H1161  H     0.26081   0.35110   0.80218   0.00000  Uiso   1.00
H1162  H     0.25865   0.39592   0.76836   0.00000  Uiso   1.00
C1163  C     0.30743   0.44905   0.66906   0.00000  Uiso   1.00
C1164  C     0.32569   0.46532   0.61170   0.00000  Uiso   1.00
C1165  C     0.30835   0.43878   0.57217   0.00000  Uiso   1.00
H1166  H     0.32435   0.40671   0.56588   0.00000  Uiso   1.00
H1167  H     0.26913   0.43678   0.58811   0.00000  Uiso   1.00
H1168  H     0.31883   0.45300   0.53232   0.00000  Uiso   1.00
H1169  H     0.31300   0.49817   0.61362   0.00000  Uiso   1.00
H1170  H     0.03140   0.46502   0.59483   0.00000  Uiso   1.00
H1171  H     0.31488   0.41567   0.67035   0.00000  Uiso   1.00
H1172  H     0.26965   0.44791   0.68033   0.00000  Uiso   1.00
C1173  C     0.07446   0.44750   0.66804   0.00000  Uiso   1.00
C1174  C     0.06727   0.40087   0.65539   0.00000  Uiso   1.00
C1175  C     0.11451   0.37609   0.62952   0.00000  Uiso   1.00
H1176  H     0.13400   0.38662   0.58842   0.00000  Uiso   1.00
H1177  H     0.13763   0.38006   0.65445   0.00000  Uiso   1.00
H1178  H     0.10753   0.34237   0.62525   0.00000  Uiso   1.00
H1179  H     0.04557   0.38655   0.69321   0.00000  Uiso   1.00
H1180  H     0.05041   0.39739   0.62389   0.00000  Uiso   1.00
H1181  H     0.08627   0.46415   0.63029   0.00000  Uiso   1.00
H1182  H     0.10435   0.44568   0.68096   0.00000  Uiso   1.00
C1183  C     0.02003   0.55077   0.83327   0.00000  Uiso   1.00
C1184  C     0.33304   0.53089   0.88768   0.00000  Uiso   1.00
H1185  H     0.01705   0.49985   0.88545   0.00000  Uiso   1.00
H1186  H     0.00572   0.55120   0.92044   0.00000  Uiso   1.00
H1187  H     0.29432   0.52683   0.89841   0.00000  Uiso   1.00
H1188  H     0.05787   0.55615   0.82480   0.00000  Uiso   1.00
H1189  H     0.00280   0.58212   0.83672   0.00000  Uiso   1.00
C1190  C     0.15888   0.58639   0.89680   0.00000  Uiso   1.00
C1191  C     0.10695   0.60128   0.92105   0.00000  Uiso   1.00
H1192  H     0.10012   0.62590   0.89644   0.00000  Uiso   1.00
H1193  H     0.09882   0.61452   0.96361   0.00000  Uiso   1.00
H1194  H     0.08303   0.57525   0.92071   0.00000  Uiso   1.00
H1195  H     0.18073   0.61448   0.89450   0.00000  Uiso   1.00
H1196  H     0.16723   0.57453   0.85421   0.00000  Uiso   1.00
C1197  C     0.49943   0.57994   0.75140   0.00000  Uiso   1.00
C1198  C     0.48371   0.49392   0.98720   0.00000  Uiso   1.00
C1199  C     0.48123   0.51549   0.94247   0.00000  Uiso   1.00
C1200  C     0.51515   0.50794   0.51408   0.00000  Uiso   1.00
C1201  C     0.54288   0.54335   0.99675   0.00000  Uiso   1.00
C1202  C     0.53701   0.56607   0.95593   0.00000  Uiso   1.00
C1203  C     0.50451   0.55427   0.93070   0.00000  Uiso   1.00
C1204  C     0.51817   0.48919   0.55971   0.00000  Uiso   1.00
C1205  C     0.57294   0.54052   0.57122   0.00000  Uiso   1.00
C1206  C     0.45645   0.49677   0.91027   0.00000  Uiso   1.00
C1207  C     0.53222   0.64495   0.77268   0.00000  Uiso   1.00
C1208  C     0.47339   0.50072   0.85196   0.00000  Uiso   1.00
C1209  C     0.53228   0.35474   0.77669   0.00000  Uiso   1.00
C1210  C     0.49699   0.37653   0.76286   0.00000  Uiso   1.00
C1211  C     0.45882   0.35538   0.75531   0.00000  Uiso   1.00
C1212  C     0.45926   0.64607   0.75207   0.00000  Uiso   1.00
C1213  C     0.49723   0.62433   0.75798   0.00000  Uiso   1.00
C1214  C     0.65413   0.47543   0.71138   0.00000  Uiso   1.00
C1215  C     0.36874   0.47404   0.71225   0.00000  Uiso   1.00
C1216  C     0.34490   0.52405   0.78831   0.00000  Uiso   1.00
C1217  C     0.63097   0.52386   0.78775   0.00000  Uiso   1.00
C1218  C     0.49907   0.42037   0.75419   0.00000  Uiso   1.00
C1219  C     0.52660   0.50042   0.64812   0.00000  Uiso   1.00
C1220  C     0.57362   0.55783   0.52360   0.00000  Uiso   1.00
C1221  C     0.54286   0.50775   0.59067   0.00000  Uiso   1.00
C1222  C     0.42602   0.46395   0.92886   0.00000  Uiso   1.00
C1223  C     0.42474   0.44560   0.97562   0.00000  Uiso   1.00
C1224  C     0.45445   0.45914   0.50335   0.00000  Uiso   1.00
H1225  H     0.59239   0.55511   0.59521   0.00000  Uiso   1.00
H1226  H     0.42950   0.37155   0.74911   0.00000  Uiso   1.00
H1227  H     0.43069   0.63029   0.74320   0.00000  Uiso   1.00
H1228  H     0.60343   0.54307   0.81807   0.00000  Uiso   1.00
H1229  H     0.55623   0.59460   0.94575   0.00000  Uiso   1.00
H1230  H     0.59516   0.58469   0.51036   0.00000  Uiso   1.00
H1231  H     0.49843   0.46232   0.57557   0.00000  Uiso   1.00
H1232  H     0.40698   0.44958   0.90425   0.00000  Uiso   1.00
H1233  H     0.45355   0.44129   0.53692   0.00000  Uiso   1.00
H1234  H     0.40312   0.41877   0.98830   0.00000  Uiso   1.00
H1235  H     0.55945   0.62734   0.78135   0.00000  Uiso   1.00
N1236  N     0.38093   0.50001   0.75001   0.00000  Uiso   1.00
N1237  N     0.61906   0.49998   0.75000   0.00000  Uiso   1.00
O1238  O     0.46179   0.56108   0.75000   0.00000  Uiso   1.00
O1239  O     0.53823   0.56107   0.75000   0.00000  Uiso   1.00
O1240  O     0.44280   0.50000   0.82681   0.00000  Uiso   1.00
O1241  O     0.51924   0.49999   0.82681   0.00000  Uiso   1.00
O1242  O     0.46177   0.43893   0.74999   0.00000  Uiso   1.00
O1243  O     0.53821   0.43892   0.74999   0.00000  Uiso   1.00
O1244  O     0.48076   0.50001   0.67319   0.00000  Uiso   1.00
O1245  O     0.55720   0.50000   0.67319   0.00000  Uiso   1.00
Zn1246 Zn    0.44896   0.50001   0.75000   0.00000  Uiso   1.00
Zn1247 Zn    0.55104   0.49999   0.75000   0.00000  Uiso   1.00
C1248  C     0.56897   0.37502   0.79767   0.00000  Uiso   1.00
C1249  C     0.54550   0.39768   0.85384   0.00000  Uiso   1.00
H1250  H     0.57279   0.41376   0.86696   0.00000  Uiso   1.00
H1251  H     0.51858   0.42118   0.85318   0.00000  Uiso   1.00
H1252  H     0.52783   0.37490   0.88410   0.00000  Uiso   1.00
H1253  H     0.59414   0.35110   0.80218   0.00000  Uiso   1.00
H1254  H     0.59199   0.39592   0.76836   0.00000  Uiso   1.00
C1255  C     0.64076   0.44905   0.66906   0.00000  Uiso   1.00
C1256  C     0.65902   0.46532   0.61170   0.00000  Uiso   1.00
C1257  C     0.64168   0.43878   0.57217   0.00000  Uiso   1.00
H1258  H     0.65768   0.40671   0.56588   0.00000  Uiso   1.00
H1259  H     0.60246   0.43678   0.58811   0.00000  Uiso   1.00
H1260  H     0.65216   0.45300   0.53232   0.00000  Uiso   1.00
H1261  H     0.64634   0.49817   0.61362   0.00000  Uiso   1.00
H1262  H     0.36473   0.46502   0.59483   0.00000  Uiso   1.00
H1263  H     0.64822   0.41567   0.67035   0.00000  Uiso   1.00
H1264  H     0.60298   0.44791   0.68033   0.00000  Uiso   1.00
C1265  C     0.40779   0.44750   0.66804   0.00000  Uiso   1.00
C1266  C     0.40060   0.40087   0.65539   0.00000  Uiso   1.00
C1267  C     0.44784   0.37609   0.62952   0.00000  Uiso   1.00
H1268  H     0.46734   0.38662   0.58842   0.00000  Uiso   1.00
H1269  H     0.47097   0.38006   0.65445   0.00000  Uiso   1.00
H1270  H     0.44086   0.34237   0.62525   0.00000  Uiso   1.00
H1271  H     0.37891   0.38655   0.69321   0.00000  Uiso   1.00
H1272  H     0.38374   0.39739   0.62389   0.00000  Uiso   1.00
H1273  H     0.41960   0.46415   0.63029   0.00000  Uiso   1.00
H1274  H     0.43769   0.44568   0.68096   0.00000  Uiso   1.00
C1275  C     0.35336   0.55077   0.83327   0.00000  Uiso   1.00
C1276  C     0.66638   0.53089   0.88768   0.00000  Uiso   1.00
H1277  H     0.35038   0.49985   0.88545   0.00000  Uiso   1.00
H1278  H     0.33906   0.55120   0.92044   0.00000  Uiso   1.00
H1279  H     0.62765   0.52683   0.89841   0.00000  Uiso   1.00
H1280  H     0.39120   0.55615   0.82480   0.00000  Uiso   1.00
H1281  H     0.33614   0.58212   0.83672   0.00000  Uiso   1.00
C1282  C     0.49221   0.58639   0.89680   0.00000  Uiso   1.00
C1283  C     0.44029   0.60128   0.92105   0.00000  Uiso   1.00
H1284  H     0.43345   0.62590   0.89644   0.00000  Uiso   1.00
H1285  H     0.43215   0.61452   0.96361   0.00000  Uiso   1.00
H1286  H     0.41636   0.57525   0.92071   0.00000  Uiso   1.00
H1287  H     0.51407   0.61448   0.89450   0.00000  Uiso   1.00
H1288  H     0.50056   0.57453   0.85421   0.00000  Uiso   1.00
C1289  C     0.83276   0.57994   0.75140   0.00000  Uiso   1.00
C1290  C     0.81705   0.49392   0.98720   0.00000  Uiso   1.00
C1291  C     0.81456   0.51549   0.94247   0.00000  Uiso   1.00
C1292  C     0.84849   0.50794   0.51408   0.00000  Uiso   1.00
C1293  C     0.87621   0.54335   0.99675   0.00000  Uiso   1.00
C1294  C     0.87035   0.56607   0.95593   0.00000  Uiso   1.00
C1295  C     0.83784   0.55427   0.93070   0.00000  Uiso   1.00
C1296  C     0.85150   0.48919   0.55971   0.00000  Uiso   1.00
C1297  C     0.90628   0.54052   0.57122   0.00000  Uiso   1.00
C1298  C     0.78978   0.49677   0.91027   0.00000  Uiso   1.00
C1299  C     0.86555   0.64495   0.77268   0.00000  Uiso   1.00
C1300  C     0.80673   0.50072   0.85196   0.00000  Uiso   1.00
C1301  C     0.86561   0.35474   0.77669   0.00000  Uiso   1.00
C1302  C     0.83032   0.37653   0.76286   0.00000  Uiso   1.00
C1303  C     0.79215   0.35538   0.75531   0.00000  Uiso   1.00
C1304  C     0.79259   0.64607   0.75207   0.00000  Uiso   1.00
C1305  C     0.83056   0.62433   0.75798   0.00000  Uiso   1.00
C1306  C     0.98746   0.47543   0.71138   0.00000  Uiso   1.00
C1307  C     0.70207   0.47404   0.71225   0.00000  Uiso   1.00
C1308  C     0.67824   0.52405   0.78831   0.00000  Uiso   1.00
C1309  C     0.96430   0.52386   0.78775   0.00000  Uiso   1.00
C1310  C     0.83241   0.42037   0.75419   0.00000  Uiso   1.00
C1311  C     0.85993   0.50042   0.64812   0.00000  Uiso   1.00
C1312  C     0.90695   0.55783   0.52360   0.00000  Uiso   1.00
C1313  C     0.87619   0.50775   0.59067   0.00000  Uiso   1.00
C1314  C     0.75936   0.46395   0.92886   0.00000  Uiso   1.00
C1315  C     0.75808   0.44560   0.97562   0.00000  Uiso   1.00
C1316  C     0.78779   0.45914   0.50335   0.00000  Uiso   1.00
H1317  H     0.92572   0.55511   0.59521   0.00000  Uiso   1.00
H1318  H     0.76284   0.37155   0.74911   0.00000  Uiso   1.00
H1319  H     0.76403   0.63029   0.74320   0.00000  Uiso   1.00
H1320  H     0.93676   0.54307   0.81807   0.00000  Uiso   1.00
H1321  H     0.88957   0.59460   0.94575   0.00000  Uiso   1.00
H1322  H     0.92850   0.58469   0.51036   0.00000  Uiso   1.00
H1323  H     0.83177   0.46232   0.57557   0.00000  Uiso   1.00
H1324  H     0.74032   0.44958   0.90425   0.00000  Uiso   1.00
H1325  H     0.78688   0.44129   0.53692   0.00000  Uiso   1.00
H1326  H     0.73645   0.41877   0.98830   0.00000  Uiso   1.00
H1327  H     0.89279   0.62734   0.78135   0.00000  Uiso   1.00
N1328  N     0.71426   0.50001   0.75001   0.00000  Uiso   1.00
N1329  N     0.95239   0.49998   0.75000   0.00000  Uiso   1.00
O1330  O     0.79512   0.56108   0.75000   0.00000  Uiso   1.00
O1331  O     0.87157   0.56107   0.75000   0.00000  Uiso   1.00
O1332  O     0.77613   0.50000   0.82681   0.00000  Uiso   1.00
O1333  O     0.85258   0.49999   0.82681   0.00000  Uiso   1.00
O1334  O     0.79510   0.43893   0.74999   0.00000  Uiso   1.00
O1335  O     0.87154   0.43892   0.74999   0.00000  Uiso   1.00
O1336  O     0.81409   0.50001   0.67319   0.00000  Uiso   1.00
O1337  O     0.89053   0.50000   0.67319   0.00000  Uiso   1.00
Zn1338 Zn    0.78229   0.50001   0.75000   0.00000  Uiso   1.00
Zn1339 Zn    0.88438   0.49999   0.75000   0.00000  Uiso   1.00
C1340  C     0.90231   0.37502   0.79767   0.00000  Uiso   1.00
C1341  C     0.87884   0.39768   0.85384   0.00000  Uiso   1.00
H1342  H     0.90612   0.41376   0.86696   0.00000  Uiso   1.00
H1343  H     0.85192   0.42118   0.85318   0.00000  Uiso   1.00
H1344  H     0.86116   0.37490   0.88410   0.00000  Uiso   1.00
H1345  H     0.92748   0.35110   0.80218   0.00000  Uiso   1.00
H1346  H     0.92532   0.39592   0.76836   0.00000  Uiso   1.00
C1347  C     0.97410   0.44905   0.66906   0.00000  Uiso   1.00
C1348  C     0.99235   0.46532   0.61170   0.00000  Uiso   1.00
C1349  C     0.97501   0.43878   0.57217   0.00000  Uiso   1.00
H1350  H     0.99102   0.40671   0.56588   0.00000  Uiso   1.00
H1351  H     0.93579   0.43678   0.58811   0.00000  Uiso   1.00
H1352  H     0.98549   0.45300   0.53232   0.00000  Uiso   1.00
H1353  H     0.97967   0.49817   0.61362   0.00000  Uiso   1.00
H1354  H     0.69806   0.46502   0.59483   0.00000  Uiso   1.00
H1355  H     0.98155   0.41567   0.67035   0.00000  Uiso   1.00
H1356  H     0.93631   0.44791   0.68033   0.00000  Uiso   1.00
C1357  C     0.74113   0.44750   0.66804   0.00000  Uiso   1.00
C1358  C     0.73393   0.40087   0.65539   0.00000  Uiso   1.00
C1359  C     0.78117   0.37609   0.62952   0.00000  Uiso   1.00
H1360  H     0.80067   0.38662   0.58842   0.00000  Uiso   1.00
H1361  H     0.80430   0.38006   0.65445   0.00000  Uiso   1.00
H1362  H     0.77420   0.34237   0.62525   0.00000  Uiso   1.00
H1363  H     0.71224   0.38655   0.69321   0.00000  Uiso   1.00
H1364  H     0.71707   0.39739   0.62389   0.00000  Uiso   1.00
H1365  H     0.75294   0.46415   0.63029   0.00000  Uiso   1.00
H1366  H     0.77102   0.44568   0.68096   0.00000  Uiso   1.00
C1367  C     0.68670   0.55077   0.83327   0.00000  Uiso   1.00
C1368  C     0.99971   0.53089   0.88768   0.00000  Uiso   1.00
H1369  H     0.68372   0.49985   0.88545   0.00000  Uiso   1.00
H1370  H     0.67239   0.55120   0.92044   0.00000  Uiso   1.00
H1371  H     0.96098   0.52683   0.89841   0.00000  Uiso   1.00
H1372  H     0.72454   0.55615   0.82480   0.00000  Uiso   1.00
H1373  H     0.66947   0.58212   0.83672   0.00000  Uiso   1.00
C1374  C     0.82555   0.58639   0.89680   0.00000  Uiso   1.00
C1375  C     0.77362   0.60128   0.92105   0.00000  Uiso   1.00
H1376  H     0.76678   0.62590   0.89644   0.00000  Uiso   1.00
H1377  H     0.76548   0.61452   0.96361   0.00000  Uiso   1.00
H1378  H     0.74970   0.57525   0.92071   0.00000  Uiso   1.00
H1379  H     0.84740   0.61448   0.89450   0.00000  Uiso   1.00
H1380  H     0.83389   0.57453   0.85421   0.00000  Uiso   1.00
C1381  C     0.16609   0.91328   0.75140   0.00000  Uiso   1.00
C1382  C     0.15038   0.82726   0.98720   0.00000  Uiso   1.00
C1383  C     0.14789   0.84882   0.94247   0.00000  Uiso   1.00
C1384  C     0.18182   0.84127   0.51408   0.00000  Uiso   1.00
C1385  C     0.20955   0.87668   0.99675   0.00000  Uiso   1.00
C1386  C     0.20368   0.89940   0.95593   0.00000  Uiso   1.00
C1387  C     0.17118   0.88761   0.93070   0.00000  Uiso   1.00
C1388  C     0.18483   0.82252   0.55971   0.00000  Uiso   1.00
C1389  C     0.23961   0.87386   0.57122   0.00000  Uiso   1.00
C1390  C     0.12311   0.83010   0.91027   0.00000  Uiso   1.00
C1391  C     0.19888   0.97829   0.77268   0.00000  Uiso   1.00
C1392  C     0.14006   0.83405   0.85196   0.00000  Uiso   1.00
C1393  C     0.19894   0.68808   0.77669   0.00000  Uiso   1.00
C1394  C     0.16365   0.70987   0.76286   0.00000  Uiso   1.00
C1395  C     0.12549   0.68872   0.75531   0.00000  Uiso   1.00
C1396  C     0.12592   0.97940   0.75207   0.00000  Uiso   1.00
C1397  C     0.16389   0.95766   0.75798   0.00000  Uiso   1.00
C1398  C     0.32079   0.80877   0.71138   0.00000  Uiso   1.00
C1399  C     0.03541   0.80738   0.71225   0.00000  Uiso   1.00
C1400  C     0.01157   0.85738   0.78831   0.00000  Uiso   1.00
C1401  C     0.29763   0.85719   0.78775   0.00000  Uiso   1.00
C1402  C     0.16574   0.75370   0.75419   0.00000  Uiso   1.00
C1403  C     0.19327   0.83376   0.64812   0.00000  Uiso   1.00
C1404  C     0.24028   0.89117   0.52360   0.00000  Uiso   1.00
C1405  C     0.20953   0.84109   0.59067   0.00000  Uiso   1.00
C1406  C     0.09269   0.79728   0.92886   0.00000  Uiso   1.00
C1407  C     0.09141   0.77893   0.97562   0.00000  Uiso   1.00
C1408  C     0.12112   0.79247   0.50335   0.00000  Uiso   1.00
H1409  H     0.25905   0.88844   0.59521   0.00000  Uiso   1.00
H1410  H     0.09617   0.70488   0.74911   0.00000  Uiso   1.00
H1411  H     0.09736   0.96362   0.74320   0.00000  Uiso   1.00
H1412  H     0.27010   0.87640   0.81807   0.00000  Uiso   1.00
H1413  H     0.22290   0.92794   0.94575   0.00000  Uiso   1.00
H1414  H     0.26183   0.91802   0.51036   0.00000  Uiso   1.00
H1415  H     0.16510   0.79565   0.57557   0.00000  Uiso   1.00
H1416  H     0.07365   0.78292   0.90425   0.00000  Uiso   1.00
H1417  H     0.12022   0.77462   0.53692   0.00000  Uiso   1.00
H1418  H     0.06978   0.75210   0.98830   0.00000  Uiso   1.00
H1419  H     0.22612   0.96067   0.78135   0.00000  Uiso   1.00
N1420  N     0.04760   0.83334   0.75001   0.00000  Uiso   1.00
N1421  N     0.28573   0.83331   0.75000   0.00000  Uiso   1.00
O1422  O     0.12846   0.89442   0.75000   0.00000  Uiso   1.00
O1423  O     0.20490   0.89441   0.75000   0.00000  Uiso   1.00
O1424  O     0.10947   0.83333   0.82681   0.00000  Uiso   1.00
O1425  O     0.18591   0.83332   0.82681   0.00000  Uiso   1.00
O1426  O     0.12843   0.77226   0.74999   0.00000  Uiso   1.00
O1427  O     0.20488   0.77225   0.74999   0.00000  Uiso   1.00
O1428  O     0.14742   0.83335   0.67319   0.00000  Uiso   1.00
O1429  O     0.22387   0.83334   0.67319   0.00000  Uiso   1.00
Zn1430 Zn    0.11562   0.83334   0.75000   0.00000  Uiso   1.00
Zn1431 Zn    0.21771   0.83333   0.75000   0.00000  Uiso   1.00
C1432  C     0.23564   0.70835   0.79767   0.00000  Uiso   1.00
C1433  C     0.21217   0.73101   0.85384   0.00000  Uiso   1.00
H1434  H     0.23946   0.74709   0.86696   0.00000  Uiso   1.00
H1435  H     0.18525   0.75452   0.85318   0.00000  Uiso   1.00
H1436  H     0.19450   0.70823   0.88410   0.00000  Uiso   1.00
H1437  H     0.26081   0.68444   0.80218   0.00000  Uiso   1.00
H1438  H     0.25865   0.72925   0.76836   0.00000  Uiso   1.00
C1439  C     0.30743   0.78238   0.66906   0.00000  Uiso   1.00
C1440  C     0.32569   0.79866   0.61170   0.00000  Uiso   1.00
C1441  C     0.30835   0.77211   0.57217   0.00000  Uiso   1.00
H1442  H     0.32435   0.74005   0.56588   0.00000  Uiso   1.00
H1443  H     0.26913   0.77011   0.58811   0.00000  Uiso   1.00
H1444  H     0.31883   0.78633   0.53232   0.00000  Uiso   1.00
H1445  H     0.31300   0.83150   0.61362   0.00000  Uiso   1.00
H1446  H     0.03140   0.79835   0.59483   0.00000  Uiso   1.00
H1447  H     0.31488   0.74900   0.67035   0.00000  Uiso   1.00
H1448  H     0.26965   0.78125   0.68033   0.00000  Uiso   1.00
C1449  C     0.07446   0.78083   0.66804   0.00000  Uiso   1.00
C1450  C     0.06727   0.73420   0.65539   0.00000  Uiso   1.00
C1451  C     0.11451   0.70943   0.62952   0.00000  Uiso   1.00
H1452  H     0.13400   0.71995   0.58842   0.00000  Uiso   1.00
H1453  H     0.13763   0.71339   0.65445   0.00000  Uiso   1.00
H1454  H     0.10753   0.67570   0.62525   0.00000  Uiso   1.00
H1455  H     0.04557   0.71989   0.69321   0.00000  Uiso   1.00
H1456  H     0.05041   0.73072   0.62389   0.00000  Uiso   1.00
H1457  H     0.08627   0.79748   0.63029   0.00000  Uiso   1.00
H1458  H     0.10435   0.77901   0.68096   0.00000  Uiso   1.00
C1459  C     0.02003   0.88411   0.83327   0.00000  Uiso   1.00
C1460  C     0.33304   0.86422   0.88768   0.00000  Uiso   1.00
H1461  H     0.01705   0.83318   0.88545   0.00000  Uiso   1.00
H1462  H     0.00572   0.88454   0.92044   0.00000  Uiso   1.00
H1463  H     0.29432   0.86016   0.89841   0.00000  Uiso   1.00
H1464  H     0.05787   0.88948   0.82480   0.00000  Uiso   1.00
H1465  H     0.00280   0.91546   0.83672   0.00000  Uiso   1.00
C1466  C     0.15888   0.91972   0.89680   0.00000  Uiso   1.00
C1467  C     0.10695   0.93461   0.92105   0.00000  Uiso   1.00
H1468  H     0.10012   0.95923   0.89644   0.00000  Uiso   1.00
H1469  H     0.09882   0.94785   0.96361   0.00000  Uiso   1.00
H1470  H     0.08303   0.90858   0.92071   0.00000  Uiso   1.00
H1471  H     0.18073   0.94781   0.89450   0.00000  Uiso   1.00
H1472  H     0.16723   0.90786   0.85421   0.00000  Uiso   1.00
C1473  C     0.49943   0.91328   0.75140   0.00000  Uiso   1.00
C1474  C     0.48371   0.82726   0.98720   0.00000  Uiso   1.00
C1475  C     0.48123   0.84882   0.94247   0.00000  Uiso   1.00
C1476  C     0.51515   0.84127   0.51408   0.00000  Uiso   1.00
C1477  C     0.54288   0.87668   0.99675   0.00000  Uiso   1.00
C1478  C     0.53701   0.89940   0.95593   0.00000  Uiso   1.00
C1479  C     0.50451   0.88761   0.93070   0.00000  Uiso   1.00
C1480  C     0.51817   0.82252   0.55971   0.00000  Uiso   1.00
C1481  C     0.57294   0.87386   0.57122   0.00000  Uiso   1.00
C1482  C     0.45645   0.83010   0.91027   0.00000  Uiso   1.00
C1483  C     0.53222   0.97829   0.77268   0.00000  Uiso   1.00
C1484  C     0.47339   0.83405   0.85196   0.00000  Uiso   1.00
C1485  C     0.53228   0.68808   0.77669   0.00000  Uiso   1.00
C1486  C     0.49699   0.70987   0.76286   0.00000  Uiso   1.00
C1487  C     0.45882   0.68872   0.75531   0.00000  Uiso   1.00
C1488  C     0.45926   0.97940   0.75207   0.00000  Uiso   1.00
C1489  C     0.49723   0.95766   0.75798   0.00000  Uiso   1.00
C1490  C     0.65413   0.80877   0.71138   0.00000  Uiso   1.00
C1491  C     0.36874   0.80738   0.71225   0.00000  Uiso   1.00
C1492  C     0.34490   0.85738   0.78831   0.00000  Uiso   1.00
C1493  C     0.63097   0.85719   0.78775   0.00000  Uiso   1.00
C1494  C     0.49907   0.75370   0.75419   0.00000  Uiso   1.00
C1495  C     0.52660   0.83376   0.64812   0.00000  Uiso   1.00
C1496  C     0.57362   0.89117   0.52360   0.00000  Uiso   1.00
C1497  C     0.54286   0.84109   0.59067   0.00000  Uiso   1.00
C1498  C     0.42602   0.79728   0.92886   0.00000  Uiso   1.00
C1499  C     0.42474   0.77893   0.97562   0.00000  Uiso   1.00
C1500  C     0.45445   0.79247   0.50335   0.00000  Uiso   1.00
H1501  H     0.59239   0.88844   0.59521   0.00000  Uiso   1.00
H1502  H     0.42950   0.70488   0.74911   0.00000  Uiso   1.00
H1503  H     0.43069   0.96362   0.74320   0.00000  Uiso   1.00
H1504  H     0.60343   0.87640   0.81807   0.00000  Uiso   1.00
H1505  H     0.55623   0.92794   0.94575   0.00000  Uiso   1.00
H1506  H     0.59516   0.91802   0.51036   0.00000  Uiso   1.00
H1507  H     0.49843   0.79565   0.57557   0.00000  Uiso   1.00
H1508  H     0.40698   0.78292   0.90425   0.00000  Uiso   1.00
H1509  H     0.45355   0.77462   0.53692   0.00000  Uiso   1.00
H1510  H     0.40312   0.75210   0.98830   0.00000  Uiso   1.00
H1511  H     0.55945   0.96067   0.78135   0.00000  Uiso   1.00
N1512  N     0.38093   0.83334   0.75001   0.00000  Uiso   1.00
N1513  N     0.61906   0.83331   0.75000   0.00000  Uiso   1.00
O1514  O     0.46179   0.89442   0.75000   0.00000  Uiso   1.00
O1515  O     0.53823   0.89441   0.75000   0.00000  Uiso   1.00
O1516  O     0.44280   0.83333   0.82681   0.00000  Uiso   1.00
O1517  O     0.51924   0.83332   0.82681   0.00000  Uiso   1.00
O1518  O     0.46177   0.77226   0.74999   0.00000  Uiso   1.00
O1519  O     0.53821   0.77225   0.74999   0.00000  Uiso   1.00
O1520  O     0.48076   0.83335   0.67319   0.00000  Uiso   1.00
O1521  O     0.55720   0.83334   0.67319   0.00000  Uiso   1.00
Zn1522 Zn    0.44896   0.83334   0.75000   0.00000  Uiso   1.00
Zn1523 Zn    0.55104   0.83333   0.75000   0.00000  Uiso   1.00
C1524  C     0.56897   0.70835   0.79767   0.00000  Uiso   1.00
C1525  C     0.54550   0.73101   0.85384   0.00000  Uiso   1.00
H1526  H     0.57279   0.74709   0.86696   0.00000  Uiso   1.00
H1527  H     0.51858   0.75452   0.85318   0.00000  Uiso   1.00
H1528  H     0.52783   0.70823   0.88410   0.00000  Uiso   1.00
H1529  H     0.59414   0.68444   0.80218   0.00000  Uiso   1.00
H1530  H     0.59199   0.72925   0.76836   0.00000  Uiso   1.00
C1531  C     0.64076   0.78238   0.66906   0.00000  Uiso   1.00
C1532  C     0.65902   0.79866   0.61170   0.00000  Uiso   1.00
C1533  C     0.64168   0.77211   0.57217   0.00000  Uiso   1.00
H1534  H     0.65768   0.74005   0.56588   0.00000  Uiso   1.00
H1535  H     0.60246   0.77011   0.58811   0.00000  Uiso   1.00
H1536  H     0.65216   0.78633   0.53232   0.00000  Uiso   1.00
H1537  H     0.64634   0.83150   0.61362   0.00000  Uiso   1.00
H1538  H     0.36473   0.79835   0.59483   0.00000  Uiso   1.00
H1539  H     0.64822   0.74900   0.67035   0.00000  Uiso   1.00
H1540  H     0.60298   0.78125   0.68033   0.00000  Uiso   1.00
C1541  C     0.40779   0.78083   0.66804   0.00000  Uiso   1.00
C1542  C     0.40060   0.73420   0.65539   0.00000  Uiso   1.00
C1543  C     0.44784   0.70943   0.62952   0.00000  Uiso   1.00
H1544  H     0.46734   0.71995   0.58842   0.00000  Uiso   1.00
H1545  H     0.47097   0.71339   0.65445   0.00000  Uiso   1.00
H1546  H     0.44086   0.67570   0.62525   0.00000  Uiso   1.00
H1547  H     0.37891   0.71989   0.69321   0.00000  Uiso   1.00
H1548  H     0.38374   0.73072   0.62389   0.00000  Uiso   1.00
H1549  H     0.41960   0.79748   0.63029   0.00000  Uiso   1.00
H1550  H     0.43769   0.77901   0.68096   0.00000  Uiso   1.00
C1551  C     0.35336   0.88411   0.83327   0.00000  Uiso   1.00
C1552  C     0.66638   0.86422   0.88768   0.00000  Uiso   1.00
H1553  H     0.35038   0.83318   0.88545   0.00000  Uiso   1.00
H1554  H     0.33906   0.88454   0.92044   0.00000  Uiso   1.00
H1555  H     0.62765   0.86016   0.89841   0.00000  Uiso   1.00
H1556  H     0.39120   0.88948   0.82480   0.00000  Uiso   1.00
H1557  H     0.33614   0.91546   0.83672   0.00000  Uiso   1.00
C1558  C     0.49221   0.91972   0.89680   0.00000  Uiso   1.00
C1559  C     0.44029   0.93461   0.92105   0.00000  Uiso   1.00
H1560  H     0.43345   0.95923   0.89644   0.00000  Uiso   1.00
H1561  H     0.43215   0.94785   0.96361   0.00000  Uiso   1.00
H1562  H     0.41636   0.90858   0.92071   0.00000  Uiso   1.00
H1563  H     0.51407   0.94781   0.89450   0.00000  Uiso   1.00
H1564  H     0.50056   0.90786   0.85421   0.00000  Uiso   1.00
C1565  C     0.83276   0.91328   0.75140   0.00000  Uiso   1.00
C1566  C     0.81705   0.82726   0.98720   0.00000  Uiso   1.00
C1567  C     0.81456   0.84882   0.94247   0.00000  Uiso   1.00
C1568  C     0.84849   0.84127   0.51408   0.00000  Uiso   1.00
C1569  C     0.87621   0.87668   0.99675   0.00000  Uiso   1.00
C1570  C     0.87035   0.89940   0.95593   0.00000  Uiso   1.00
C1571  C     0.83784   0.88761   0.93070   0.00000  Uiso   1.00
C1572  C     0.85150   0.82252   0.55971   0.00000  Uiso   1.00
C1573  C     0.90628   0.87386   0.57122   0.00000  Uiso   1.00
C1574  C     0.78978   0.83010   0.91027   0.00000  Uiso   1.00
C1575  C     0.86555   0.97829   0.77268   0.00000  Uiso   1.00
C1576  C     0.80673   0.83405   0.85196   0.00000  Uiso   1.00
C1577  C     0.86561   0.68808   0.77669   0.00000  Uiso   1.00
C1578  C     0.83032   0.70987   0.76286   0.00000  Uiso   1.00
C1579  C     0.79215   0.68872   0.75531   0.00000  Uiso   1.00
C1580  C     0.79259   0.97940   0.75207   0.00000  Uiso   1.00
C1581  C     0.83056   0.95766   0.75798   0.00000  Uiso   1.00
C1582  C     0.98746   0.80877   0.71138   0.00000  Uiso   1.00
C1583  C     0.70207   0.80738   0.71225   0.00000  Uiso   1.00
C1584  C     0.67824   0.85738   0.78831   0.00000  Uiso   1.00
C1585  C     0.96430   0.85719   0.78775   0.00000  Uiso   1.00
C1586  C     0.83241   0.75370   0.75419   0.00000  Uiso   1.00
C1587  C     0.85993   0.83376   0.64812   0.00000  Uiso   1.00
C1588  C     0.90695   0.89117   0.52360   0.00000  Uiso   1.00
C1589  C     0.87619   0.84109   0.59067   0.00000  Uiso   1.00
C1590  C     0.75936   0.79728   0.92886   0.00000  Uiso   1.00
C1591  C     0.75808   0.77893   0.97562   0.00000  Uiso   1.00
C1592  C     0.78779   0.79247   0.50335   0.00000  Uiso   1.00
H1593  H     0.92572   0.88844   0.59521   0.00000  Uiso   1.00
H1594  H     0.76284   0.70488   0.74911   0.00000  Uiso   1.00
H1595  H     0.76403   0.96362   0.74320   0.00000  Uiso   1.00
H1596  H     0.93676   0.87640   0.81807   0.00000  Uiso   1.00
H1597  H     0.88957   0.92794   0.94575   0.00000  Uiso   1.00
H1598  H     0.92850   0.91802   0.51036   0.00000  Uiso   1.00
H1599  H     0.83177   0.79565   0.57557   0.00000  Uiso   1.00
H1600  H     0.74032   0.78292   0.90425   0.00000  Uiso   1.00
H1601  H     0.78688   0.77462   0.53692   0.00000  Uiso   1.00
H1602  H     0.73645   0.75210   0.98830   0.00000  Uiso   1.00
H1603  H     0.89279   0.96067   0.78135   0.00000  Uiso   1.00
N1604  N     0.71426   0.83334   0.75001   0.00000  Uiso   1.00
N1605  N     0.95239   0.83331   0.75000   0.00000  Uiso   1.00
O1606  O     0.79512   0.89442   0.75000   0.00000  Uiso   1.00
O1607  O     0.87157   0.89441   0.75000   0.00000  Uiso   1.00
O1608  O     0.77613   0.83333   0.82681   0.00000  Uiso   1.00
O1609  O     0.85258   0.83332   0.82681   0.00000  Uiso   1.00
O1610  O     0.79510   0.77226   0.74999   0.00000  Uiso   1.00
O1611  O     0.87154   0.77225   0.74999   0.00000  Uiso   1.00
O1612  O     0.81409   0.83335   0.67319   0.00000  Uiso   1.00
O1613  O     0.89053   0.83334   0.67319   0.00000  Uiso   1.00
Zn1614 Zn    0.78229   0.83334   0.75000   0.00000  Uiso   1.00
Zn1615 Zn    0.88438   0.83333   0.75000   0.00000  Uiso   1.00
C1616  C     0.90231   0.70835   0.79767   0.00000  Uiso   1.00
C1617  C     0.87884   0.73101   0.85384   0.00000  Uiso   1.00
H1618  H     0.90612   0.74709   0.86696   0.00000  Uiso   1.00
H1619  H     0.85192   0.75452   0.85318   0.00000  Uiso   1.00
H1620  H     0.86116   0.70823   0.88410   0.00000  Uiso   1.00
H1621  H     0.92748   0.68444   0.80218   0.00000  Uiso   1.00
H1622  H     0.92532   0.72925   0.76836   0.00000  Uiso   1.00
C1623  C     0.97410   0.78238   0.66906   0.00000  Uiso   1.00
C1624  C     0.99235   0.79866   0.61170   0.00000  Uiso   1.00
C1625  C     0.97501   0.77211   0.57217   0.00000  Uiso   1.00
H1626  H     0.99102   0.74005   0.56588   0.00000  Uiso   1.00
H1627  H     0.93579   0.77011   0.58811   0.00000  Uiso   1.00
H1628  H     0.98549   0.78633   0.53232   0.00000  Uiso   1.00
H1629  H     0.97967   0.83150   0.61362   0.00000  Uiso   1.00
H1630  H     0.69806   0.79835   0.59483   0.00000  Uiso   1.00
H1631  H     0.98155   0.74900   0.67035   0.00000  Uiso   1.00
H1632  H     0.93631   0.78125   0.68033   0.00000  Uiso   1.00
C1633  C     0.74113   0.78083   0.66804   0.00000  Uiso   1.00
C1634  C     0.73393   0.73420   0.65539   0.00000  Uiso   1.00
C1635  C     0.78117   0.70943   0.62952   0.00000  Uiso   1.00
H1636  H     0.80067   0.71995   0.58842   0.00000  Uiso   1.00
H1637  H     0.80430   0.71339   0.65445   0.00000  Uiso   1.00
H1638  H     0.77420   0.67570   0.62525   0.00000  Uiso   1.00
H1639  H     0.71224   0.71989   0.69321   0.00000  Uiso   1.00
H1640  H     0.71707   0.73072   0.62389   0.00000  Uiso   1.00
H1641  H     0.75294   0.79748   0.63029   0.00000  Uiso   1.00
H1642  H     0.77102   0.77901   0.68096   0.00000  Uiso   1.00
C1643  C     0.68670   0.88411   0.83327   0.00000  Uiso   1.00
C1644  C     0.99971   0.86422   0.88768   0.00000  Uiso   1.00
H1645  H     0.68372   0.83318   0.88545   0.00000  Uiso   1.00
H1646  H     0.67239   0.88454   0.92044   0.00000  Uiso   1.00
H1647  H     0.96098   0.86016   0.89841   0.00000  Uiso   1.00
H1648  H     0.72454   0.88948   0.82480   0.00000  Uiso   1.00
H1649  H     0.66947   0.91546   0.83672   0.00000  Uiso   1.00
C1650  C     0.82555   0.91972   0.89680   0.00000  Uiso   1.00
C1651  C     0.77362   0.93461   0.92105   0.00000  Uiso   1.00
H1652  H     0.76678   0.95923   0.89644   0.00000  Uiso   1.00
H1653  H     0.76548   0.94785   0.96361   0.00000  Uiso   1.00
H1654  H     0.74970   0.90858   0.92071   0.00000  Uiso   1.00
H1655  H     0.84740   0.94781   0.89450   0.00000  Uiso   1.00
H1656  H     0.83389   0.90786   0.85421   0.00000  Uiso   1.00
loop_
_geom_bond_atom_site_label_1
_geom_bond_atom_site_label_2
_geom_bond_distance
_geom_bond_site_symmetry_2
_ccdc_geom_bond_type
C1     O43     1.297   .     A
C1     C17     1.423   .     S
C1     O42     1.296   .     A
C2     C3      1.420   .     A
C2     C832    1.418   .     S
C2     C856    1.421   .     S
C3     C7      1.431   .     A
C3     C10     1.414   .     A
C4     C8      1.400   .     A
C4     C830    1.418   1_554 S
C4     C833    1.419   1_554 S
C5     C6      1.389   .     A
C5     C832    1.419   .     S
C5     C852    1.405   .     S
C6     C7      1.396   .     A
C6     H33     1.085   .     S
C7     C86     1.523   .     S
C8     C25     1.386   .     A
C8     H35     1.073   .     S
C9     C25     1.396   .     A
C9     H29     1.083   .     S
C9     C24     1.390   .     A
C10    C26     1.399   .     A
C10    C12     1.448   .     S
C11    H39     1.084   .     S
C11    C17     1.395   .     A
C11    C289    1.382   .     S
C12    O45     1.305   .     A
C12    O44     1.300   .     A
C13    C14     1.423   .     A
C13    C52     1.523   .     S
C13    C563    1.382   1_545 S
C14    C22     1.438   .     S
C14    C15     1.401   .     A
C15    H30     1.082   .     S
C15    C568    1.366   1_545 S
C16    H31     1.084   .     S
C16    C17     1.390   .     A
C16    C291    1.366   .     S
C18    N41     1.381   .     A
C18    C59     1.516   .     S
C18    C111    1.447   .     S
C19    C69     1.539   .     S
C19    N40     1.399   .     A
C19    C202    1.447   1_455 S
C20    N40     1.384   .     A
C20    C79     1.506   .     S
C20    C205    1.424   1_455 S
C21    H32     1.083   .     S
C21    N41     1.358   .     A
C21    C112    1.424   .     S
C22    O47     1.295   .     A
C22    O46     1.305   .     A
C23    O49     1.300   .     A
C23    O48     1.306   .     A
C23    C25     1.448   .     S
C24    H34     1.084   .     S
C24    C833    1.405   1_554 S
C26    C27     1.380   .     A
C26    H36     1.084   .     S
C27    H38     1.082   .     S
C27    C856    1.387   .     S
C28    H37     1.072   .     S
C28    C830    1.421   1_554 S
C28    C855    1.387   1_554 S
N40    Zn50    2.042   .     S
N41    Zn51    2.041   .     S
O42    Zn50    2.002   .     S
O43    Zn51    1.995   .     S
O44    Zn50    1.955   .     S
O45    Zn51    1.907   .     S
O46    Zn50    1.995   .     S
O47    Zn51    2.002   .     S
O48    Zn50    1.907   .     S
O49    Zn51    1.955   .     S
C52    H57     1.112   .     S
C52    H58     1.107   .     S
C52    C53     1.528   .     S
C53    H54     1.110   .     S
C53    H55     1.106   .     S
C53    H56     1.111   .     S
C59    H67     1.098   .     S
C59    C60     1.539   .     S
C59    H68     1.071   .     S
C60    C61     1.528   .     S
C60    H65     1.110   .     S
C60    H158    1.101   .     S
C61    H63     1.110   .     S
C61    H62     1.111   .     S
C61    H64     1.110   .     S
H66    C244    1.101   1_455 S
C69    H77     1.103   .     S
C69    H78     1.064   .     S
C69    C70     1.546   .     S
C70    C71     1.535   .     S
C70    H76     1.106   .     S
C70    H75     1.111   .     S
C71    H73     1.107   .     S
C71    H74     1.111   .     S
C71    H72     1.110   .     S
C79    H84     1.097   .     S
C79    H85     1.112   .     S
C79    C264    1.528   1_455 S
C80    H83     1.109   .     S
C80    C171    1.528   .     S
C80    H173    1.109   .     S
C80    H174    1.110   .     S
H81    C264    1.109   1_455 S
H82    C264    1.110   1_455 S
C86    H91     1.112   .     S
C86    C87     1.527   .     S
C86    H92     1.097   .     S
C87    H88     1.111   .     S
C87    H89     1.111   .     S
C87    H90     1.108   .     S
C93    O135    1.297   .     A
C93    C109    1.423   .     S
C93    O134    1.296   .     A
C94    C95     1.420   .     A
C94    C924    1.418   .     S
C94    C948    1.421   .     S
C95    C99     1.431   .     A
C95    C102    1.414   .     A
C96    C100    1.400   .     A
C96    C922    1.418   1_554 S
C96    C925    1.419   1_554 S
C97    C98     1.389   .     A
C97    C924    1.419   .     S
C97    C944    1.405   .     S
C98    C99     1.396   .     A
C98    H125    1.085   .     S
C99    C178    1.523   .     S
C100   C117    1.386   .     A
C100   H127    1.073   .     S
C101   C117    1.396   .     A
C101   H121    1.083   .     S
C101   C116    1.390   .     A
C102   C118    1.399   .     A
C102   C104    1.448   .     S
C103   H131    1.084   .     S
C103   C109    1.395   .     A
C103   C381    1.382   .     S
C104   O137    1.305   .     A
C104   O136    1.300   .     A
C105   C106    1.423   .     A
C105   C144    1.523   .     S
C105   C655    1.382   1_545 S
C106   C114    1.438   .     S
C106   C107    1.401   .     A
C107   H122    1.082   .     S
C107   C660    1.366   1_545 S
C108   H123    1.084   .     S
C108   C109    1.390   .     A
C108   C383    1.366   .     S
C110   N133    1.381   .     A
C110   C151    1.516   .     S
C110   C203    1.447   .     S
C111   C161    1.539   .     S
C111   N132    1.399   .     A
C112   N132    1.384   .     A
C112   C171    1.506   .     S
C113   H124    1.083   .     S
C113   N133    1.358   .     A
C113   C204    1.424   .     S
C114   O139    1.295   .     A
C114   O138    1.305   .     A
C115   O141    1.300   .     A
C115   O140    1.306   .     A
C115   C117    1.448   .     S
C116   H126    1.084   .     S
C116   C925    1.405   1_554 S
C118   C119    1.380   .     A
C118   H128    1.084   .     S
C119   H130    1.082   .     S
C119   C948    1.387   .     S
C120   H129    1.072   .     S
C120   C922    1.421   1_554 S
C120   C947    1.387   1_554 S
N132   Zn142   2.042   .     S
N133   Zn143   2.041   .     S
O134   Zn142   2.002   .     S
O135   Zn143   1.995   .     S
O136   Zn142   1.955   .     S
O137   Zn143   1.907   .     S
O138   Zn142   1.995   .     S
O139   Zn143   2.002   .     S
O140   Zn142   1.907   .     S
O141   Zn143   1.955   .     S
C144   H149    1.112   .     S
C144   H150    1.107   .     S
C144   C145    1.528   .     S
C145   H146    1.110   .     S
C145   H147    1.106   .     S
C145   H148    1.111   .     S
C151   H159    1.098   .     S
C151   C152    1.539   .     S
C151   H160    1.071   .     S
C152   C153    1.528   .     S
C152   H157    1.110   .     S
C152   H250    1.101   .     S
C153   H155    1.110   .     S
C153   H154    1.111   .     S
C153   H156    1.110   .     S
C161   H169    1.103   .     S
C161   H170    1.064   .     S
C161   C162    1.546   .     S
C162   C163    1.535   .     S
C162   H168    1.106   .     S
C162   H167    1.111   .     S
C163   H165    1.107   .     S
C163   H166    1.111   .     S
C163   H164    1.110   .     S
C171   H176    1.097   .     S
C171   H177    1.112   .     S
C172   H175    1.109   .     S
C172   C263    1.528   .     S
C172   H265    1.109   .     S
C172   H266    1.110   .     S
C178   H183    1.112   .     S
C178   C179    1.527   .     S
C178   H184    1.097   .     S
C179   H180    1.111   .     S
C179   H181    1.111   .     S
C179   H182    1.108   .     S
C185   O227    1.297   .     A
C185   C201    1.423   .     S
C185   O226    1.296   .     A
C186   C187    1.420   .     A
C186   C1016   1.418   .     S
C186   C1040   1.421   .     S
C187   C191    1.431   .     A
C187   C194    1.414   .     A
C188   C192    1.400   .     A
C188   C1014   1.418   1_554 S
C188   C1017   1.419   1_554 S
C189   C190    1.389   .     A
C189   C1016   1.419   .     S
C189   C1036   1.405   .     S
C190   C191    1.396   .     A
C190   H217    1.085   .     S
C191   C270    1.523   .     S
C192   C209    1.386   .     A
C192   H219    1.073   .     S
C193   C209    1.396   .     A
C193   H213    1.083   .     S
C193   C208    1.390   .     A
C194   C210    1.399   .     A
C194   C196    1.448   .     S
C195   H223    1.084   .     S
C195   C201    1.395   .     A
C195   C473    1.382   .     S
C196   O229    1.305   .     A
C196   O228    1.300   .     A
C197   C198    1.423   .     A
C197   C236    1.523   .     S
C197   C747    1.382   1_545 S
C198   C206    1.438   .     S
C198   C199    1.401   .     A
C199   H214    1.082   .     S
C199   C752    1.366   1_545 S
C200   H215    1.084   .     S
C200   C201    1.390   .     A
C200   C475    1.366   .     S
C202   N225    1.381   .     A
C202   C243    1.516   .     S
C202   C19     1.447   1_655 S
C203   C253    1.539   .     S
C203   N224    1.399   .     A
C204   N224    1.384   .     A
C204   C263    1.506   .     S
C205   H216    1.083   .     S
C205   N225    1.358   .     A
C205   C20     1.424   1_655 S
C206   O231    1.295   .     A
C206   O230    1.305   .     A
C207   O233    1.300   .     A
C207   O232    1.306   .     A
C207   C209    1.448   .     S
C208   H218    1.084   .     S
C208   C1017   1.405   1_554 S
C210   C211    1.380   .     A
C210   H220    1.084   .     S
C211   H222    1.082   .     S
C211   C1040   1.387   .     S
C212   H221    1.072   .     S
C212   C1014   1.421   1_554 S
C212   C1039   1.387   1_554 S
N224   Zn234   2.042   .     S
N225   Zn235   2.041   .     S
O226   Zn234   2.002   .     S
O227   Zn235   1.995   .     S
O228   Zn234   1.955   .     S
O229   Zn235   1.907   .     S
O230   Zn234   1.995   .     S
O231   Zn235   2.002   .     S
O232   Zn234   1.907   .     S
O233   Zn235   1.955   .     S
C236   H241    1.112   .     S
C236   H242    1.107   .     S
C236   C237    1.528   .     S
C237   H238    1.110   .     S
C237   H239    1.106   .     S
C237   H240    1.111   .     S
C243   H251    1.098   .     S
C243   C244    1.539   .     S
C243   H252    1.071   .     S
C244   C245    1.528   .     S
C244   H249    1.110   .     S
C244   H66     1.101   1_655 S
C245   H247    1.110   .     S
C245   H246    1.111   .     S
C245   H248    1.110   .     S
C253   H261    1.103   .     S
C253   H262    1.064   .     S
C253   C254    1.546   .     S
C254   C255    1.535   .     S
C254   H260    1.106   .     S
C254   H259    1.111   .     S
C255   H257    1.107   .     S
C255   H258    1.111   .     S
C255   H256    1.110   .     S
C263   H268    1.097   .     S
C263   H269    1.112   .     S
C264   H267    1.109   .     S
C264   C79     1.528   1_655 S
C264   H81     1.109   1_655 S
C264   H82     1.110   1_655 S
C270   H275    1.112   .     S
C270   C271    1.527   .     S
C270   H276    1.097   .     S
C271   H272    1.111   .     S
C271   H273    1.111   .     S
C271   H274    1.108   .     S
C277   O319    1.297   .     A
C277   C293    1.423   .     S
C277   O318    1.296   .     A
C278   C279    1.420   .     A
C278   C1108   1.418   .     S
C278   C1132   1.421   .     S
C279   C283    1.431   .     A
C279   C286    1.414   .     A
C280   C284    1.400   .     A
C280   C1106   1.418   1_554 S
C280   C1109   1.419   1_554 S
C281   C282    1.389   .     A
C281   C1108   1.419   .     S
C281   C1128   1.405   .     S
C282   C283    1.396   .     A
C282   H309    1.085   .     S
C283   C362    1.523   .     S
C284   C301    1.386   .     A
C284   H311    1.073   .     S
C285   C301    1.396   .     A
C285   H305    1.083   .     S
C285   C300    1.390   .     A
C286   C302    1.399   .     A
C286   C288    1.448   .     S
C287   H315    1.084   .     S
C287   C293    1.395   .     A
C287   C565    1.382   .     S
C288   O321    1.305   .     A
C288   O320    1.300   .     A
C289   C290    1.423   .     A
C289   C328    1.523   .     S
C290   C298    1.438   .     S
C290   C291    1.401   .     A
C291   H306    1.082   .     S
C292   H307    1.084   .     S
C292   C293    1.390   .     A
C292   C567    1.366   .     S
C294   N317    1.381   .     A
C294   C335    1.516   .     S
C294   C387    1.447   .     S
C295   C345    1.539   .     S
C295   N316    1.399   .     A
C295   C478    1.447   1_455 S
C296   N316    1.384   .     A
C296   C355    1.506   .     S
C296   C481    1.424   1_455 S
C297   H308    1.083   .     S
C297   N317    1.358   .     A
C297   C388    1.424   .     S
C298   O323    1.295   .     A
C298   O322    1.305   .     A
C299   O325    1.300   .     A
C299   O324    1.306   .     A
C299   C301    1.448   .     S
C300   H310    1.084   .     S
C300   C1109   1.405   1_554 S
C302   C303    1.380   .     A
C302   H312    1.084   .     S
C303   H314    1.082   .     S
C303   C1132   1.387   .     S
C304   H313    1.072   .     S
C304   C1106   1.421   1_554 S
C304   C1131   1.387   1_554 S
N316   Zn326   2.042   .     S
N317   Zn327   2.041   .     S
O318   Zn326   2.002   .     S
O319   Zn327   1.995   .     S
O320   Zn326   1.955   .     S
O321   Zn327   1.907   .     S
O322   Zn326   1.995   .     S
O323   Zn327   2.002   .     S
O324   Zn326   1.907   .     S
O325   Zn327   1.955   .     S
C328   H333    1.112   .     S
C328   H334    1.107   .     S
C328   C329    1.528   .     S
C329   H330    1.110   .     S
C329   H331    1.106   .     S
C329   H332    1.111   .     S
C335   H343    1.098   .     S
C335   C336    1.539   .     S
C335   H344    1.071   .     S
C336   C337    1.528   .     S
C336   H341    1.110   .     S
C336   H434    1.101   .     S
C337   H339    1.110   .     S
C337   H338    1.111   .     S
C337   H340    1.110   .     S
H342   C520    1.101   1_455 S
C345   H353    1.103   .     S
C345   H354    1.064   .     S
C345   C346    1.546   .     S
C346   C347    1.535   .     S
C346   H352    1.106   .     S
C346   H351    1.111   .     S
C347   H349    1.107   .     S
C347   H350    1.111   .     S
C347   H348    1.110   .     S
C355   H360    1.097   .     S
C355   H361    1.112   .     S
C355   C540    1.528   1_455 S
C356   H359    1.109   .     S
C356   C447    1.528   .     S
C356   H449    1.109   .     S
C356   H450    1.110   .     S
H357   C540    1.109   1_455 S
H358   C540    1.110   1_455 S
C362   H367    1.112   .     S
C362   C363    1.527   .     S
C362   H368    1.097   .     S
C363   H364    1.111   .     S
C363   H365    1.111   .     S
C363   H366    1.108   .     S
C369   O411    1.297   .     A
C369   C385    1.423   .     S
C369   O410    1.296   .     A
C370   C371    1.420   .     A
C370   C1200   1.418   .     S
C370   C1224   1.421   .     S
C371   C375    1.431   .     A
C371   C378    1.414   .     A
C372   C376    1.400   .     A
C372   C1198   1.418   1_554 S
C372   C1201   1.419   1_554 S
C373   C374    1.389   .     A
C373   C1200   1.419   .     S
C373   C1220   1.405   .     S
C374   C375    1.396   .     A
C374   H401    1.085   .     S
C375   C454    1.523   .     S
C376   C393    1.386   .     A
C376   H403    1.073   .     S
C377   C393    1.396   .     A
C377   H397    1.083   .     S
C377   C392    1.390   .     A
C378   C394    1.399   .     A
C378   C380    1.448   .     S
C379   H407    1.084   .     S
C379   C385    1.395   .     A
C379   C657    1.382   .     S
C380   O413    1.305   .     A
C380   O412    1.300   .     A
C381   C382    1.423   .     A
C381   C420    1.523   .     S
C382   C390    1.438   .     S
C382   C383    1.401   .     A
C383   H398    1.082   .     S
C384   H399    1.084   .     S
C384   C385    1.390   .     A
C384   C659    1.366   .     S
C386   N409    1.381   .     A
C386   C427    1.516   .     S
C386   C479    1.447   .     S
C387   C437    1.539   .     S
C387   N408    1.399   .     A
C388   N408    1.384   .     A
C388   C447    1.506   .     S
C389   H400    1.083   .     S
C389   N409    1.358   .     A
C389   C480    1.424   .     S
C390   O415    1.295   .     A
C390   O414    1.305   .     A
C391   O417    1.300   .     A
C391   O416    1.306   .     A
C391   C393    1.448   .     S
C392   H402    1.084   .     S
C392   C1201   1.405   1_554 S
C394   C395    1.380   .     A
C394   H404    1.084   .     S
C395   H406    1.082   .     S
C395   C1224   1.387   .     S
C396   H405    1.072   .     S
C396   C1198   1.421   1_554 S
C396   C1223   1.387   1_554 S
N408   Zn418   2.042   .     S
N409   Zn419   2.041   .     S
O410   Zn418   2.002   .     S
O411   Zn419   1.995   .     S
O412   Zn418   1.955   .     S
O413   Zn419   1.907   .     S
O414   Zn418   1.995   .     S
O415   Zn419   2.002   .     S
O416   Zn418   1.907   .     S
O417   Zn419   1.955   .     S
C420   H425    1.112   .     S
C420   H426    1.107   .     S
C420   C421    1.528   .     S
C421   H422    1.110   .     S
C421   H423    1.106   .     S
C421   H424    1.111   .     S
C427   H435    1.098   .     S
C427   C428    1.539   .     S
C427   H436    1.071   .     S
C428   C429    1.528   .     S
C428   H433    1.110   .     S
C428   H526    1.101   .     S
C429   H431    1.110   .     S
C429   H430    1.111   .     S
C429   H432    1.110   .     S
C437   H445    1.103   .     S
C437   H446    1.064   .     S
C437   C438    1.546   .     S
C438   C439    1.535   .     S
C438   H444    1.106   .     S
C438   H443    1.111   .     S
C439   H441    1.107   .     S
C439   H442    1.111   .     S
C439   H440    1.110   .     S
C447   H452    1.097   .     S
C447   H453    1.112   .     S
C448   H451    1.109   .     S
C448   C539    1.528   .     S
C448   H541    1.109   .     S
C448   H542    1.110   .     S
C454   H459    1.112   .     S
C454   C455    1.527   .     S
C454   H460    1.097   .     S
C455   H456    1.111   .     S
C455   H457    1.111   .     S
C455   H458    1.108   .     S
C461   O503    1.297   .     A
C461   C477    1.423   .     S
C461   O502    1.296   .     A
C462   C463    1.420   .     A
C462   C1292   1.418   .     S
C462   C1316   1.421   .     S
C463   C467    1.431   .     A
C463   C470    1.414   .     A
C464   C468    1.400   .     A
C464   C1290   1.418   1_554 S
C464   C1293   1.419   1_554 S
C465   C466    1.389   .     A
C465   C1292   1.419   .     S
C465   C1312   1.405   .     S
C466   C467    1.396   .     A
C466   H493    1.085   .     S
C467   C546    1.523   .     S
C468   C485    1.386   .     A
C468   H495    1.073   .     S
C469   C485    1.396   .     A
C469   H489    1.083   .     S
C469   C484    1.390   .     A
C470   C486    1.399   .     A
C470   C472    1.448   .     S
C471   H499    1.084   .     S
C471   C477    1.395   .     A
C471   C749    1.382   .     S
C472   O505    1.305   .     A
C472   O504    1.300   .     A
C473   C474    1.423   .     A
C473   C512    1.523   .     S
C474   C482    1.438   .     S
C474   C475    1.401   .     A
C475   H490    1.082   .     S
C476   H491    1.084   .     S
C476   C477    1.390   .     A
C476   C751    1.366   .     S
C478   N501    1.381   .     A
C478   C519    1.516   .     S
C478   C295    1.447   1_655 S
C479   C529    1.539   .     S
C479   N500    1.399   .     A
C480   N500    1.384   .     A
C480   C539    1.506   .     S
C481   H492    1.083   .     S
C481   N501    1.358   .     A
C481   C296    1.424   1_655 S
C482   O507    1.295   .     A
C482   O506    1.305   .     A
C483   O509    1.300   .     A
C483   O508    1.306   .     A
C483   C485    1.448   .     S
C484   H494    1.084   .     S
C484   C1293   1.405   1_554 S
C486   C487    1.380   .     A
C486   H496    1.084   .     S
C487   H498    1.082   .     S
C487   C1316   1.387   .     S
C488   H497    1.072   .     S
C488   C1290   1.421   1_554 S
C488   C1315   1.387   1_554 S
N500   Zn510   2.042   .     S
N501   Zn511   2.041   .     S
O502   Zn510   2.002   .     S
O503   Zn511   1.995   .     S
O504   Zn510   1.955   .     S
O505   Zn511   1.907   .     S
O506   Zn510   1.995   .     S
O507   Zn511   2.002   .     S
O508   Zn510   1.907   .     S
O509   Zn511   1.955   .     S
C512   H517    1.112   .     S
C512   H518    1.107   .     S
C512   C513    1.528   .     S
C513   H514    1.110   .     S
C513   H515    1.106   .     S
C513   H516    1.111   .     S
C519   H527    1.098   .     S
C519   C520    1.539   .     S
C519   H528    1.071   .     S
C520   C521    1.528   .     S
C520   H525    1.110   .     S
C520   H342    1.101   1_655 S
C521   H523    1.110   .     S
C521   H522    1.111   .     S
C521   H524    1.110   .     S
C529   H537    1.103   .     S
C529   H538    1.064   .     S
C529   C530    1.546   .     S
C530   C531    1.535   .     S
C530   H536    1.106   .     S
C530   H535    1.111   .     S
C531   H533    1.107   .     S
C531   H534    1.111   .     S
C531   H532    1.110   .     S
C539   H544    1.097   .     S
C539   H545    1.112   .     S
C540   H543    1.109   .     S
C540   C355    1.528   1_655 S
C540   H357    1.109   1_655 S
C540   H358    1.110   1_655 S
C546   H551    1.112   .     S
C546   C547    1.527   .     S
C546   H552    1.097   .     S
C547   H548    1.111   .     S
C547   H549    1.111   .     S
C547   H550    1.108   .     S
C553   O595    1.297   .     A
C553   C569    1.423   .     S
C553   O594    1.296   .     A
C554   C555    1.420   .     A
C554   C1384   1.418   .     S
C554   C1408   1.421   .     S
C555   C559    1.431   .     A
C555   C562    1.414   .     A
C556   C560    1.400   .     A
C556   C1382   1.418   1_554 S
C556   C1385   1.419   1_554 S
C557   C558    1.389   .     A
C557   C1384   1.419   .     S
C557   C1404   1.405   .     S
C558   C559    1.396   .     A
C558   H585    1.085   .     S
C559   C638    1.523   .     S
C560   C577    1.386   .     A
C560   H587    1.073   .     S
C561   C577    1.396   .     A
C561   H581    1.083   .     S
C561   C576    1.390   .     A
C562   C578    1.399   .     A
C562   C564    1.448   .     S
C563   H591    1.084   .     S
C563   C569    1.395   .     A
C563   C13     1.382   1_565 S
C564   O597    1.305   .     A
C564   O596    1.300   .     A
C565   C566    1.423   .     A
C565   C604    1.523   .     S
C566   C574    1.438   .     S
C566   C567    1.401   .     A
C567   H582    1.082   .     S
C568   H583    1.084   .     S
C568   C569    1.390   .     A
C568   C15     1.366   1_565 S
C570   N593    1.381   .     A
C570   C611    1.516   .     S
C570   C663    1.447   .     S
C571   C621    1.539   .     S
C571   N592    1.399   .     A
C571   C754    1.447   1_455 S
C572   N592    1.384   .     A
C572   C631    1.506   .     S
C572   C757    1.424   1_455 S
C573   H584    1.083   .     S
C573   N593    1.358   .     A
C573   C664    1.424   .     S
C574   O599    1.295   .     A
C574   O598    1.305   .     A
C575   O601    1.300   .     A
C575   O600    1.306   .     A
C575   C577    1.448   .     S
C576   H586    1.084   .     S
C576   C1385   1.405   1_554 S
C578   C579    1.380   .     A
C578   H588    1.084   .     S
C579   H590    1.082   .     S
C579   C1408   1.387   .     S
C580   H589    1.072   .     S
C580   C1382   1.421   1_554 S
C580   C1407   1.387   1_554 S
N592   Zn602   2.042   .     S
N593   Zn603   2.041   .     S
O594   Zn602   2.002   .     S
O595   Zn603   1.995   .     S
O596   Zn602   1.955   .     S
O597   Zn603   1.907   .     S
O598   Zn602   1.995   .     S
O599   Zn603   2.002   .     S
O600   Zn602   1.907   .     S
O601   Zn603   1.955   .     S
C604   H609    1.112   .     S
C604   H610    1.107   .     S
C604   C605    1.528   .     S
C605   H606    1.110   .     S
C605   H607    1.106   .     S
C605   H608    1.111   .     S
C611   H619    1.098   .     S
C611   C612    1.539   .     S
C611   H620    1.071   .     S
C612   C613    1.528   .     S
C612   H617    1.110   .     S
C612   H710    1.101   .     S
C613   H615    1.110   .     S
C613   H614    1.111   .     S
C613   H616    1.110   .     S
H618   C796    1.101   1_455 S
C621   H629    1.103   .     S
C621   H630    1.064   .     S
C621   C622    1.546   .     S
C622   C623    1.535   .     S
C622   H628    1.106   .     S
C622   H627    1.111   .     S
C623   H625    1.107   .     S
C623   H626    1.111   .     S
C623   H624    1.110   .     S
C631   H636    1.097   .     S
C631   H637    1.112   .     S
C631   C816    1.528   1_455 S
C632   H635    1.109   .     S
C632   C723    1.528   .     S
C632   H725    1.109   .     S
C632   H726    1.110   .     S
H633   C816    1.109   1_455 S
H634   C816    1.110   1_455 S
C638   H643    1.112   .     S
C638   C639    1.527   .     S
C638   H644    1.097   .     S
C639   H640    1.111   .     S
C639   H641    1.111   .     S
C639   H642    1.108   .     S
C645   O687    1.297   .     A
C645   C661    1.423   .     S
C645   O686    1.296   .     A
C646   C647    1.420   .     A
C646   C1476   1.418   .     S
C646   C1500   1.421   .     S
C647   C651    1.431   .     A
C647   C654    1.414   .     A
C648   C652    1.400   .     A
C648   C1474   1.418   1_554 S
C648   C1477   1.419   1_554 S
C649   C650    1.389   .     A
C649   C1476   1.419   .     S
C649   C1496   1.405   .     S
C650   C651    1.396   .     A
C650   H677    1.085   .     S
C651   C730    1.523   .     S
C652   C669    1.386   .     A
C652   H679    1.073   .     S
C653   C669    1.396   .     A
C653   H673    1.083   .     S
C653   C668    1.390   .     A
C654   C670    1.399   .     A
C654   C656    1.448   .     S
C655   H683    1.084   .     S
C655   C661    1.395   .     A
C655   C105    1.382   1_565 S
C656   O689    1.305   .     A
C656   O688    1.300   .     A
C657   C658    1.423   .     A
C657   C696    1.523   .     S
C658   C666    1.438   .     S
C658   C659    1.401   .     A
C659   H674    1.082   .     S
C660   H675    1.084   .     S
C660   C661    1.390   .     A
C660   C107    1.366   1_565 S
C662   N685    1.381   .     A
C662   C703    1.516   .     S
C662   C755    1.447   .     S
C663   C713    1.539   .     S
C663   N684    1.399   .     A
C664   N684    1.384   .     A
C664   C723    1.506   .     S
C665   H676    1.083   .     S
C665   N685    1.358   .     A
C665   C756    1.424   .     S
C666   O691    1.295   .     A
C666   O690    1.305   .     A
C667   O693    1.300   .     A
C667   O692    1.306   .     A
C667   C669    1.448   .     S
C668   H678    1.084   .     S
C668   C1477   1.405   1_554 S
C670   C671    1.380   .     A
C670   H680    1.084   .     S
C671   H682    1.082   .     S
C671   C1500   1.387   .     S
C672   H681    1.072   .     S
C672   C1474   1.421   1_554 S
C672   C1499   1.387   1_554 S
N684   Zn694   2.042   .     S
N685   Zn695   2.041   .     S
O686   Zn694   2.002   .     S
O687   Zn695   1.995   .     S
O688   Zn694   1.955   .     S
O689   Zn695   1.907   .     S
O690   Zn694   1.995   .     S
O691   Zn695   2.002   .     S
O692   Zn694   1.907   .     S
O693   Zn695   1.955   .     S
C696   H701    1.112   .     S
C696   H702    1.107   .     S
C696   C697    1.528   .     S
C697   H698    1.110   .     S
C697   H699    1.106   .     S
C697   H700    1.111   .     S
C703   H711    1.098   .     S
C703   C704    1.539   .     S
C703   H712    1.071   .     S
C704   C705    1.528   .     S
C704   H709    1.110   .     S
C704   H802    1.101   .     S
C705   H707    1.110   .     S
C705   H706    1.111   .     S
C705   H708    1.110   .     S
C713   H721    1.103   .     S
C713   H722    1.064   .     S
C713   C714    1.546   .     S
C714   C715    1.535   .     S
C714   H720    1.106   .     S
C714   H719    1.111   .     S
C715   H717    1.107   .     S
C715   H718    1.111   .     S
C715   H716    1.110   .     S
C723   H728    1.097   .     S
C723   H729    1.112   .     S
C724   H727    1.109   .     S
C724   C815    1.528   .     S
C724   H817    1.109   .     S
C724   H818    1.110   .     S
C730   H735    1.112   .     S
C730   C731    1.527   .     S
C730   H736    1.097   .     S
C731   H732    1.111   .     S
C731   H733    1.111   .     S
C731   H734    1.108   .     S
C737   O779    1.297   .     A
C737   C753    1.423   .     S
C737   O778    1.296   .     A
C738   C739    1.420   .     A
C738   C1568   1.418   .     S
C738   C1592   1.421   .     S
C739   C743    1.431   .     A
C739   C746    1.414   .     A
C740   C744    1.400   .     A
C740   C1566   1.418   1_554 S
C740   C1569   1.419   1_554 S
C741   C742    1.389   .     A
C741   C1568   1.419   .     S
C741   C1588   1.405   .     S
C742   C743    1.396   .     A
C742   H769    1.085   .     S
C743   C822    1.523   .     S
C744   C761    1.386   .     A
C744   H771    1.073   .     S
C745   C761    1.396   .     A
C745   H765    1.083   .     S
C745   C760    1.390   .     A
C746   C762    1.399   .     A
C746   C748    1.448   .     S
C747   H775    1.084   .     S
C747   C753    1.395   .     A
C747   C197    1.382   1_565 S
C748   O781    1.305   .     A
C748   O780    1.300   .     A
C749   C750    1.423   .     A
C749   C788    1.523   .     S
C750   C758    1.438   .     S
C750   C751    1.401   .     A
C751   H766    1.082   .     S
C752   H767    1.084   .     S
C752   C753    1.390   .     A
C752   C199    1.366   1_565 S
C754   N777    1.381   .     A
C754   C795    1.516   .     S
C754   C571    1.447   1_655 S
C755   C805    1.539   .     S
C755   N776    1.399   .     A
C756   N776    1.384   .     A
C756   C815    1.506   .     S
C757   H768    1.083   .     S
C757   N777    1.358   .     A
C757   C572    1.424   1_655 S
C758   O783    1.295   .     A
C758   O782    1.305   .     A
C759   O785    1.300   .     A
C759   O784    1.306   .     A
C759   C761    1.448   .     S
C760   H770    1.084   .     S
C760   C1569   1.405   1_554 S
C762   C763    1.380   .     A
C762   H772    1.084   .     S
C763   H774    1.082   .     S
C763   C1592   1.387   .     S
C764   H773    1.072   .     S
C764   C1566   1.421   1_554 S
C764   C1591   1.387   1_554 S
N776   Zn786   2.042   .     S
N777   Zn787   2.041   .     S
O778   Zn786   2.002   .     S
O779   Zn787   1.995   .     S
O780   Zn786   1.955   .     S
O781   Zn787   1.907   .     S
O782   Zn786   1.995   .     S
O783   Zn787   2.002   .     S
O784   Zn786   1.907   .     S
O785   Zn787   1.955   .     S
C788   H793    1.112   .     S
C788   H794    1.107   .     S
C788   C789    1.528   .     S
C789   H790    1.110   .     S
C789   H791    1.106   .     S
C789   H792    1.111   .     S
C795   H803    1.098   .     S
C795   C796    1.539   .     S
C795   H804    1.071   .     S
C796   C797    1.528   .     S
C796   H801    1.110   .     S
C796   H618    1.101   1_655 S
C797   H799    1.110   .     S
C797   H798    1.111   .     S
C797   H800    1.110   .     S
C805   H813    1.103   .     S
C805   H814    1.064   .     S
C805   C806    1.546   .     S
C806   C807    1.535   .     S
C806   H812    1.106   .     S
C806   H811    1.111   .     S
C807   H809    1.107   .     S
C807   H810    1.111   .     S
C807   H808    1.110   .     S
C815   H820    1.097   .     S
C815   H821    1.112   .     S
C816   H819    1.109   .     S
C816   C631    1.528   1_655 S
C816   H633    1.109   1_655 S
C816   H634    1.110   1_655 S
C822   H827    1.112   .     S
C822   C823    1.527   .     S
C822   H828    1.097   .     S
C823   H824    1.111   .     S
C823   H825    1.111   .     S
C823   H826    1.108   .     S
C829   O871    1.297   .     A
C829   C845    1.423   .     S
C829   O870    1.296   .     A
C830   C831    1.420   .     A
C830   C4      1.418   1_556 S
C830   C28     1.421   1_556 S
C831   C835    1.431   .     A
C831   C838    1.414   .     A
C832   C836    1.400   .     A
C833   C834    1.389   .     A
C833   C4      1.419   1_556 S
C833   C24     1.405   1_556 S
C834   C835    1.396   .     A
C834   H861    1.085   .     S
C835   C914    1.523   .     S
C836   C853    1.386   .     A
C836   H863    1.073   .     S
C837   C853    1.396   .     A
C837   H857    1.083   .     S
C837   C852    1.390   .     A
C838   C854    1.399   .     A
C838   C840    1.448   .     S
C839   H867    1.084   .     S
C839   C845    1.395   .     A
C839   C1117   1.382   .     S
C840   O873    1.305   .     A
C840   O872    1.300   .     A
C841   C842    1.423   .     A
C841   C880    1.523   .     S
C841   C1391   1.382   1_545 S
C842   C850    1.438   .     S
C842   C843    1.401   .     A
C843   H858    1.082   .     S
C843   C1396   1.366   1_545 S
C844   H859    1.084   .     S
C844   C845    1.390   .     A
C844   C1119   1.366   .     S
C846   N869    1.381   .     A
C846   C887    1.516   .     S
C846   C939    1.447   .     S
C847   C897    1.539   .     S
C847   N868    1.399   .     A
C847   C1030   1.447   1_455 S
C848   N868    1.384   .     A
C848   C907    1.506   .     S
C848   C1033   1.424   1_455 S
C849   H860    1.083   .     S
C849   N869    1.358   .     A
C849   C940    1.424   .     S
C850   O875    1.295   .     A
C850   O874    1.305   .     A
C851   O877    1.300   .     A
C851   O876    1.306   .     A
C851   C853    1.448   .     S
C852   H862    1.084   .     S
C854   C855    1.380   .     A
C854   H864    1.084   .     S
C855   H866    1.082   .     S
C855   C28     1.387   1_556 S
C856   H865    1.072   .     S
N868   Zn878   2.042   .     S
N869   Zn879   2.041   .     S
O870   Zn878   2.002   .     S
O871   Zn879   1.995   .     S
O872   Zn878   1.955   .     S
O873   Zn879   1.907   .     S
O874   Zn878   1.995   .     S
O875   Zn879   2.002   .     S
O876   Zn878   1.907   .     S
O877   Zn879   1.955   .     S
C880   H885    1.112   .     S
C880   H886    1.107   .     S
C880   C881    1.528   .     S
C881   H882    1.110   .     S
C881   H883    1.106   .     S
C881   H884    1.111   .     S
C887   H895    1.098   .     S
C887   C888    1.539   .     S
C887   H896    1.071   .     S
C888   C889    1.528   .     S
C888   H893    1.110   .     S
C888   H986    1.101   .     S
C889   H891    1.110   .     S
C889   H890    1.111   .     S
C889   H892    1.110   .     S
H894   C1072   1.101   1_455 S
C897   H905    1.103   .     S
C897   H906    1.064   .     S
C897   C898    1.546   .     S
C898   C899    1.535   .     S
C898   H904    1.106   .     S
C898   H903    1.111   .     S
C899   H901    1.107   .     S
C899   H902    1.111   .     S
C899   H900    1.110   .     S
C907   H912    1.097   .     S
C907   H913    1.112   .     S
C907   C1092   1.528   1_455 S
C908   H911    1.109   .     S
C908   C999    1.528   .     S
C908   H1001   1.109   .     S
C908   H1002   1.110   .     S
H909   C1092   1.109   1_455 S
H910   C1092   1.110   1_455 S
C914   H919    1.112   .     S
C914   C915    1.527   .     S
C914   H920    1.097   .     S
C915   H916    1.111   .     S
C915   H917    1.111   .     S
C915   H918    1.108   .     S
C921   O963    1.297   .     A
C921   C937    1.423   .     S
C921   O962    1.296   .     A
C922   C923    1.420   .     A
C922   C96     1.418   1_556 S
C922   C120    1.421   1_556 S
C923   C927    1.431   .     A
C923   C930    1.414   .     A
C924   C928    1.400   .     A
C925   C926    1.389   .     A
C925   C96     1.419   1_556 S
C925   C116    1.405   1_556 S
C926   C927    1.396   .     A
C926   H953    1.085   .     S
C927   C1006   1.523   .     S
C928   C945    1.386   .     A
C928   H955    1.073   .     S
C929   C945    1.396   .     A
C929   H949    1.083   .     S
C929   C944    1.390   .     A
C930   C946    1.399   .     A
C930   C932    1.448   .     S
C931   H959    1.084   .     S
C931   C937    1.395   .     A
C931   C1209   1.382   .     S
C932   O965    1.305   .     A
C932   O964    1.300   .     A
C933   C934    1.423   .     A
C933   C972    1.523   .     S
C933   C1483   1.382   1_545 S
C934   C942    1.438   .     S
C934   C935    1.401   .     A
C935   H950    1.082   .     S
C935   C1488   1.366   1_545 S
C936   H951    1.084   .     S
C936   C937    1.390   .     A
C936   C1211   1.366   .     S
C938   N961    1.381   .     A
C938   C979    1.516   .     S
C938   C1031   1.447   .     S
C939   C989    1.539   .     S
C939   N960    1.399   .     A
C940   N960    1.384   .     A
C940   C999    1.506   .     S
C941   H952    1.083   .     S
C941   N961    1.358   .     A
C941   C1032   1.424   .     S
C942   O967    1.295   .     A
C942   O966    1.305   .     A
C943   O969    1.300   .     A
C943   O968    1.306   .     A
C943   C945    1.448   .     S
C944   H954    1.084   .     S
C946   C947    1.380   .     A
C946   H956    1.084   .     S
C947   H958    1.082   .     S
C947   C120    1.387   1_556 S
C948   H957    1.072   .     S
N960   Zn970   2.042   .     S
N961   Zn971   2.041   .     S
O962   Zn970   2.002   .     S
O963   Zn971   1.995   .     S
O964   Zn970   1.955   .     S
O965   Zn971   1.907   .     S
O966   Zn970   1.995   .     S
O967   Zn971   2.002   .     S
O968   Zn970   1.907   .     S
O969   Zn971   1.955   .     S
C972   H977    1.112   .     S
C972   H978    1.107   .     S
C972   C973    1.528   .     S
C973   H974    1.110   .     S
C973   H975    1.106   .     S
C973   H976    1.111   .     S
C979   H987    1.098   .     S
C979   C980    1.539   .     S
C979   H988    1.071   .     S
C980   C981    1.528   .     S
C980   H985    1.110   .     S
C980   H1078   1.101   .     S
C981   H983    1.110   .     S
C981   H982    1.111   .     S
C981   H984    1.110   .     S
C989   H997    1.103   .     S
C989   H998    1.064   .     S
C989   C990    1.546   .     S
C990   C991    1.535   .     S
C990   H996    1.106   .     S
C990   H995    1.111   .     S
C991   H993    1.107   .     S
C991   H994    1.111   .     S
C991   H992    1.110   .     S
C999   H1004   1.097   .     S
C999   H1005   1.112   .     S
C1000  H1003   1.109   .     S
C1000  C1091   1.528   .     S
C1000  H1093   1.109   .     S
C1000  H1094   1.110   .     S
C1006  H1011   1.112   .     S
C1006  C1007   1.527   .     S
C1006  H1012   1.097   .     S
C1007  H1008   1.111   .     S
C1007  H1009   1.111   .     S
C1007  H1010   1.108   .     S
C1013  O1055   1.297   .     A
C1013  C1029   1.423   .     S
C1013  O1054   1.296   .     A
C1014  C1015   1.420   .     A
C1014  C188    1.418   1_556 S
C1014  C212    1.421   1_556 S
C1015  C1019   1.431   .     A
C1015  C1022   1.414   .     A
C1016  C1020   1.400   .     A
C1017  C1018   1.389   .     A
C1017  C188    1.419   1_556 S
C1017  C208    1.405   1_556 S
C1018  C1019   1.396   .     A
C1018  H1045   1.085   .     S
C1019  C1098   1.523   .     S
C1020  C1037   1.386   .     A
C1020  H1047   1.073   .     S
C1021  C1037   1.396   .     A
C1021  H1041   1.083   .     S
C1021  C1036   1.390   .     A
C1022  C1038   1.399   .     A
C1022  C1024   1.448   .     S
C1023  H1051   1.084   .     S
C1023  C1029   1.395   .     A
C1023  C1301   1.382   .     S
C1024  O1057   1.305   .     A
C1024  O1056   1.300   .     A
C1025  C1026   1.423   .     A
C1025  C1064   1.523   .     S
C1025  C1575   1.382   1_545 S
C1026  C1034   1.438   .     S
C1026  C1027   1.401   .     A
C1027  H1042   1.082   .     S
C1027  C1580   1.366   1_545 S
C1028  H1043   1.084   .     S
C1028  C1029   1.390   .     A
C1028  C1303   1.366   .     S
C1030  N1053   1.381   .     A
C1030  C1071   1.516   .     S
C1030  C847    1.447   1_655 S
C1031  C1081   1.539   .     S
C1031  N1052   1.399   .     A
C1032  N1052   1.384   .     A
C1032  C1091   1.506   .     S
C1033  H1044   1.083   .     S
C1033  N1053   1.358   .     A
C1033  C848    1.424   1_655 S
C1034  O1059   1.295   .     A
C1034  O1058   1.305   .     A
C1035  O1061   1.300   .     A
C1035  O1060   1.306   .     A
C1035  C1037   1.448   .     S
C1036  H1046   1.084   .     S
C1038  C1039   1.380   .     A
C1038  H1048   1.084   .     S
C1039  H1050   1.082   .     S
C1039  C212    1.387   1_556 S
C1040  H1049   1.072   .     S
N1052  Zn1062  2.042   .     S
N1053  Zn1063  2.041   .     S
O1054  Zn1062  2.002   .     S
O1055  Zn1063  1.995   .     S
O1056  Zn1062  1.955   .     S
O1057  Zn1063  1.907   .     S
O1058  Zn1062  1.995   .     S
O1059  Zn1063  2.002   .     S
O1060  Zn1062  1.907   .     S
O1061  Zn1063  1.955   .     S
C1064  H1069   1.112   .     S
C1064  H1070   1.107   .     S
C1064  C1065   1.528   .     S
C1065  H1066   1.110   .     S
C1065  H1067   1.106   .     S
C1065  H1068   1.111   .     S
C1071  H1079   1.098   .     S
C1071  C1072   1.539   .     S
C1071  H1080   1.071   .     S
C1072  C1073   1.528   .     S
C1072  H1077   1.110   .     S
C1072  H894    1.101   1_655 S
C1073  H1075   1.110   .     S
C1073  H1074   1.111   .     S
C1073  H1076   1.110   .     S
C1081  H1089   1.103   .     S
C1081  H1090   1.064   .     S
C1081  C1082   1.546   .     S
C1082  C1083   1.535   .     S
C1082  H1088   1.106   .     S
C1082  H1087   1.111   .     S
C1083  H1085   1.107   .     S
C1083  H1086   1.111   .     S
C1083  H1084   1.110   .     S
C1091  H1096   1.097   .     S
C1091  H1097   1.112   .     S
C1092  H1095   1.109   .     S
C1092  C907    1.528   1_655 S
C1092  H909    1.109   1_655 S
C1092  H910    1.110   1_655 S
C1098  H1103   1.112   .     S
C1098  C1099   1.527   .     S
C1098  H1104   1.097   .     S
C1099  H1100   1.111   .     S
C1099  H1101   1.111   .     S
C1099  H1102   1.108   .     S
C1105  O1147   1.297   .     A
C1105  C1121   1.423   .     S
C1105  O1146   1.296   .     A
C1106  C1107   1.420   .     A
C1106  C280    1.418   1_556 S
C1106  C304    1.421   1_556 S
C1107  C1111   1.431   .     A
C1107  C1114   1.414   .     A
C1108  C1112   1.400   .     A
C1109  C1110   1.389   .     A
C1109  C280    1.419   1_556 S
C1109  C300    1.405   1_556 S
C1110  C1111   1.396   .     A
C1110  H1137   1.085   .     S
C1111  C1190   1.523   .     S
C1112  C1129   1.386   .     A
C1112  H1139   1.073   .     S
C1113  C1129   1.396   .     A
C1113  H1133   1.083   .     S
C1113  C1128   1.390   .     A
C1114  C1130   1.399   .     A
C1114  C1116   1.448   .     S
C1115  H1143   1.084   .     S
C1115  C1121   1.395   .     A
C1115  C1393   1.382   .     S
C1116  O1149   1.305   .     A
C1116  O1148   1.300   .     A
C1117  C1118   1.423   .     A
C1117  C1156   1.523   .     S
C1118  C1126   1.438   .     S
C1118  C1119   1.401   .     A
C1119  H1134   1.082   .     S
C1120  H1135   1.084   .     S
C1120  C1121   1.390   .     A
C1120  C1395   1.366   .     S
C1122  N1145   1.381   .     A
C1122  C1163   1.516   .     S
C1122  C1215   1.447   .     S
C1123  C1173   1.539   .     S
C1123  N1144   1.399   .     A
C1123  C1306   1.447   1_455 S
C1124  N1144   1.384   .     A
C1124  C1183   1.506   .     S
C1124  C1309   1.424   1_455 S
C1125  H1136   1.083   .     S
C1125  N1145   1.358   .     A
C1125  C1216   1.424   .     S
C1126  O1151   1.295   .     A
C1126  O1150   1.305   .     A
C1127  O1153   1.300   .     A
C1127  O1152   1.306   .     A
C1127  C1129   1.448   .     S
C1128  H1138   1.084   .     S
C1130  C1131   1.380   .     A
C1130  H1140   1.084   .     S
C1131  H1142   1.082   .     S
C1131  C304    1.387   1_556 S
C1132  H1141   1.072   .     S
N1144  Zn1154  2.042   .     S
N1145  Zn1155  2.041   .     S
O1146  Zn1154  2.002   .     S
O1147  Zn1155  1.995   .     S
O1148  Zn1154  1.955   .     S
O1149  Zn1155  1.907   .     S
O1150  Zn1154  1.995   .     S
O1151  Zn1155  2.002   .     S
O1152  Zn1154  1.907   .     S
O1153  Zn1155  1.955   .     S
C1156  H1161   1.112   .     S
C1156  H1162   1.107   .     S
C1156  C1157   1.528   .     S
C1157  H1158   1.110   .     S
C1157  H1159   1.106   .     S
C1157  H1160   1.111   .     S
C1163  H1171   1.098   .     S
C1163  C1164   1.539   .     S
C1163  H1172   1.071   .     S
C1164  C1165   1.528   .     S
C1164  H1169   1.110   .     S
C1164  H1262   1.101   .     S
C1165  H1167   1.110   .     S
C1165  H1166   1.111   .     S
C1165  H1168   1.110   .     S
H1170  C1348   1.101   1_455 S
C1173  H1181   1.103   .     S
C1173  H1182   1.064   .     S
C1173  C1174   1.546   .     S
C1174  C1175   1.535   .     S
C1174  H1180   1.106   .     S
C1174  H1179   1.111   .     S
C1175  H1177   1.107   .     S
C1175  H1178   1.111   .     S
C1175  H1176   1.110   .     S
C1183  H1188   1.097   .     S
C1183  H1189   1.112   .     S
C1183  C1368   1.528   1_455 S
C1184  H1187   1.109   .     S
C1184  C1275   1.528   .     S
C1184  H1277   1.109   .     S
C1184  H1278   1.110   .     S
H1185  C1368   1.109   1_455 S
H1186  C1368   1.110   1_455 S
C1190  H1195   1.112   .     S
C1190  C1191   1.527   .     S
C1190  H1196   1.097   .     S
C1191  H1192   1.111   .     S
C1191  H1193   1.111   .     S
C1191  H1194   1.108   .     S
C1197  O1239   1.297   .     A
C1197  C1213   1.423   .     S
C1197  O1238   1.296   .     A
C1198  C1199   1.420   .     A
C1198  C372    1.418   1_556 S
C1198  C396    1.421   1_556 S
C1199  C1203   1.431   .     A
C1199  C1206   1.414   .     A
C1200  C1204   1.400   .     A
C1201  C1202   1.389   .     A
C1201  C372    1.419   1_556 S
C1201  C392    1.405   1_556 S
C1202  C1203   1.396   .     A
C1202  H1229   1.085   .     S
C1203  C1282   1.523   .     S
C1204  C1221   1.386   .     A
C1204  H1231   1.073   .     S
C1205  C1221   1.396   .     A
C1205  H1225   1.083   .     S
C1205  C1220   1.390   .     A
C1206  C1222   1.399   .     A
C1206  C1208   1.448   .     S
C1207  H1235   1.084   .     S
C1207  C1213   1.395   .     A
C1207  C1485   1.382   .     S
C1208  O1241   1.305   .     A
C1208  O1240   1.300   .     A
C1209  C1210   1.423   .     A
C1209  C1248   1.523   .     S
C1210  C1218   1.438   .     S
C1210  C1211   1.401   .     A
C1211  H1226   1.082   .     S
C1212  H1227   1.084   .     S
C1212  C1213   1.390   .     A
C1212  C1487   1.366   .     S
C1214  N1237   1.381   .     A
C1214  C1255   1.516   .     S
C1214  C1307   1.447   .     S
C1215  C1265   1.539   .     S
C1215  N1236   1.399   .     A
C1216  N1236   1.384   .     A
C1216  C1275   1.506   .     S
C1217  H1228   1.083   .     S
C1217  N1237   1.358   .     A
C1217  C1308   1.424   .     S
C1218  O1243   1.295   .     A
C1218  O1242   1.305   .     A
C1219  O1245   1.300   .     A
C1219  O1244   1.306   .     A
C1219  C1221   1.448   .     S
C1220  H1230   1.084   .     S
C1222  C1223   1.380   .     A
C1222  H1232   1.084   .     S
C1223  H1234   1.082   .     S
C1223  C396    1.387   1_556 S
C1224  H1233   1.072   .     S
N1236  Zn1246  2.042   .     S
N1237  Zn1247  2.041   .     S
O1238  Zn1246  2.002   .     S
O1239  Zn1247  1.995   .     S
O1240  Zn1246  1.955   .     S
O1241  Zn1247  1.907   .     S
O1242  Zn1246  1.995   .     S
O1243  Zn1247  2.002   .     S
O1244  Zn1246  1.907   .     S
O1245  Zn1247  1.955   .     S
C1248  H1253   1.112   .     S
C1248  H1254   1.107   .     S
C1248  C1249   1.528   .     S
C1249  H1250   1.110   .     S
C1249  H1251   1.106   .     S
C1249  H1252   1.111   .     S
C1255  H1263   1.098   .     S
C1255  C1256   1.539   .     S
C1255  H1264   1.071   .     S
C1256  C1257   1.528   .     S
C1256  H1261   1.110   .     S
C1256  H1354   1.101   .     S
C1257  H1259   1.110   .     S
C1257  H1258   1.111   .     S
C1257  H1260   1.110   .     S
C1265  H1273   1.103   .     S
C1265  H1274   1.064   .     S
C1265  C1266   1.546   .     S
C1266  C1267   1.535   .     S
C1266  H1272   1.106   .     S
C1266  H1271   1.111   .     S
C1267  H1269   1.107   .     S
C1267  H1270   1.111   .     S
C1267  H1268   1.110   .     S
C1275  H1280   1.097   .     S
C1275  H1281   1.112   .     S
C1276  H1279   1.109   .     S
C1276  C1367   1.528   .     S
C1276  H1369   1.109   .     S
C1276  H1370   1.110   .     S
C1282  H1287   1.112   .     S
C1282  C1283   1.527   .     S
C1282  H1288   1.097   .     S
C1283  H1284   1.111   .     S
C1283  H1285   1.111   .     S
C1283  H1286   1.108   .     S
C1289  O1331   1.297   .     A
C1289  C1305   1.423   .     S
C1289  O1330   1.296   .     A
C1290  C1291   1.420   .     A
C1290  C464    1.418   1_556 S
C1290  C488    1.421   1_556 S
C1291  C1295   1.431   .     A
C1291  C1298   1.414   .     A
C1292  C1296   1.400   .     A
C1293  C1294   1.389   .     A
C1293  C464    1.419   1_556 S
C1293  C484    1.405   1_556 S
C1294  C1295   1.396   .     A
C1294  H1321   1.085   .     S
C1295  C1374   1.523   .     S
C1296  C1313   1.386   .     A
C1296  H1323   1.073   .     S
C1297  C1313   1.396   .     A
C1297  H1317   1.083   .     S
C1297  C1312   1.390   .     A
C1298  C1314   1.399   .     A
C1298  C1300   1.448   .     S
C1299  H1327   1.084   .     S
C1299  C1305   1.395   .     A
C1299  C1577   1.382   .     S
C1300  O1333   1.305   .     A
C1300  O1332   1.300   .     A
C1301  C1302   1.423   .     A
C1301  C1340   1.523   .     S
C1302  C1310   1.438   .     S
C1302  C1303   1.401   .     A
C1303  H1318   1.082   .     S
C1304  H1319   1.084   .     S
C1304  C1305   1.390   .     A
C1304  C1579   1.366   .     S
C1306  N1329   1.381   .     A
C1306  C1347   1.516   .     S
C1306  C1123   1.447   1_655 S
C1307  C1357   1.539   .     S
C1307  N1328   1.399   .     A
C1308  N1328   1.384   .     A
C1308  C1367   1.506   .     S
C1309  H1320   1.083   .     S
C1309  N1329   1.358   .     A
C1309  C1124   1.424   1_655 S
C1310  O1335   1.295   .     A
C1310  O1334   1.305   .     A
C1311  O1337   1.300   .     A
C1311  O1336   1.306   .     A
C1311  C1313   1.448   .     S
C1312  H1322   1.084   .     S
C1314  C1315   1.380   .     A
C1314  H1324   1.084   .     S
C1315  H1326   1.082   .     S
C1315  C488    1.387   1_556 S
C1316  H1325   1.072   .     S
N1328  Zn1338  2.042   .     S
N1329  Zn1339  2.041   .     S
O1330  Zn1338  2.002   .     S
O1331  Zn1339  1.995   .     S
O1332  Zn1338  1.955   .     S
O1333  Zn1339  1.907   .     S
O1334  Zn1338  1.995   .     S
O1335  Zn1339  2.002   .     S
O1336  Zn1338  1.907   .     S
O1337  Zn1339  1.955   .     S
C1340  H1345   1.112   .     S
C1340  H1346   1.107   .     S
C1340  C1341   1.528   .     S
C1341  H1342   1.110   .     S
C1341  H1343   1.106   .     S
C1341  H1344   1.111   .     S
C1347  H1355   1.098   .     S
C1347  C1348   1.539   .     S
C1347  H1356   1.071   .     S
C1348  C1349   1.528   .     S
C1348  H1353   1.110   .     S
C1348  H1170   1.101   1_655 S
C1349  H1351   1.110   .     S
C1349  H1350   1.111   .     S
C1349  H1352   1.110   .     S
C1357  H1365   1.103   .     S
C1357  H1366   1.064   .     S
C1357  C1358   1.546   .     S
C1358  C1359   1.535   .     S
C1358  H1364   1.106   .     S
C1358  H1363   1.111   .     S
C1359  H1361   1.107   .     S
C1359  H1362   1.111   .     S
C1359  H1360   1.110   .     S
C1367  H1372   1.097   .     S
C1367  H1373   1.112   .     S
C1368  H1371   1.109   .     S
C1368  C1183   1.528   1_655 S
C1368  H1185   1.109   1_655 S
C1368  H1186   1.110   1_655 S
C1374  H1379   1.112   .     S
C1374  C1375   1.527   .     S
C1374  H1380   1.097   .     S
C1375  H1376   1.111   .     S
C1375  H1377   1.111   .     S
C1375  H1378   1.108   .     S
C1381  O1423   1.297   .     A
C1381  C1397   1.423   .     S
C1381  O1422   1.296   .     A
C1382  C1383   1.420   .     A
C1382  C556    1.418   1_556 S
C1382  C580    1.421   1_556 S
C1383  C1387   1.431   .     A
C1383  C1390   1.414   .     A
C1384  C1388   1.400   .     A
C1385  C1386   1.389   .     A
C1385  C556    1.419   1_556 S
C1385  C576    1.405   1_556 S
C1386  C1387   1.396   .     A
C1386  H1413   1.085   .     S
C1387  C1466   1.523   .     S
C1388  C1405   1.386   .     A
C1388  H1415   1.073   .     S
C1389  C1405   1.396   .     A
C1389  H1409   1.083   .     S
C1389  C1404   1.390   .     A
C1390  C1406   1.399   .     A
C1390  C1392   1.448   .     S
C1391  H1419   1.084   .     S
C1391  C1397   1.395   .     A
C1391  C841    1.382   1_565 S
C1392  O1425   1.305   .     A
C1392  O1424   1.300   .     A
C1393  C1394   1.423   .     A
C1393  C1432   1.523   .     S
C1394  C1402   1.438   .     S
C1394  C1395   1.401   .     A
C1395  H1410   1.082   .     S
C1396  H1411   1.084   .     S
C1396  C1397   1.390   .     A
C1396  C843    1.366   1_565 S
C1398  N1421   1.381   .     A
C1398  C1439   1.516   .     S
C1398  C1491   1.447   .     S
C1399  C1449   1.539   .     S
C1399  N1420   1.399   .     A
C1399  C1582   1.447   1_455 S
C1400  N1420   1.384   .     A
C1400  C1459   1.506   .     S
C1400  C1585   1.424   1_455 S
C1401  H1412   1.083   .     S
C1401  N1421   1.358   .     A
C1401  C1492   1.424   .     S
C1402  O1427   1.295   .     A
C1402  O1426   1.305   .     A
C1403  O1429   1.300   .     A
C1403  O1428   1.306   .     A
C1403  C1405   1.448   .     S
C1404  H1414   1.084   .     S
C1406  C1407   1.380   .     A
C1406  H1416   1.084   .     S
C1407  H1418   1.082   .     S
C1407  C580    1.387   1_556 S
C1408  H1417   1.072   .     S
N1420  Zn1430  2.042   .     S
N1421  Zn1431  2.041   .     S
O1422  Zn1430  2.002   .     S
O1423  Zn1431  1.995   .     S
O1424  Zn1430  1.955   .     S
O1425  Zn1431  1.907   .     S
O1426  Zn1430  1.995   .     S
O1427  Zn1431  2.002   .     S
O1428  Zn1430  1.907   .     S
O1429  Zn1431  1.955   .     S
C1432  H1437   1.112   .     S
C1432  H1438   1.107   .     S
C1432  C1433   1.528   .     S
C1433  H1434   1.110   .     S
C1433  H1435   1.106   .     S
C1433  H1436   1.111   .     S
C1439  H1447   1.098   .     S
C1439  C1440   1.539   .     S
C1439  H1448   1.071   .     S
C1440  C1441   1.528   .     S
C1440  H1445   1.110   .     S
C1440  H1538   1.101   .     S
C1441  H1443   1.110   .     S
C1441  H1442   1.111   .     S
C1441  H1444   1.110   .     S
H1446  C1624   1.101   1_455 S
C1449  H1457   1.103   .     S
C1449  H1458   1.064   .     S
C1449  C1450   1.546   .     S
C1450  C1451   1.535   .     S
C1450  H1456   1.106   .     S
C1450  H1455   1.111   .     S
C1451  H1453   1.107   .     S
C1451  H1454   1.111   .     S
C1451  H1452   1.110   .     S
C1459  H1464   1.097   .     S
C1459  H1465   1.112   .     S
C1459  C1644   1.528   1_455 S
C1460  H1463   1.109   .     S
C1460  C1551   1.528   .     S
C1460  H1553   1.109   .     S
C1460  H1554   1.110   .     S
H1461  C1644   1.109   1_455 S
H1462  C1644   1.110   1_455 S
C1466  H1471   1.112   .     S
C1466  C1467   1.527   .     S
C1466  H1472   1.097   .     S
C1467  H1468   1.111   .     S
C1467  H1469   1.111   .     S
C1467  H1470   1.108   .     S
C1473  O1515   1.297   .     A
C1473  C1489   1.423   .     S
C1473  O1514   1.296   .     A
C1474  C1475   1.420   .     A
C1474  C648    1.418   1_556 S
C1474  C672    1.421   1_556 S
C1475  C1479   1.431   .     A
C1475  C1482   1.414   .     A
C1476  C1480   1.400   .     A
C1477  C1478   1.389   .     A
C1477  C648    1.419   1_556 S
C1477  C668    1.405   1_556 S
C1478  C1479   1.396   .     A
C1478  H1505   1.085   .     S
C1479  C1558   1.523   .     S
C1480  C1497   1.386   .     A
C1480  H1507   1.073   .     S
C1481  C1497   1.396   .     A
C1481  H1501   1.083   .     S
C1481  C1496   1.390   .     A
C1482  C1498   1.399   .     A
C1482  C1484   1.448   .     S
C1483  H1511   1.084   .     S
C1483  C1489   1.395   .     A
C1483  C933    1.382   1_565 S
C1484  O1517   1.305   .     A
C1484  O1516   1.300   .     A
C1485  C1486   1.423   .     A
C1485  C1524   1.523   .     S
C1486  C1494   1.438   .     S
C1486  C1487   1.401   .     A
C1487  H1502   1.082   .     S
C1488  H1503   1.084   .     S
C1488  C1489   1.390   .     A
C1488  C935    1.366   1_565 S
C1490  N1513   1.381   .     A
C1490  C1531   1.516   .     S
C1490  C1583   1.447   .     S
C1491  C1541   1.539   .     S
C1491  N1512   1.399   .     A
C1492  N1512   1.384   .     A
C1492  C1551   1.506   .     S
C1493  H1504   1.083   .     S
C1493  N1513   1.358   .     A
C1493  C1584   1.424   .     S
C1494  O1519   1.295   .     A
C1494  O1518   1.305   .     A
C1495  O1521   1.300   .     A
C1495  O1520   1.306   .     A
C1495  C1497   1.448   .     S
C1496  H1506   1.084   .     S
C1498  C1499   1.380   .     A
C1498  H1508   1.084   .     S
C1499  H1510   1.082   .     S
C1499  C672    1.387   1_556 S
C1500  H1509   1.072   .     S
N1512  Zn1522  2.042   .     S
N1513  Zn1523  2.041   .     S
O1514  Zn1522  2.002   .     S
O1515  Zn1523  1.995   .     S
O1516  Zn1522  1.955   .     S
O1517  Zn1523  1.907   .     S
O1518  Zn1522  1.995   .     S
O1519  Zn1523  2.002   .     S
O1520  Zn1522  1.907   .     S
O1521  Zn1523  1.955   .     S
C1524  H1529   1.112   .     S
C1524  H1530   1.107   .     S
C1524  C1525   1.528   .     S
C1525  H1526   1.110   .     S
C1525  H1527   1.106   .     S
C1525  H1528   1.111   .     S
C1531  H1539   1.098   .     S
C1531  C1532   1.539   .     S
C1531  H1540   1.071   .     S
C1532  C1533   1.528   .     S
C1532  H1537   1.110   .     S
C1532  H1630   1.101   .     S
C1533  H1535   1.110   .     S
C1533  H1534   1.111   .     S
C1533  H1536   1.110   .     S
C1541  H1549   1.103   .     S
C1541  H1550   1.064   .     S
C1541  C1542   1.546   .     S
C1542  C1543   1.535   .     S
C1542  H1548   1.106   .     S
C1542  H1547   1.111   .     S
C1543  H1545   1.107   .     S
C1543  H1546   1.111   .     S
C1543  H1544   1.110   .     S
C1551  H1556   1.097   .     S
C1551  H1557   1.112   .     S
C1552  H1555   1.109   .     S
C1552  C1643   1.528   .     S
C1552  H1645   1.109   .     S
C1552  H1646   1.110   .     S
C1558  H1563   1.112   .     S
C1558  C1559   1.527   .     S
C1558  H1564   1.097   .     S
C1559  H1560   1.111   .     S
C1559  H1561   1.111   .     S
C1559  H1562   1.108   .     S
C1565  O1607   1.297   .     A
C1565  C1581   1.423   .     S
C1565  O1606   1.296   .     A
C1566  C1567   1.420   .     A
C1566  C740    1.418   1_556 S
C1566  C764    1.421   1_556 S
C1567  C1571   1.431   .     A
C1567  C1574   1.414   .     A
C1568  C1572   1.400   .     A
C1569  C1570   1.389   .     A
C1569  C740    1.419   1_556 S
C1569  C760    1.405   1_556 S
C1570  C1571   1.396   .     A
C1570  H1597   1.085   .     S
C1571  C1650   1.523   .     S
C1572  C1589   1.386   .     A
C1572  H1599   1.073   .     S
C1573  C1589   1.396   .     A
C1573  H1593   1.083   .     S
C1573  C1588   1.390   .     A
C1574  C1590   1.399   .     A
C1574  C1576   1.448   .     S
C1575  H1603   1.084   .     S
C1575  C1581   1.395   .     A
C1575  C1025   1.382   1_565 S
C1576  O1609   1.305   .     A
C1576  O1608   1.300   .     A
C1577  C1578   1.423   .     A
C1577  C1616   1.523   .     S
C1578  C1586   1.438   .     S
C1578  C1579   1.401   .     A
C1579  H1594   1.082   .     S
C1580  H1595   1.084   .     S
C1580  C1581   1.390   .     A
C1580  C1027   1.366   1_565 S
C1582  N1605   1.381   .     A
C1582  C1623   1.516   .     S
C1582  C1399   1.447   1_655 S
C1583  C1633   1.539   .     S
C1583  N1604   1.399   .     A
C1584  N1604   1.384   .     A
C1584  C1643   1.506   .     S
C1585  H1596   1.083   .     S
C1585  N1605   1.358   .     A
C1585  C1400   1.424   1_655 S
C1586  O1611   1.295   .     A
C1586  O1610   1.305   .     A
C1587  O1613   1.300   .     A
C1587  O1612   1.306   .     A
C1587  C1589   1.448   .     S
C1588  H1598   1.084   .     S
C1590  C1591   1.380   .     A
C1590  H1600   1.084   .     S
C1591  H1602   1.082   .     S
C1591  C764    1.387   1_556 S
C1592  H1601   1.072   .     S
N1604  Zn1614  2.042   .     S
N1605  Zn1615  2.041   .     S
O1606  Zn1614  2.002   .     S
O1607  Zn1615  1.995   .     S
O1608  Zn1614  1.955   .     S
O1609  Zn1615  1.907   .     S
O1610  Zn1614  1.995   .     S
O1611  Zn1615  2.002   .     S
O1612  Zn1614  1.907   .     S
O1613  Zn1615  1.955   .     S
C1616  H1621   1.112   .     S
C1616  H1622   1.107   .     S
C1616  C1617   1.528   .     S
C1617  H1618   1.110   .     S
C1617  H1619   1.106   .     S
C1617  H1620   1.111   .     S
C1623  H1631   1.098   .     S
C1623  C1624   1.539   .     S
C1623  H1632   1.071   .     S
C1624  C1625   1.528   .     S
C1624  H1629   1.110   .     S
C1624  H1446   1.101   1_655 S
C1625  H1627   1.110   .     S
C1625  H1626   1.111   .     S
C1625  H1628   1.110   .     S
C1633  H1641   1.103   .     S
C1633  H1642   1.064   .     S
C1633  C1634   1.546   .     S
C1634  C1635   1.535   .     S
C1634  H1640   1.106   .     S
C1634  H1639   1.111   .     S
C1635  H1637   1.107   .     S
C1635  H1638   1.111   .     S
C1635  H1636   1.110   .     S
C1643  H1648   1.097   .     S
C1643  H1649   1.112   .     S
C1644  H1647   1.109   .     S
C1644  C1459   1.528   1_655 S
C1644  H1461   1.109   1_655 S
C1644  H1462   1.110   1_655 S
C1650  H1655   1.112   .     S
C1650  C1651   1.527   .     S
C1650  H1656   1.097   .     S
C1651  H1652   1.111   .     S
C1651  H1653   1.111   .     S
C1651  H1654   1.108   .     S
