data_str_m2_o1_o17_pcu_sym.223
_audit_creation_date              2020-01-03
_audit_creation_method            'Materials Studio'
_symmetry_space_group_name_H-M    'P1'
_symmetry_Int_Tables_number       1
_symmetry_cell_setting            triclinic
loop_
_symmetry_equiv_pos_as_xyz
  x,y,z
_cell_length_a                    32.6096
_cell_length_b                    28.7902
_cell_length_c                    30.1081
_cell_angle_alpha                 89.8934
_cell_angle_beta                  91.5753
_cell_angle_gamma                 89.8130
loop_
_atom_site_label
_atom_site_type_symbol
_atom_site_fract_x
_atom_site_fract_y
_atom_site_fract_z
_atom_site_U_iso_or_equiv
_atom_site_adp_type
_atom_site_occupancy
O1     O     0.10655   0.20625   0.24999   0.00000  Uiso   1.00
O2     O     0.22679   0.12709   0.25001   0.00000  Uiso   1.00
O3     O     0.22679   0.20625   0.25000   0.00000  Uiso   1.00
O4     O     0.10655   0.12709   0.24999   0.00000  Uiso   1.00
C5     C     0.08746   0.16673   0.25289   0.00000  Uiso   1.00
C6     C     0.24570   0.16659   0.24617   0.00000  Uiso   1.00
O7     O     0.16666   0.20627   0.18513   0.00000  Uiso   1.00
O8     O     0.16668   0.12707   0.31487   0.00000  Uiso   1.00
O9     O     0.16668   0.20627   0.31487   0.00000  Uiso   1.00
O10    O     0.16666   0.12707   0.18513   0.00000  Uiso   1.00
C11    C     0.16641   0.16672   0.16469   0.00000  Uiso   1.00
C12    C     0.16690   0.16665   0.33531   0.00000  Uiso   1.00
Cu13   Cu    0.16667   0.21355   0.25000   0.00000  Uiso   1.00
Cu14   Cu    0.16667   0.11978   0.25000   0.00000  Uiso   1.00
C15    C     0.20392   0.16209   0.40715   0.00000  Uiso   1.00
C16    C     0.12935   0.16273   0.09285   0.00000  Uiso   1.00
C17    C     0.16655   0.16676   0.38345   0.00000  Uiso   1.00
C18    C     0.16673   0.16698   0.11654   0.00000  Uiso   1.00
C19    C     0.12906   0.16983   0.40537   0.00000  Uiso   1.00
C20    C     0.20424   0.16956   0.09460   0.00000  Uiso   1.00
C21    C     0.12887   0.16431   0.45190   0.00000  Uiso   1.00
C22    C     0.20440   0.16392   0.04809   0.00000  Uiso   1.00
C23    C     0.16669   0.16339   0.47650   0.00000  Uiso   1.00
C24    C     0.16659   0.16344   0.02350   0.00000  Uiso   1.00
C25    C     0.20454   0.16340   0.45410   0.00000  Uiso   1.00
C26    C     0.12874   0.16400   0.04590   0.00000  Uiso   1.00
C27    C     0.09145   0.16233   0.47462   0.00000  Uiso   1.00
C28    C     0.24182   0.16137   0.02540   0.00000  Uiso   1.00
C29    C     0.09132   0.16617   0.02104   0.00000  Uiso   1.00
C30    C     0.24197   0.16508   0.47896   0.00000  Uiso   1.00
C31    C     0.02070   0.12453   0.25498   0.00000  Uiso   1.00
C32    C     0.31205   0.20906   0.24190   0.00000  Uiso   1.00
C33    C     0.31255   0.12421   0.24407   0.00000  Uiso   1.00
C34    C     0.02084   0.20943   0.25208   0.00000  Uiso   1.00
C35    C     0.29049   0.16651   0.24187   0.00000  Uiso   1.00
C36    C     0.04247   0.16693   0.25513   0.00000  Uiso   1.00
C37    C     0.14513   0.02485   0.21806   0.00000  Uiso   1.00
C38    C     0.18840   0.30847   0.28182   0.00000  Uiso   1.00
C39    C     0.18828   0.02454   0.28189   0.00000  Uiso   1.00
C40    C     0.14525   0.30881   0.21793   0.00000  Uiso   1.00
N41    N     0.16667   0.28402   0.25000   0.00000  Uiso   1.00
N42    N     0.16667   0.04931   0.25000   0.00000  Uiso   1.00
N43    N     0.24078   0.15432   0.38304   0.00000  Uiso   1.00
O44    O     0.25379   0.18551   0.35553   0.00000  Uiso   1.00
O45    O     0.26090   0.11546   0.38790   0.00000  Uiso   1.00
N46    N     0.09247   0.15535   0.11697   0.00000  Uiso   1.00
O47    O     0.07954   0.18667   0.14438   0.00000  Uiso   1.00
O48    O     0.07221   0.11674   0.11218   0.00000  Uiso   1.00
O49    O     0.09241   0.17949   0.38263   0.00000  Uiso   1.00
H50    H     0.09699   0.18787   0.35134   0.00000  Uiso   1.00
O51    O     0.24092   0.17880   0.11729   0.00000  Uiso   1.00
H52    H     0.23634   0.18727   0.14854   0.00000  Uiso   1.00
O53    O     0.05439   0.15503   0.45258   0.00000  Uiso   1.00
H54    H     0.05841   0.12896   0.43164   0.00000  Uiso   1.00
O55    O     0.27884   0.15363   0.04750   0.00000  Uiso   1.00
H56    H     0.27469   0.12767   0.06860   0.00000  Uiso   1.00
O57    O     0.05480   0.17255   0.04264   0.00000  Uiso   1.00
H58    H     0.03240   0.18048   0.02110   0.00000  Uiso   1.00
O59    O     0.27853   0.17086   0.45732   0.00000  Uiso   1.00
H60    H     0.30102   0.17833   0.47883   0.00000  Uiso   1.00
O61    O     0.03893   0.08247   0.26528   0.00000  Uiso   1.00
H62    H     0.05741   0.08749   0.29153   0.00000  Uiso   1.00
O63    O     0.29326   0.25054   0.23038   0.00000  Uiso   1.00
H64    H     0.27431   0.24440   0.20476   0.00000  Uiso   1.00
O65    O     0.29459   0.08167   0.23607   0.00000  Uiso   1.00
H66    H     0.27570   0.08539   0.20993   0.00000  Uiso   1.00
O67    O     0.04152   0.25082   0.25895   0.00000  Uiso   1.00
H68    H     0.02192   0.27708   0.26040   0.00000  Uiso   1.00
N69    N     0.12212   0.04875   0.18404   0.00000  Uiso   1.00
O70    O     0.13608   0.04962   0.14398   0.00000  Uiso   1.00
O71    O     0.08333   0.05660   0.18957   0.00000  Uiso   1.00
N72    N     0.21231   0.28454   0.31516   0.00000  Uiso   1.00
O73    O     0.19894   0.28253   0.35544   0.00000  Uiso   1.00
O74    O     0.25118   0.27792   0.30897   0.00000  Uiso   1.00
N75    N     0.21118   0.04813   0.31599   0.00000  Uiso   1.00
O76    O     0.25001   0.05563   0.31066   0.00000  Uiso   1.00
O77    O     0.19704   0.04897   0.35597   0.00000  Uiso   1.00
N78    N     0.12305   0.28532   0.18316   0.00000  Uiso   1.00
O79    O     0.08372   0.27989   0.18646   0.00000  Uiso   1.00
O80    O     0.13874   0.28336   0.14394   0.00000  Uiso   1.00
O81    O     0.43988   0.20625   0.24999   0.00000  Uiso   1.00
O82    O     0.56012   0.12709   0.25001   0.00000  Uiso   1.00
O83    O     0.56012   0.20625   0.25000   0.00000  Uiso   1.00
O84    O     0.43988   0.12709   0.24999   0.00000  Uiso   1.00
C85    C     0.42080   0.16673   0.25289   0.00000  Uiso   1.00
C86    C     0.57904   0.16659   0.24617   0.00000  Uiso   1.00
O87    O     0.49999   0.20627   0.18513   0.00000  Uiso   1.00
O88    O     0.50001   0.12707   0.31487   0.00000  Uiso   1.00
O89    O     0.50001   0.20627   0.31487   0.00000  Uiso   1.00
O90    O     0.49999   0.12707   0.18513   0.00000  Uiso   1.00
C91    C     0.49974   0.16672   0.16469   0.00000  Uiso   1.00
C92    C     0.50023   0.16665   0.33531   0.00000  Uiso   1.00
Cu93   Cu    0.50000   0.21355   0.25000   0.00000  Uiso   1.00
Cu94   Cu    0.50000   0.11978   0.25000   0.00000  Uiso   1.00
C95    C     0.53725   0.16209   0.40715   0.00000  Uiso   1.00
C96    C     0.46269   0.16273   0.09285   0.00000  Uiso   1.00
C97    C     0.49989   0.16676   0.38345   0.00000  Uiso   1.00
C98    C     0.50007   0.16698   0.11654   0.00000  Uiso   1.00
C99    C     0.46239   0.16983   0.40537   0.00000  Uiso   1.00
C100   C     0.53757   0.16956   0.09460   0.00000  Uiso   1.00
C101   C     0.46221   0.16431   0.45190   0.00000  Uiso   1.00
C102   C     0.53774   0.16392   0.04809   0.00000  Uiso   1.00
C103   C     0.50002   0.16339   0.47650   0.00000  Uiso   1.00
C104   C     0.49993   0.16344   0.02350   0.00000  Uiso   1.00
C105   C     0.53787   0.16340   0.45410   0.00000  Uiso   1.00
C106   C     0.46208   0.16400   0.04590   0.00000  Uiso   1.00
C107   C     0.42478   0.16233   0.47462   0.00000  Uiso   1.00
C108   C     0.57516   0.16137   0.02540   0.00000  Uiso   1.00
C109   C     0.42466   0.16617   0.02104   0.00000  Uiso   1.00
C110   C     0.57531   0.16508   0.47896   0.00000  Uiso   1.00
C111   C     0.35404   0.12453   0.25498   0.00000  Uiso   1.00
C112   C     0.64539   0.20906   0.24190   0.00000  Uiso   1.00
C113   C     0.64589   0.12421   0.24407   0.00000  Uiso   1.00
C114   C     0.35417   0.20943   0.25208   0.00000  Uiso   1.00
C115   C     0.62382   0.16651   0.24187   0.00000  Uiso   1.00
C116   C     0.37581   0.16693   0.25513   0.00000  Uiso   1.00
C117   C     0.47846   0.02485   0.21806   0.00000  Uiso   1.00
C118   C     0.52174   0.30847   0.28182   0.00000  Uiso   1.00
C119   C     0.52161   0.02454   0.28189   0.00000  Uiso   1.00
C120   C     0.47858   0.30881   0.21793   0.00000  Uiso   1.00
N121   N     0.50000   0.28402   0.25000   0.00000  Uiso   1.00
N122   N     0.50000   0.04931   0.25000   0.00000  Uiso   1.00
N123   N     0.57412   0.15432   0.38304   0.00000  Uiso   1.00
O124   O     0.58712   0.18551   0.35553   0.00000  Uiso   1.00
O125   O     0.59423   0.11546   0.38790   0.00000  Uiso   1.00
N126   N     0.42580   0.15535   0.11697   0.00000  Uiso   1.00
O127   O     0.41287   0.18667   0.14438   0.00000  Uiso   1.00
O128   O     0.40554   0.11674   0.11218   0.00000  Uiso   1.00
O129   O     0.42574   0.17949   0.38263   0.00000  Uiso   1.00
H130   H     0.43032   0.18787   0.35134   0.00000  Uiso   1.00
O131   O     0.57425   0.17880   0.11729   0.00000  Uiso   1.00
H132   H     0.56968   0.18727   0.14854   0.00000  Uiso   1.00
O133   O     0.38772   0.15503   0.45258   0.00000  Uiso   1.00
H134   H     0.39174   0.12896   0.43164   0.00000  Uiso   1.00
O135   O     0.61217   0.15363   0.04750   0.00000  Uiso   1.00
H136   H     0.60802   0.12767   0.06860   0.00000  Uiso   1.00
O137   O     0.38813   0.17255   0.04264   0.00000  Uiso   1.00
H138   H     0.36573   0.18048   0.02110   0.00000  Uiso   1.00
O139   O     0.61187   0.17086   0.45732   0.00000  Uiso   1.00
H140   H     0.63435   0.17833   0.47883   0.00000  Uiso   1.00
O141   O     0.37227   0.08247   0.26528   0.00000  Uiso   1.00
H142   H     0.39074   0.08749   0.29153   0.00000  Uiso   1.00
O143   O     0.62659   0.25054   0.23038   0.00000  Uiso   1.00
H144   H     0.60764   0.24440   0.20476   0.00000  Uiso   1.00
O145   O     0.62793   0.08167   0.23607   0.00000  Uiso   1.00
H146   H     0.60903   0.08539   0.20993   0.00000  Uiso   1.00
O147   O     0.37485   0.25082   0.25895   0.00000  Uiso   1.00
H148   H     0.35525   0.27708   0.26040   0.00000  Uiso   1.00
N149   N     0.45545   0.04875   0.18404   0.00000  Uiso   1.00
O150   O     0.46941   0.04962   0.14398   0.00000  Uiso   1.00
O151   O     0.41666   0.05660   0.18957   0.00000  Uiso   1.00
N152   N     0.54565   0.28454   0.31516   0.00000  Uiso   1.00
O153   O     0.53227   0.28253   0.35544   0.00000  Uiso   1.00
O154   O     0.58452   0.27792   0.30897   0.00000  Uiso   1.00
N155   N     0.54452   0.04813   0.31599   0.00000  Uiso   1.00
O156   O     0.58334   0.05563   0.31066   0.00000  Uiso   1.00
O157   O     0.53038   0.04897   0.35597   0.00000  Uiso   1.00
N158   N     0.45638   0.28532   0.18316   0.00000  Uiso   1.00
O159   O     0.41705   0.27989   0.18646   0.00000  Uiso   1.00
O160   O     0.47208   0.28336   0.14394   0.00000  Uiso   1.00
O161   O     0.77321   0.20625   0.24999   0.00000  Uiso   1.00
O162   O     0.89345   0.12709   0.25001   0.00000  Uiso   1.00
O163   O     0.89345   0.20625   0.25000   0.00000  Uiso   1.00
O164   O     0.77321   0.12709   0.24999   0.00000  Uiso   1.00
C165   C     0.75413   0.16673   0.25289   0.00000  Uiso   1.00
C166   C     0.91237   0.16659   0.24617   0.00000  Uiso   1.00
O167   O     0.83332   0.20627   0.18513   0.00000  Uiso   1.00
O168   O     0.83334   0.12707   0.31487   0.00000  Uiso   1.00
O169   O     0.83334   0.20627   0.31487   0.00000  Uiso   1.00
O170   O     0.83332   0.12707   0.18513   0.00000  Uiso   1.00
C171   C     0.83307   0.16672   0.16469   0.00000  Uiso   1.00
C172   C     0.83357   0.16665   0.33531   0.00000  Uiso   1.00
Cu173  Cu    0.83333   0.21355   0.25000   0.00000  Uiso   1.00
Cu174  Cu    0.83333   0.11978   0.25000   0.00000  Uiso   1.00
C175   C     0.87059   0.16209   0.40715   0.00000  Uiso   1.00
C176   C     0.79602   0.16273   0.09285   0.00000  Uiso   1.00
C177   C     0.83322   0.16676   0.38345   0.00000  Uiso   1.00
C178   C     0.83340   0.16698   0.11654   0.00000  Uiso   1.00
C179   C     0.79572   0.16983   0.40537   0.00000  Uiso   1.00
C180   C     0.87091   0.16956   0.09460   0.00000  Uiso   1.00
C181   C     0.79554   0.16431   0.45190   0.00000  Uiso   1.00
C182   C     0.87107   0.16392   0.04809   0.00000  Uiso   1.00
C183   C     0.83335   0.16339   0.47650   0.00000  Uiso   1.00
C184   C     0.83326   0.16344   0.02350   0.00000  Uiso   1.00
C185   C     0.87120   0.16340   0.45410   0.00000  Uiso   1.00
C186   C     0.79541   0.16400   0.04590   0.00000  Uiso   1.00
C187   C     0.75811   0.16233   0.47462   0.00000  Uiso   1.00
C188   C     0.90849   0.16137   0.02540   0.00000  Uiso   1.00
C189   C     0.75799   0.16617   0.02104   0.00000  Uiso   1.00
C190   C     0.90864   0.16508   0.47896   0.00000  Uiso   1.00
C191   C     0.68737   0.12453   0.25498   0.00000  Uiso   1.00
C192   C     0.97872   0.20906   0.24190   0.00000  Uiso   1.00
C193   C     0.97922   0.12421   0.24407   0.00000  Uiso   1.00
C194   C     0.68750   0.20943   0.25208   0.00000  Uiso   1.00
C195   C     0.95716   0.16651   0.24187   0.00000  Uiso   1.00
C196   C     0.70914   0.16693   0.25513   0.00000  Uiso   1.00
C197   C     0.81179   0.02485   0.21806   0.00000  Uiso   1.00
C198   C     0.85507   0.30847   0.28182   0.00000  Uiso   1.00
C199   C     0.85494   0.02454   0.28189   0.00000  Uiso   1.00
C200   C     0.81191   0.30881   0.21793   0.00000  Uiso   1.00
N201   N     0.83333   0.28402   0.25000   0.00000  Uiso   1.00
N202   N     0.83333   0.04931   0.25000   0.00000  Uiso   1.00
N203   N     0.90745   0.15432   0.38304   0.00000  Uiso   1.00
O204   O     0.92045   0.18551   0.35553   0.00000  Uiso   1.00
O205   O     0.92756   0.11546   0.38790   0.00000  Uiso   1.00
N206   N     0.75913   0.15535   0.11697   0.00000  Uiso   1.00
O207   O     0.74620   0.18667   0.14438   0.00000  Uiso   1.00
O208   O     0.73888   0.11674   0.11218   0.00000  Uiso   1.00
O209   O     0.75908   0.17949   0.38263   0.00000  Uiso   1.00
H210   H     0.76365   0.18787   0.35134   0.00000  Uiso   1.00
O211   O     0.90758   0.17880   0.11729   0.00000  Uiso   1.00
H212   H     0.90301   0.18727   0.14854   0.00000  Uiso   1.00
O213   O     0.72106   0.15503   0.45258   0.00000  Uiso   1.00
H214   H     0.72508   0.12896   0.43164   0.00000  Uiso   1.00
O215   O     0.94550   0.15363   0.04750   0.00000  Uiso   1.00
H216   H     0.94135   0.12767   0.06860   0.00000  Uiso   1.00
O217   O     0.72146   0.17255   0.04264   0.00000  Uiso   1.00
H218   H     0.69906   0.18048   0.02110   0.00000  Uiso   1.00
O219   O     0.94520   0.17086   0.45732   0.00000  Uiso   1.00
H220   H     0.96768   0.17833   0.47883   0.00000  Uiso   1.00
O221   O     0.70560   0.08247   0.26528   0.00000  Uiso   1.00
H222   H     0.72408   0.08749   0.29153   0.00000  Uiso   1.00
O223   O     0.95993   0.25054   0.23038   0.00000  Uiso   1.00
H224   H     0.94097   0.24440   0.20476   0.00000  Uiso   1.00
O225   O     0.96126   0.08167   0.23607   0.00000  Uiso   1.00
H226   H     0.94237   0.08539   0.20993   0.00000  Uiso   1.00
O227   O     0.70819   0.25082   0.25895   0.00000  Uiso   1.00
H228   H     0.68858   0.27708   0.26040   0.00000  Uiso   1.00
N229   N     0.78878   0.04875   0.18404   0.00000  Uiso   1.00
O230   O     0.80274   0.04962   0.14398   0.00000  Uiso   1.00
O231   O     0.75000   0.05660   0.18957   0.00000  Uiso   1.00
N232   N     0.87898   0.28454   0.31516   0.00000  Uiso   1.00
O233   O     0.86561   0.28253   0.35544   0.00000  Uiso   1.00
O234   O     0.91785   0.27792   0.30897   0.00000  Uiso   1.00
N235   N     0.87785   0.04813   0.31599   0.00000  Uiso   1.00
O236   O     0.91667   0.05563   0.31066   0.00000  Uiso   1.00
O237   O     0.86371   0.04897   0.35597   0.00000  Uiso   1.00
N238   N     0.78971   0.28532   0.18316   0.00000  Uiso   1.00
O239   O     0.75038   0.27989   0.18646   0.00000  Uiso   1.00
O240   O     0.80541   0.28336   0.14394   0.00000  Uiso   1.00
O241   O     0.10655   0.53958   0.24999   0.00000  Uiso   1.00
O242   O     0.22679   0.46042   0.25001   0.00000  Uiso   1.00
O243   O     0.22679   0.53958   0.25000   0.00000  Uiso   1.00
O244   O     0.10655   0.46042   0.24999   0.00000  Uiso   1.00
C245   C     0.08746   0.50006   0.25289   0.00000  Uiso   1.00
C246   C     0.24570   0.49993   0.24617   0.00000  Uiso   1.00
O247   O     0.16666   0.53960   0.18513   0.00000  Uiso   1.00
O248   O     0.16668   0.46040   0.31487   0.00000  Uiso   1.00
O249   O     0.16668   0.53960   0.31487   0.00000  Uiso   1.00
O250   O     0.16666   0.46040   0.18513   0.00000  Uiso   1.00
C251   C     0.16641   0.50005   0.16469   0.00000  Uiso   1.00
C252   C     0.16690   0.49998   0.33531   0.00000  Uiso   1.00
Cu253  Cu    0.16667   0.54689   0.25000   0.00000  Uiso   1.00
Cu254  Cu    0.16667   0.45311   0.25000   0.00000  Uiso   1.00
C255   C     0.20392   0.49542   0.40715   0.00000  Uiso   1.00
C256   C     0.12935   0.49606   0.09285   0.00000  Uiso   1.00
C257   C     0.16655   0.50009   0.38345   0.00000  Uiso   1.00
C258   C     0.16673   0.50031   0.11654   0.00000  Uiso   1.00
C259   C     0.12906   0.50317   0.40537   0.00000  Uiso   1.00
C260   C     0.20424   0.50289   0.09460   0.00000  Uiso   1.00
C261   C     0.12887   0.49764   0.45190   0.00000  Uiso   1.00
C262   C     0.20440   0.49725   0.04809   0.00000  Uiso   1.00
C263   C     0.16669   0.49672   0.47650   0.00000  Uiso   1.00
C264   C     0.16659   0.49677   0.02350   0.00000  Uiso   1.00
C265   C     0.20454   0.49673   0.45410   0.00000  Uiso   1.00
C266   C     0.12874   0.49734   0.04590   0.00000  Uiso   1.00
C267   C     0.09145   0.49567   0.47462   0.00000  Uiso   1.00
C268   C     0.24182   0.49471   0.02540   0.00000  Uiso   1.00
C269   C     0.09132   0.49951   0.02104   0.00000  Uiso   1.00
C270   C     0.24197   0.49842   0.47896   0.00000  Uiso   1.00
C271   C     0.02070   0.45786   0.25498   0.00000  Uiso   1.00
C272   C     0.31205   0.54240   0.24190   0.00000  Uiso   1.00
C273   C     0.31255   0.45755   0.24407   0.00000  Uiso   1.00
C274   C     0.02084   0.54276   0.25208   0.00000  Uiso   1.00
C275   C     0.29049   0.49985   0.24187   0.00000  Uiso   1.00
C276   C     0.04247   0.50027   0.25513   0.00000  Uiso   1.00
C277   C     0.14513   0.35818   0.21806   0.00000  Uiso   1.00
C278   C     0.18840   0.64180   0.28182   0.00000  Uiso   1.00
C279   C     0.18828   0.35787   0.28189   0.00000  Uiso   1.00
C280   C     0.14525   0.64214   0.21793   0.00000  Uiso   1.00
N281   N     0.16667   0.61736   0.25000   0.00000  Uiso   1.00
N282   N     0.16667   0.38264   0.25000   0.00000  Uiso   1.00
N283   N     0.24078   0.48765   0.38304   0.00000  Uiso   1.00
O284   O     0.25379   0.51884   0.35553   0.00000  Uiso   1.00
O285   O     0.26090   0.44879   0.38790   0.00000  Uiso   1.00
N286   N     0.09247   0.48868   0.11697   0.00000  Uiso   1.00
O287   O     0.07954   0.52001   0.14438   0.00000  Uiso   1.00
O288   O     0.07221   0.45007   0.11218   0.00000  Uiso   1.00
O289   O     0.09241   0.51282   0.38263   0.00000  Uiso   1.00
H290   H     0.09699   0.52120   0.35134   0.00000  Uiso   1.00
O291   O     0.24092   0.51214   0.11729   0.00000  Uiso   1.00
H292   H     0.23634   0.52060   0.14854   0.00000  Uiso   1.00
O293   O     0.05439   0.48837   0.45258   0.00000  Uiso   1.00
H294   H     0.05841   0.46229   0.43164   0.00000  Uiso   1.00
O295   O     0.27884   0.48696   0.04750   0.00000  Uiso   1.00
H296   H     0.27469   0.46100   0.06860   0.00000  Uiso   1.00
O297   O     0.05480   0.50589   0.04264   0.00000  Uiso   1.00
H298   H     0.03240   0.51381   0.02110   0.00000  Uiso   1.00
O299   O     0.27853   0.50419   0.45732   0.00000  Uiso   1.00
H300   H     0.30102   0.51167   0.47883   0.00000  Uiso   1.00
O301   O     0.03893   0.41580   0.26528   0.00000  Uiso   1.00
H302   H     0.05741   0.42083   0.29153   0.00000  Uiso   1.00
O303   O     0.29326   0.58387   0.23038   0.00000  Uiso   1.00
H304   H     0.27431   0.57774   0.20476   0.00000  Uiso   1.00
O305   O     0.29459   0.41500   0.23607   0.00000  Uiso   1.00
H306   H     0.27570   0.41872   0.20993   0.00000  Uiso   1.00
O307   O     0.04152   0.58415   0.25895   0.00000  Uiso   1.00
H308   H     0.02192   0.61042   0.26040   0.00000  Uiso   1.00
N309   N     0.12212   0.38209   0.18404   0.00000  Uiso   1.00
O310   O     0.13608   0.38296   0.14398   0.00000  Uiso   1.00
O311   O     0.08333   0.38993   0.18957   0.00000  Uiso   1.00
N312   N     0.21231   0.61787   0.31516   0.00000  Uiso   1.00
O313   O     0.19894   0.61587   0.35544   0.00000  Uiso   1.00
O314   O     0.25118   0.61126   0.30897   0.00000  Uiso   1.00
N315   N     0.21118   0.38146   0.31599   0.00000  Uiso   1.00
O316   O     0.25001   0.38896   0.31066   0.00000  Uiso   1.00
O317   O     0.19704   0.38231   0.35597   0.00000  Uiso   1.00
N318   N     0.12305   0.61865   0.18316   0.00000  Uiso   1.00
O319   O     0.08372   0.61322   0.18646   0.00000  Uiso   1.00
O320   O     0.13874   0.61670   0.14394   0.00000  Uiso   1.00
O321   O     0.43988   0.53958   0.24999   0.00000  Uiso   1.00
O322   O     0.56012   0.46042   0.25001   0.00000  Uiso   1.00
O323   O     0.56012   0.53958   0.25000   0.00000  Uiso   1.00
O324   O     0.43988   0.46042   0.24999   0.00000  Uiso   1.00
C325   C     0.42080   0.50006   0.25289   0.00000  Uiso   1.00
C326   C     0.57904   0.49993   0.24617   0.00000  Uiso   1.00
O327   O     0.49999   0.53960   0.18513   0.00000  Uiso   1.00
O328   O     0.50001   0.46040   0.31487   0.00000  Uiso   1.00
O329   O     0.50001   0.53960   0.31487   0.00000  Uiso   1.00
O330   O     0.49999   0.46040   0.18513   0.00000  Uiso   1.00
C331   C     0.49974   0.50005   0.16469   0.00000  Uiso   1.00
C332   C     0.50023   0.49998   0.33531   0.00000  Uiso   1.00
Cu333  Cu    0.50000   0.54689   0.25000   0.00000  Uiso   1.00
Cu334  Cu    0.50000   0.45311   0.25000   0.00000  Uiso   1.00
C335   C     0.53725   0.49542   0.40715   0.00000  Uiso   1.00
C336   C     0.46269   0.49606   0.09285   0.00000  Uiso   1.00
C337   C     0.49989   0.50009   0.38345   0.00000  Uiso   1.00
C338   C     0.50007   0.50031   0.11654   0.00000  Uiso   1.00
C339   C     0.46239   0.50317   0.40537   0.00000  Uiso   1.00
C340   C     0.53757   0.50289   0.09460   0.00000  Uiso   1.00
C341   C     0.46221   0.49764   0.45190   0.00000  Uiso   1.00
C342   C     0.53774   0.49725   0.04809   0.00000  Uiso   1.00
C343   C     0.50002   0.49672   0.47650   0.00000  Uiso   1.00
C344   C     0.49993   0.49677   0.02350   0.00000  Uiso   1.00
C345   C     0.53787   0.49673   0.45410   0.00000  Uiso   1.00
C346   C     0.46208   0.49734   0.04590   0.00000  Uiso   1.00
C347   C     0.42478   0.49567   0.47462   0.00000  Uiso   1.00
C348   C     0.57516   0.49471   0.02540   0.00000  Uiso   1.00
C349   C     0.42466   0.49951   0.02104   0.00000  Uiso   1.00
C350   C     0.57531   0.49842   0.47896   0.00000  Uiso   1.00
C351   C     0.35404   0.45786   0.25498   0.00000  Uiso   1.00
C352   C     0.64539   0.54240   0.24190   0.00000  Uiso   1.00
C353   C     0.64589   0.45755   0.24407   0.00000  Uiso   1.00
C354   C     0.35417   0.54276   0.25208   0.00000  Uiso   1.00
C355   C     0.62382   0.49985   0.24187   0.00000  Uiso   1.00
C356   C     0.37581   0.50027   0.25513   0.00000  Uiso   1.00
C357   C     0.47846   0.35818   0.21806   0.00000  Uiso   1.00
C358   C     0.52174   0.64180   0.28182   0.00000  Uiso   1.00
C359   C     0.52161   0.35787   0.28189   0.00000  Uiso   1.00
C360   C     0.47858   0.64214   0.21793   0.00000  Uiso   1.00
N361   N     0.50000   0.61736   0.25000   0.00000  Uiso   1.00
N362   N     0.50000   0.38264   0.25000   0.00000  Uiso   1.00
N363   N     0.57412   0.48765   0.38304   0.00000  Uiso   1.00
O364   O     0.58712   0.51884   0.35553   0.00000  Uiso   1.00
O365   O     0.59423   0.44879   0.38790   0.00000  Uiso   1.00
N366   N     0.42580   0.48868   0.11697   0.00000  Uiso   1.00
O367   O     0.41287   0.52001   0.14438   0.00000  Uiso   1.00
O368   O     0.40554   0.45007   0.11218   0.00000  Uiso   1.00
O369   O     0.42574   0.51282   0.38263   0.00000  Uiso   1.00
H370   H     0.43032   0.52120   0.35134   0.00000  Uiso   1.00
O371   O     0.57425   0.51214   0.11729   0.00000  Uiso   1.00
H372   H     0.56968   0.52060   0.14854   0.00000  Uiso   1.00
O373   O     0.38772   0.48837   0.45258   0.00000  Uiso   1.00
H374   H     0.39174   0.46229   0.43164   0.00000  Uiso   1.00
O375   O     0.61217   0.48696   0.04750   0.00000  Uiso   1.00
H376   H     0.60802   0.46100   0.06860   0.00000  Uiso   1.00
O377   O     0.38813   0.50589   0.04264   0.00000  Uiso   1.00
H378   H     0.36573   0.51381   0.02110   0.00000  Uiso   1.00
O379   O     0.61187   0.50419   0.45732   0.00000  Uiso   1.00
H380   H     0.63435   0.51167   0.47883   0.00000  Uiso   1.00
O381   O     0.37227   0.41580   0.26528   0.00000  Uiso   1.00
H382   H     0.39074   0.42083   0.29153   0.00000  Uiso   1.00
O383   O     0.62659   0.58387   0.23038   0.00000  Uiso   1.00
H384   H     0.60764   0.57774   0.20476   0.00000  Uiso   1.00
O385   O     0.62793   0.41500   0.23607   0.00000  Uiso   1.00
H386   H     0.60903   0.41872   0.20993   0.00000  Uiso   1.00
O387   O     0.37485   0.58415   0.25895   0.00000  Uiso   1.00
H388   H     0.35525   0.61042   0.26040   0.00000  Uiso   1.00
N389   N     0.45545   0.38209   0.18404   0.00000  Uiso   1.00
O390   O     0.46941   0.38296   0.14398   0.00000  Uiso   1.00
O391   O     0.41666   0.38993   0.18957   0.00000  Uiso   1.00
N392   N     0.54565   0.61787   0.31516   0.00000  Uiso   1.00
O393   O     0.53227   0.61587   0.35544   0.00000  Uiso   1.00
O394   O     0.58452   0.61126   0.30897   0.00000  Uiso   1.00
N395   N     0.54452   0.38146   0.31599   0.00000  Uiso   1.00
O396   O     0.58334   0.38896   0.31066   0.00000  Uiso   1.00
O397   O     0.53038   0.38231   0.35597   0.00000  Uiso   1.00
N398   N     0.45638   0.61865   0.18316   0.00000  Uiso   1.00
O399   O     0.41705   0.61322   0.18646   0.00000  Uiso   1.00
O400   O     0.47208   0.61670   0.14394   0.00000  Uiso   1.00
O401   O     0.77321   0.53958   0.24999   0.00000  Uiso   1.00
O402   O     0.89345   0.46042   0.25001   0.00000  Uiso   1.00
O403   O     0.89345   0.53958   0.25000   0.00000  Uiso   1.00
O404   O     0.77321   0.46042   0.24999   0.00000  Uiso   1.00
C405   C     0.75413   0.50006   0.25289   0.00000  Uiso   1.00
C406   C     0.91237   0.49993   0.24617   0.00000  Uiso   1.00
O407   O     0.83332   0.53960   0.18513   0.00000  Uiso   1.00
O408   O     0.83334   0.46040   0.31487   0.00000  Uiso   1.00
O409   O     0.83334   0.53960   0.31487   0.00000  Uiso   1.00
O410   O     0.83332   0.46040   0.18513   0.00000  Uiso   1.00
C411   C     0.83307   0.50005   0.16469   0.00000  Uiso   1.00
C412   C     0.83357   0.49998   0.33531   0.00000  Uiso   1.00
Cu413  Cu    0.83333   0.54689   0.25000   0.00000  Uiso   1.00
Cu414  Cu    0.83333   0.45311   0.25000   0.00000  Uiso   1.00
C415   C     0.87059   0.49542   0.40715   0.00000  Uiso   1.00
C416   C     0.79602   0.49606   0.09285   0.00000  Uiso   1.00
C417   C     0.83322   0.50009   0.38345   0.00000  Uiso   1.00
C418   C     0.83340   0.50031   0.11654   0.00000  Uiso   1.00
C419   C     0.79572   0.50317   0.40537   0.00000  Uiso   1.00
C420   C     0.87091   0.50289   0.09460   0.00000  Uiso   1.00
C421   C     0.79554   0.49764   0.45190   0.00000  Uiso   1.00
C422   C     0.87107   0.49725   0.04809   0.00000  Uiso   1.00
C423   C     0.83335   0.49672   0.47650   0.00000  Uiso   1.00
C424   C     0.83326   0.49677   0.02350   0.00000  Uiso   1.00
C425   C     0.87120   0.49673   0.45410   0.00000  Uiso   1.00
C426   C     0.79541   0.49734   0.04590   0.00000  Uiso   1.00
C427   C     0.75811   0.49567   0.47462   0.00000  Uiso   1.00
C428   C     0.90849   0.49471   0.02540   0.00000  Uiso   1.00
C429   C     0.75799   0.49951   0.02104   0.00000  Uiso   1.00
C430   C     0.90864   0.49842   0.47896   0.00000  Uiso   1.00
C431   C     0.68737   0.45786   0.25498   0.00000  Uiso   1.00
C432   C     0.97872   0.54240   0.24190   0.00000  Uiso   1.00
C433   C     0.97922   0.45755   0.24407   0.00000  Uiso   1.00
C434   C     0.68750   0.54276   0.25208   0.00000  Uiso   1.00
C435   C     0.95716   0.49985   0.24187   0.00000  Uiso   1.00
C436   C     0.70914   0.50027   0.25513   0.00000  Uiso   1.00
C437   C     0.81179   0.35818   0.21806   0.00000  Uiso   1.00
C438   C     0.85507   0.64180   0.28182   0.00000  Uiso   1.00
C439   C     0.85494   0.35787   0.28189   0.00000  Uiso   1.00
C440   C     0.81191   0.64214   0.21793   0.00000  Uiso   1.00
N441   N     0.83333   0.61736   0.25000   0.00000  Uiso   1.00
N442   N     0.83333   0.38264   0.25000   0.00000  Uiso   1.00
N443   N     0.90745   0.48765   0.38304   0.00000  Uiso   1.00
O444   O     0.92045   0.51884   0.35553   0.00000  Uiso   1.00
O445   O     0.92756   0.44879   0.38790   0.00000  Uiso   1.00
N446   N     0.75913   0.48868   0.11697   0.00000  Uiso   1.00
O447   O     0.74620   0.52001   0.14438   0.00000  Uiso   1.00
O448   O     0.73888   0.45007   0.11218   0.00000  Uiso   1.00
O449   O     0.75908   0.51282   0.38263   0.00000  Uiso   1.00
H450   H     0.76365   0.52120   0.35134   0.00000  Uiso   1.00
O451   O     0.90758   0.51214   0.11729   0.00000  Uiso   1.00
H452   H     0.90301   0.52060   0.14854   0.00000  Uiso   1.00
O453   O     0.72106   0.48837   0.45258   0.00000  Uiso   1.00
H454   H     0.72508   0.46229   0.43164   0.00000  Uiso   1.00
O455   O     0.94550   0.48696   0.04750   0.00000  Uiso   1.00
H456   H     0.94135   0.46100   0.06860   0.00000  Uiso   1.00
O457   O     0.72146   0.50589   0.04264   0.00000  Uiso   1.00
H458   H     0.69906   0.51381   0.02110   0.00000  Uiso   1.00
O459   O     0.94520   0.50419   0.45732   0.00000  Uiso   1.00
H460   H     0.96768   0.51167   0.47883   0.00000  Uiso   1.00
O461   O     0.70560   0.41580   0.26528   0.00000  Uiso   1.00
H462   H     0.72408   0.42083   0.29153   0.00000  Uiso   1.00
O463   O     0.95993   0.58387   0.23038   0.00000  Uiso   1.00
H464   H     0.94097   0.57774   0.20476   0.00000  Uiso   1.00
O465   O     0.96126   0.41500   0.23607   0.00000  Uiso   1.00
H466   H     0.94237   0.41872   0.20993   0.00000  Uiso   1.00
O467   O     0.70819   0.58415   0.25895   0.00000  Uiso   1.00
H468   H     0.68858   0.61042   0.26040   0.00000  Uiso   1.00
N469   N     0.78878   0.38209   0.18404   0.00000  Uiso   1.00
O470   O     0.80274   0.38296   0.14398   0.00000  Uiso   1.00
O471   O     0.75000   0.38993   0.18957   0.00000  Uiso   1.00
N472   N     0.87898   0.61787   0.31516   0.00000  Uiso   1.00
O473   O     0.86561   0.61587   0.35544   0.00000  Uiso   1.00
O474   O     0.91785   0.61126   0.30897   0.00000  Uiso   1.00
N475   N     0.87785   0.38146   0.31599   0.00000  Uiso   1.00
O476   O     0.91667   0.38896   0.31066   0.00000  Uiso   1.00
O477   O     0.86371   0.38231   0.35597   0.00000  Uiso   1.00
N478   N     0.78971   0.61865   0.18316   0.00000  Uiso   1.00
O479   O     0.75038   0.61322   0.18646   0.00000  Uiso   1.00
O480   O     0.80541   0.61670   0.14394   0.00000  Uiso   1.00
O481   O     0.10655   0.87291   0.24999   0.00000  Uiso   1.00
O482   O     0.22679   0.79375   0.25001   0.00000  Uiso   1.00
O483   O     0.22679   0.87291   0.25000   0.00000  Uiso   1.00
O484   O     0.10655   0.79375   0.24999   0.00000  Uiso   1.00
C485   C     0.08746   0.83340   0.25289   0.00000  Uiso   1.00
C486   C     0.24570   0.83326   0.24617   0.00000  Uiso   1.00
O487   O     0.16666   0.87293   0.18513   0.00000  Uiso   1.00
O488   O     0.16668   0.79373   0.31487   0.00000  Uiso   1.00
O489   O     0.16668   0.87293   0.31487   0.00000  Uiso   1.00
O490   O     0.16666   0.79373   0.18513   0.00000  Uiso   1.00
C491   C     0.16641   0.83339   0.16469   0.00000  Uiso   1.00
C492   C     0.16690   0.83332   0.33531   0.00000  Uiso   1.00
Cu493  Cu    0.16667   0.88022   0.25000   0.00000  Uiso   1.00
Cu494  Cu    0.16667   0.78645   0.25000   0.00000  Uiso   1.00
C495   C     0.20392   0.82875   0.40715   0.00000  Uiso   1.00
C496   C     0.12935   0.82939   0.09285   0.00000  Uiso   1.00
C497   C     0.16655   0.83343   0.38345   0.00000  Uiso   1.00
C498   C     0.16673   0.83364   0.11654   0.00000  Uiso   1.00
C499   C     0.12906   0.83650   0.40537   0.00000  Uiso   1.00
C500   C     0.20424   0.83622   0.09460   0.00000  Uiso   1.00
C501   C     0.12887   0.83097   0.45190   0.00000  Uiso   1.00
C502   C     0.20440   0.83059   0.04809   0.00000  Uiso   1.00
C503   C     0.16669   0.83005   0.47650   0.00000  Uiso   1.00
C504   C     0.16659   0.83011   0.02350   0.00000  Uiso   1.00
C505   C     0.20454   0.83007   0.45410   0.00000  Uiso   1.00
C506   C     0.12874   0.83067   0.04590   0.00000  Uiso   1.00
C507   C     0.09145   0.82900   0.47462   0.00000  Uiso   1.00
C508   C     0.24182   0.82804   0.02540   0.00000  Uiso   1.00
C509   C     0.09132   0.83284   0.02104   0.00000  Uiso   1.00
C510   C     0.24197   0.83175   0.47896   0.00000  Uiso   1.00
C511   C     0.02070   0.79119   0.25498   0.00000  Uiso   1.00
C512   C     0.31205   0.87573   0.24190   0.00000  Uiso   1.00
C513   C     0.31255   0.79088   0.24407   0.00000  Uiso   1.00
C514   C     0.02084   0.87609   0.25208   0.00000  Uiso   1.00
C515   C     0.29049   0.83318   0.24187   0.00000  Uiso   1.00
C516   C     0.04247   0.83360   0.25513   0.00000  Uiso   1.00
C517   C     0.14513   0.69152   0.21806   0.00000  Uiso   1.00
C518   C     0.18840   0.97514   0.28182   0.00000  Uiso   1.00
C519   C     0.18828   0.69120   0.28189   0.00000  Uiso   1.00
C520   C     0.14525   0.97547   0.21793   0.00000  Uiso   1.00
N521   N     0.16667   0.95069   0.25000   0.00000  Uiso   1.00
N522   N     0.16667   0.71598   0.25000   0.00000  Uiso   1.00
N523   N     0.24078   0.82099   0.38304   0.00000  Uiso   1.00
O524   O     0.25379   0.85218   0.35553   0.00000  Uiso   1.00
O525   O     0.26090   0.78212   0.38790   0.00000  Uiso   1.00
N526   N     0.09247   0.82201   0.11697   0.00000  Uiso   1.00
O527   O     0.07954   0.85334   0.14438   0.00000  Uiso   1.00
O528   O     0.07221   0.78341   0.11218   0.00000  Uiso   1.00
O529   O     0.09241   0.84616   0.38263   0.00000  Uiso   1.00
H530   H     0.09699   0.85453   0.35134   0.00000  Uiso   1.00
O531   O     0.24092   0.84547   0.11729   0.00000  Uiso   1.00
H532   H     0.23634   0.85394   0.14854   0.00000  Uiso   1.00
O533   O     0.05439   0.82170   0.45258   0.00000  Uiso   1.00
H534   H     0.05841   0.79563   0.43164   0.00000  Uiso   1.00
O535   O     0.27884   0.82029   0.04750   0.00000  Uiso   1.00
H536   H     0.27469   0.79433   0.06860   0.00000  Uiso   1.00
O537   O     0.05480   0.83922   0.04264   0.00000  Uiso   1.00
H538   H     0.03240   0.84715   0.02110   0.00000  Uiso   1.00
O539   O     0.27853   0.83752   0.45732   0.00000  Uiso   1.00
H540   H     0.30102   0.84500   0.47883   0.00000  Uiso   1.00
O541   O     0.03893   0.74913   0.26528   0.00000  Uiso   1.00
H542   H     0.05741   0.75416   0.29153   0.00000  Uiso   1.00
O543   O     0.29326   0.91721   0.23038   0.00000  Uiso   1.00
H544   H     0.27431   0.91107   0.20476   0.00000  Uiso   1.00
O545   O     0.29459   0.74834   0.23607   0.00000  Uiso   1.00
H546   H     0.27570   0.75206   0.20993   0.00000  Uiso   1.00
O547   O     0.04152   0.91749   0.25895   0.00000  Uiso   1.00
H548   H     0.02192   0.94375   0.26040   0.00000  Uiso   1.00
N549   N     0.12212   0.71542   0.18404   0.00000  Uiso   1.00
O550   O     0.13608   0.71629   0.14398   0.00000  Uiso   1.00
O551   O     0.08333   0.72326   0.18957   0.00000  Uiso   1.00
N552   N     0.21231   0.95120   0.31516   0.00000  Uiso   1.00
O553   O     0.19894   0.94920   0.35544   0.00000  Uiso   1.00
O554   O     0.25118   0.94459   0.30897   0.00000  Uiso   1.00
N555   N     0.21118   0.71479   0.31599   0.00000  Uiso   1.00
O556   O     0.25001   0.72230   0.31066   0.00000  Uiso   1.00
O557   O     0.19704   0.71564   0.35597   0.00000  Uiso   1.00
N558   N     0.12305   0.95198   0.18316   0.00000  Uiso   1.00
O559   O     0.08372   0.94656   0.18646   0.00000  Uiso   1.00
O560   O     0.13874   0.95003   0.14394   0.00000  Uiso   1.00
O561   O     0.43988   0.87291   0.24999   0.00000  Uiso   1.00
O562   O     0.56012   0.79375   0.25001   0.00000  Uiso   1.00
O563   O     0.56012   0.87291   0.25000   0.00000  Uiso   1.00
O564   O     0.43988   0.79375   0.24999   0.00000  Uiso   1.00
C565   C     0.42080   0.83340   0.25289   0.00000  Uiso   1.00
C566   C     0.57904   0.83326   0.24617   0.00000  Uiso   1.00
O567   O     0.49999   0.87293   0.18513   0.00000  Uiso   1.00
O568   O     0.50001   0.79373   0.31487   0.00000  Uiso   1.00
O569   O     0.50001   0.87293   0.31487   0.00000  Uiso   1.00
O570   O     0.49999   0.79373   0.18513   0.00000  Uiso   1.00
C571   C     0.49974   0.83339   0.16469   0.00000  Uiso   1.00
C572   C     0.50023   0.83332   0.33531   0.00000  Uiso   1.00
Cu573  Cu    0.50000   0.88022   0.25000   0.00000  Uiso   1.00
Cu574  Cu    0.50000   0.78645   0.25000   0.00000  Uiso   1.00
C575   C     0.53725   0.82875   0.40715   0.00000  Uiso   1.00
C576   C     0.46269   0.82939   0.09285   0.00000  Uiso   1.00
C577   C     0.49989   0.83343   0.38345   0.00000  Uiso   1.00
C578   C     0.50007   0.83364   0.11654   0.00000  Uiso   1.00
C579   C     0.46239   0.83650   0.40537   0.00000  Uiso   1.00
C580   C     0.53757   0.83622   0.09460   0.00000  Uiso   1.00
C581   C     0.46221   0.83097   0.45190   0.00000  Uiso   1.00
C582   C     0.53774   0.83059   0.04809   0.00000  Uiso   1.00
C583   C     0.50002   0.83005   0.47650   0.00000  Uiso   1.00
C584   C     0.49993   0.83011   0.02350   0.00000  Uiso   1.00
C585   C     0.53787   0.83007   0.45410   0.00000  Uiso   1.00
C586   C     0.46208   0.83067   0.04590   0.00000  Uiso   1.00
C587   C     0.42478   0.82900   0.47462   0.00000  Uiso   1.00
C588   C     0.57516   0.82804   0.02540   0.00000  Uiso   1.00
C589   C     0.42466   0.83284   0.02104   0.00000  Uiso   1.00
C590   C     0.57531   0.83175   0.47896   0.00000  Uiso   1.00
C591   C     0.35404   0.79119   0.25498   0.00000  Uiso   1.00
C592   C     0.64539   0.87573   0.24190   0.00000  Uiso   1.00
C593   C     0.64589   0.79088   0.24407   0.00000  Uiso   1.00
C594   C     0.35417   0.87609   0.25208   0.00000  Uiso   1.00
C595   C     0.62382   0.83318   0.24187   0.00000  Uiso   1.00
C596   C     0.37581   0.83360   0.25513   0.00000  Uiso   1.00
C597   C     0.47846   0.69152   0.21806   0.00000  Uiso   1.00
C598   C     0.52174   0.97514   0.28182   0.00000  Uiso   1.00
C599   C     0.52161   0.69120   0.28189   0.00000  Uiso   1.00
C600   C     0.47858   0.97547   0.21793   0.00000  Uiso   1.00
N601   N     0.50000   0.95069   0.25000   0.00000  Uiso   1.00
N602   N     0.50000   0.71598   0.25000   0.00000  Uiso   1.00
N603   N     0.57412   0.82099   0.38304   0.00000  Uiso   1.00
O604   O     0.58712   0.85218   0.35553   0.00000  Uiso   1.00
O605   O     0.59423   0.78212   0.38790   0.00000  Uiso   1.00
N606   N     0.42580   0.82201   0.11697   0.00000  Uiso   1.00
O607   O     0.41287   0.85334   0.14438   0.00000  Uiso   1.00
O608   O     0.40554   0.78341   0.11218   0.00000  Uiso   1.00
O609   O     0.42574   0.84616   0.38263   0.00000  Uiso   1.00
H610   H     0.43032   0.85453   0.35134   0.00000  Uiso   1.00
O611   O     0.57425   0.84547   0.11729   0.00000  Uiso   1.00
H612   H     0.56968   0.85394   0.14854   0.00000  Uiso   1.00
O613   O     0.38772   0.82170   0.45258   0.00000  Uiso   1.00
H614   H     0.39174   0.79563   0.43164   0.00000  Uiso   1.00
O615   O     0.61217   0.82029   0.04750   0.00000  Uiso   1.00
H616   H     0.60802   0.79433   0.06860   0.00000  Uiso   1.00
O617   O     0.38813   0.83922   0.04264   0.00000  Uiso   1.00
H618   H     0.36573   0.84715   0.02110   0.00000  Uiso   1.00
O619   O     0.61187   0.83752   0.45732   0.00000  Uiso   1.00
H620   H     0.63435   0.84500   0.47883   0.00000  Uiso   1.00
O621   O     0.37227   0.74913   0.26528   0.00000  Uiso   1.00
H622   H     0.39074   0.75416   0.29153   0.00000  Uiso   1.00
O623   O     0.62659   0.91721   0.23038   0.00000  Uiso   1.00
H624   H     0.60764   0.91107   0.20476   0.00000  Uiso   1.00
O625   O     0.62793   0.74834   0.23607   0.00000  Uiso   1.00
H626   H     0.60903   0.75206   0.20993   0.00000  Uiso   1.00
O627   O     0.37485   0.91749   0.25895   0.00000  Uiso   1.00
H628   H     0.35525   0.94375   0.26040   0.00000  Uiso   1.00
N629   N     0.45545   0.71542   0.18404   0.00000  Uiso   1.00
O630   O     0.46941   0.71629   0.14398   0.00000  Uiso   1.00
O631   O     0.41666   0.72326   0.18957   0.00000  Uiso   1.00
N632   N     0.54565   0.95120   0.31516   0.00000  Uiso   1.00
O633   O     0.53227   0.94920   0.35544   0.00000  Uiso   1.00
O634   O     0.58452   0.94459   0.30897   0.00000  Uiso   1.00
N635   N     0.54452   0.71479   0.31599   0.00000  Uiso   1.00
O636   O     0.58334   0.72230   0.31066   0.00000  Uiso   1.00
O637   O     0.53038   0.71564   0.35597   0.00000  Uiso   1.00
N638   N     0.45638   0.95198   0.18316   0.00000  Uiso   1.00
O639   O     0.41705   0.94656   0.18646   0.00000  Uiso   1.00
O640   O     0.47208   0.95003   0.14394   0.00000  Uiso   1.00
O641   O     0.77321   0.87291   0.24999   0.00000  Uiso   1.00
O642   O     0.89345   0.79375   0.25001   0.00000  Uiso   1.00
O643   O     0.89345   0.87291   0.25000   0.00000  Uiso   1.00
O644   O     0.77321   0.79375   0.24999   0.00000  Uiso   1.00
C645   C     0.75413   0.83340   0.25289   0.00000  Uiso   1.00
C646   C     0.91237   0.83326   0.24617   0.00000  Uiso   1.00
O647   O     0.83332   0.87293   0.18513   0.00000  Uiso   1.00
O648   O     0.83334   0.79373   0.31487   0.00000  Uiso   1.00
O649   O     0.83334   0.87293   0.31487   0.00000  Uiso   1.00
O650   O     0.83332   0.79373   0.18513   0.00000  Uiso   1.00
C651   C     0.83307   0.83339   0.16469   0.00000  Uiso   1.00
C652   C     0.83357   0.83332   0.33531   0.00000  Uiso   1.00
Cu653  Cu    0.83333   0.88022   0.25000   0.00000  Uiso   1.00
Cu654  Cu    0.83333   0.78645   0.25000   0.00000  Uiso   1.00
C655   C     0.87059   0.82875   0.40715   0.00000  Uiso   1.00
C656   C     0.79602   0.82939   0.09285   0.00000  Uiso   1.00
C657   C     0.83322   0.83343   0.38345   0.00000  Uiso   1.00
C658   C     0.83340   0.83364   0.11654   0.00000  Uiso   1.00
C659   C     0.79572   0.83650   0.40537   0.00000  Uiso   1.00
C660   C     0.87091   0.83622   0.09460   0.00000  Uiso   1.00
C661   C     0.79554   0.83097   0.45190   0.00000  Uiso   1.00
C662   C     0.87107   0.83059   0.04809   0.00000  Uiso   1.00
C663   C     0.83335   0.83005   0.47650   0.00000  Uiso   1.00
C664   C     0.83326   0.83011   0.02350   0.00000  Uiso   1.00
C665   C     0.87120   0.83007   0.45410   0.00000  Uiso   1.00
C666   C     0.79541   0.83067   0.04590   0.00000  Uiso   1.00
C667   C     0.75811   0.82900   0.47462   0.00000  Uiso   1.00
C668   C     0.90849   0.82804   0.02540   0.00000  Uiso   1.00
C669   C     0.75799   0.83284   0.02104   0.00000  Uiso   1.00
C670   C     0.90864   0.83175   0.47896   0.00000  Uiso   1.00
C671   C     0.68737   0.79119   0.25498   0.00000  Uiso   1.00
C672   C     0.97872   0.87573   0.24190   0.00000  Uiso   1.00
C673   C     0.97922   0.79088   0.24407   0.00000  Uiso   1.00
C674   C     0.68750   0.87609   0.25208   0.00000  Uiso   1.00
C675   C     0.95716   0.83318   0.24187   0.00000  Uiso   1.00
C676   C     0.70914   0.83360   0.25513   0.00000  Uiso   1.00
C677   C     0.81179   0.69152   0.21806   0.00000  Uiso   1.00
C678   C     0.85507   0.97514   0.28182   0.00000  Uiso   1.00
C679   C     0.85494   0.69120   0.28189   0.00000  Uiso   1.00
C680   C     0.81191   0.97547   0.21793   0.00000  Uiso   1.00
N681   N     0.83333   0.95069   0.25000   0.00000  Uiso   1.00
N682   N     0.83333   0.71598   0.25000   0.00000  Uiso   1.00
N683   N     0.90745   0.82099   0.38304   0.00000  Uiso   1.00
O684   O     0.92045   0.85218   0.35553   0.00000  Uiso   1.00
O685   O     0.92756   0.78212   0.38790   0.00000  Uiso   1.00
N686   N     0.75913   0.82201   0.11697   0.00000  Uiso   1.00
O687   O     0.74620   0.85334   0.14438   0.00000  Uiso   1.00
O688   O     0.73888   0.78341   0.11218   0.00000  Uiso   1.00
O689   O     0.75908   0.84616   0.38263   0.00000  Uiso   1.00
H690   H     0.76365   0.85453   0.35134   0.00000  Uiso   1.00
O691   O     0.90758   0.84547   0.11729   0.00000  Uiso   1.00
H692   H     0.90301   0.85394   0.14854   0.00000  Uiso   1.00
O693   O     0.72106   0.82170   0.45258   0.00000  Uiso   1.00
H694   H     0.72508   0.79563   0.43164   0.00000  Uiso   1.00
O695   O     0.94550   0.82029   0.04750   0.00000  Uiso   1.00
H696   H     0.94135   0.79433   0.06860   0.00000  Uiso   1.00
O697   O     0.72146   0.83922   0.04264   0.00000  Uiso   1.00
H698   H     0.69906   0.84715   0.02110   0.00000  Uiso   1.00
O699   O     0.94520   0.83752   0.45732   0.00000  Uiso   1.00
H700   H     0.96768   0.84500   0.47883   0.00000  Uiso   1.00
O701   O     0.70560   0.74913   0.26528   0.00000  Uiso   1.00
H702   H     0.72408   0.75416   0.29153   0.00000  Uiso   1.00
O703   O     0.95993   0.91721   0.23038   0.00000  Uiso   1.00
H704   H     0.94097   0.91107   0.20476   0.00000  Uiso   1.00
O705   O     0.96126   0.74834   0.23607   0.00000  Uiso   1.00
H706   H     0.94237   0.75206   0.20993   0.00000  Uiso   1.00
O707   O     0.70819   0.91749   0.25895   0.00000  Uiso   1.00
H708   H     0.68858   0.94375   0.26040   0.00000  Uiso   1.00
N709   N     0.78878   0.71542   0.18404   0.00000  Uiso   1.00
O710   O     0.80274   0.71629   0.14398   0.00000  Uiso   1.00
O711   O     0.75000   0.72326   0.18957   0.00000  Uiso   1.00
N712   N     0.87898   0.95120   0.31516   0.00000  Uiso   1.00
O713   O     0.86561   0.94920   0.35544   0.00000  Uiso   1.00
O714   O     0.91785   0.94459   0.30897   0.00000  Uiso   1.00
N715   N     0.87785   0.71479   0.31599   0.00000  Uiso   1.00
O716   O     0.91667   0.72230   0.31066   0.00000  Uiso   1.00
O717   O     0.86371   0.71564   0.35597   0.00000  Uiso   1.00
N718   N     0.78971   0.95198   0.18316   0.00000  Uiso   1.00
O719   O     0.75038   0.94656   0.18646   0.00000  Uiso   1.00
O720   O     0.80541   0.95003   0.14394   0.00000  Uiso   1.00
O721   O     0.10655   0.20625   0.74999   0.00000  Uiso   1.00
O722   O     0.22679   0.12709   0.75001   0.00000  Uiso   1.00
O723   O     0.22679   0.20625   0.75000   0.00000  Uiso   1.00
O724   O     0.10655   0.12709   0.74999   0.00000  Uiso   1.00
C725   C     0.08746   0.16673   0.75289   0.00000  Uiso   1.00
C726   C     0.24570   0.16659   0.74617   0.00000  Uiso   1.00
O727   O     0.16666   0.20627   0.68513   0.00000  Uiso   1.00
O728   O     0.16668   0.12707   0.81487   0.00000  Uiso   1.00
O729   O     0.16668   0.20627   0.81487   0.00000  Uiso   1.00
O730   O     0.16666   0.12707   0.68513   0.00000  Uiso   1.00
C731   C     0.16641   0.16672   0.66469   0.00000  Uiso   1.00
C732   C     0.16690   0.16665   0.83531   0.00000  Uiso   1.00
Cu733  Cu    0.16667   0.21355   0.75000   0.00000  Uiso   1.00
Cu734  Cu    0.16667   0.11978   0.75000   0.00000  Uiso   1.00
C735   C     0.20392   0.16209   0.90715   0.00000  Uiso   1.00
C736   C     0.12935   0.16273   0.59285   0.00000  Uiso   1.00
C737   C     0.16655   0.16676   0.88345   0.00000  Uiso   1.00
C738   C     0.16673   0.16698   0.61654   0.00000  Uiso   1.00
C739   C     0.12906   0.16983   0.90537   0.00000  Uiso   1.00
C740   C     0.20424   0.16956   0.59460   0.00000  Uiso   1.00
C741   C     0.12887   0.16431   0.95190   0.00000  Uiso   1.00
C742   C     0.20440   0.16392   0.54809   0.00000  Uiso   1.00
C743   C     0.16669   0.16339   0.97650   0.00000  Uiso   1.00
C744   C     0.16659   0.16344   0.52350   0.00000  Uiso   1.00
C745   C     0.20454   0.16340   0.95410   0.00000  Uiso   1.00
C746   C     0.12874   0.16400   0.54590   0.00000  Uiso   1.00
C747   C     0.09145   0.16233   0.97462   0.00000  Uiso   1.00
C748   C     0.24182   0.16137   0.52540   0.00000  Uiso   1.00
C749   C     0.09132   0.16617   0.52104   0.00000  Uiso   1.00
C750   C     0.24197   0.16508   0.97896   0.00000  Uiso   1.00
C751   C     0.02070   0.12453   0.75498   0.00000  Uiso   1.00
C752   C     0.31205   0.20906   0.74190   0.00000  Uiso   1.00
C753   C     0.31255   0.12421   0.74407   0.00000  Uiso   1.00
C754   C     0.02084   0.20943   0.75208   0.00000  Uiso   1.00
C755   C     0.29049   0.16651   0.74187   0.00000  Uiso   1.00
C756   C     0.04247   0.16693   0.75513   0.00000  Uiso   1.00
C757   C     0.14513   0.02485   0.71806   0.00000  Uiso   1.00
C758   C     0.18840   0.30847   0.78182   0.00000  Uiso   1.00
C759   C     0.18828   0.02454   0.78189   0.00000  Uiso   1.00
C760   C     0.14525   0.30881   0.71793   0.00000  Uiso   1.00
N761   N     0.16667   0.28402   0.75000   0.00000  Uiso   1.00
N762   N     0.16667   0.04931   0.75000   0.00000  Uiso   1.00
N763   N     0.24078   0.15432   0.88304   0.00000  Uiso   1.00
O764   O     0.25379   0.18551   0.85553   0.00000  Uiso   1.00
O765   O     0.26090   0.11546   0.88790   0.00000  Uiso   1.00
N766   N     0.09247   0.15535   0.61697   0.00000  Uiso   1.00
O767   O     0.07954   0.18667   0.64438   0.00000  Uiso   1.00
O768   O     0.07221   0.11674   0.61218   0.00000  Uiso   1.00
O769   O     0.09241   0.17949   0.88263   0.00000  Uiso   1.00
H770   H     0.09699   0.18787   0.85134   0.00000  Uiso   1.00
O771   O     0.24092   0.17880   0.61729   0.00000  Uiso   1.00
H772   H     0.23634   0.18727   0.64854   0.00000  Uiso   1.00
O773   O     0.05439   0.15503   0.95258   0.00000  Uiso   1.00
H774   H     0.05841   0.12896   0.93164   0.00000  Uiso   1.00
O775   O     0.27884   0.15363   0.54750   0.00000  Uiso   1.00
H776   H     0.27469   0.12767   0.56860   0.00000  Uiso   1.00
O777   O     0.05480   0.17255   0.54264   0.00000  Uiso   1.00
H778   H     0.03240   0.18048   0.52110   0.00000  Uiso   1.00
O779   O     0.27853   0.17086   0.95732   0.00000  Uiso   1.00
H780   H     0.30102   0.17833   0.97883   0.00000  Uiso   1.00
O781   O     0.03893   0.08247   0.76528   0.00000  Uiso   1.00
H782   H     0.05741   0.08749   0.79153   0.00000  Uiso   1.00
O783   O     0.29326   0.25054   0.73038   0.00000  Uiso   1.00
H784   H     0.27431   0.24440   0.70476   0.00000  Uiso   1.00
O785   O     0.29459   0.08167   0.73607   0.00000  Uiso   1.00
H786   H     0.27570   0.08539   0.70993   0.00000  Uiso   1.00
O787   O     0.04152   0.25082   0.75895   0.00000  Uiso   1.00
H788   H     0.02192   0.27708   0.76040   0.00000  Uiso   1.00
N789   N     0.12212   0.04875   0.68404   0.00000  Uiso   1.00
O790   O     0.13608   0.04962   0.64398   0.00000  Uiso   1.00
O791   O     0.08333   0.05660   0.68957   0.00000  Uiso   1.00
N792   N     0.21231   0.28454   0.81516   0.00000  Uiso   1.00
O793   O     0.19894   0.28253   0.85544   0.00000  Uiso   1.00
O794   O     0.25118   0.27792   0.80897   0.00000  Uiso   1.00
N795   N     0.21118   0.04813   0.81599   0.00000  Uiso   1.00
O796   O     0.25001   0.05563   0.81066   0.00000  Uiso   1.00
O797   O     0.19704   0.04897   0.85597   0.00000  Uiso   1.00
N798   N     0.12305   0.28532   0.68316   0.00000  Uiso   1.00
O799   O     0.08372   0.27989   0.68646   0.00000  Uiso   1.00
O800   O     0.13874   0.28336   0.64394   0.00000  Uiso   1.00
O801   O     0.43988   0.20625   0.74999   0.00000  Uiso   1.00
O802   O     0.56012   0.12709   0.75001   0.00000  Uiso   1.00
O803   O     0.56012   0.20625   0.75000   0.00000  Uiso   1.00
O804   O     0.43988   0.12709   0.74999   0.00000  Uiso   1.00
C805   C     0.42080   0.16673   0.75289   0.00000  Uiso   1.00
C806   C     0.57904   0.16659   0.74617   0.00000  Uiso   1.00
O807   O     0.49999   0.20627   0.68513   0.00000  Uiso   1.00
O808   O     0.50001   0.12707   0.81487   0.00000  Uiso   1.00
O809   O     0.50001   0.20627   0.81487   0.00000  Uiso   1.00
O810   O     0.49999   0.12707   0.68513   0.00000  Uiso   1.00
C811   C     0.49974   0.16672   0.66469   0.00000  Uiso   1.00
C812   C     0.50023   0.16665   0.83531   0.00000  Uiso   1.00
Cu813  Cu    0.50000   0.21355   0.75000   0.00000  Uiso   1.00
Cu814  Cu    0.50000   0.11978   0.75000   0.00000  Uiso   1.00
C815   C     0.53725   0.16209   0.90715   0.00000  Uiso   1.00
C816   C     0.46269   0.16273   0.59285   0.00000  Uiso   1.00
C817   C     0.49989   0.16676   0.88345   0.00000  Uiso   1.00
C818   C     0.50007   0.16698   0.61654   0.00000  Uiso   1.00
C819   C     0.46239   0.16983   0.90537   0.00000  Uiso   1.00
C820   C     0.53757   0.16956   0.59460   0.00000  Uiso   1.00
C821   C     0.46221   0.16431   0.95190   0.00000  Uiso   1.00
C822   C     0.53774   0.16392   0.54809   0.00000  Uiso   1.00
C823   C     0.50002   0.16339   0.97650   0.00000  Uiso   1.00
C824   C     0.49993   0.16344   0.52350   0.00000  Uiso   1.00
C825   C     0.53787   0.16340   0.95410   0.00000  Uiso   1.00
C826   C     0.46208   0.16400   0.54590   0.00000  Uiso   1.00
C827   C     0.42478   0.16233   0.97462   0.00000  Uiso   1.00
C828   C     0.57516   0.16137   0.52540   0.00000  Uiso   1.00
C829   C     0.42466   0.16617   0.52104   0.00000  Uiso   1.00
C830   C     0.57531   0.16508   0.97896   0.00000  Uiso   1.00
C831   C     0.35404   0.12453   0.75498   0.00000  Uiso   1.00
C832   C     0.64539   0.20906   0.74190   0.00000  Uiso   1.00
C833   C     0.64589   0.12421   0.74407   0.00000  Uiso   1.00
C834   C     0.35417   0.20943   0.75208   0.00000  Uiso   1.00
C835   C     0.62382   0.16651   0.74187   0.00000  Uiso   1.00
C836   C     0.37581   0.16693   0.75513   0.00000  Uiso   1.00
C837   C     0.47846   0.02485   0.71806   0.00000  Uiso   1.00
C838   C     0.52174   0.30847   0.78182   0.00000  Uiso   1.00
C839   C     0.52161   0.02454   0.78189   0.00000  Uiso   1.00
C840   C     0.47858   0.30881   0.71793   0.00000  Uiso   1.00
N841   N     0.50000   0.28402   0.75000   0.00000  Uiso   1.00
N842   N     0.50000   0.04931   0.75000   0.00000  Uiso   1.00
N843   N     0.57412   0.15432   0.88304   0.00000  Uiso   1.00
O844   O     0.58712   0.18551   0.85553   0.00000  Uiso   1.00
O845   O     0.59423   0.11546   0.88790   0.00000  Uiso   1.00
N846   N     0.42580   0.15535   0.61697   0.00000  Uiso   1.00
O847   O     0.41287   0.18667   0.64438   0.00000  Uiso   1.00
O848   O     0.40554   0.11674   0.61218   0.00000  Uiso   1.00
O849   O     0.42574   0.17949   0.88263   0.00000  Uiso   1.00
H850   H     0.43032   0.18787   0.85134   0.00000  Uiso   1.00
O851   O     0.57425   0.17880   0.61729   0.00000  Uiso   1.00
H852   H     0.56968   0.18727   0.64854   0.00000  Uiso   1.00
O853   O     0.38772   0.15503   0.95258   0.00000  Uiso   1.00
H854   H     0.39174   0.12896   0.93164   0.00000  Uiso   1.00
O855   O     0.61217   0.15363   0.54750   0.00000  Uiso   1.00
H856   H     0.60802   0.12767   0.56860   0.00000  Uiso   1.00
O857   O     0.38813   0.17255   0.54264   0.00000  Uiso   1.00
H858   H     0.36573   0.18048   0.52110   0.00000  Uiso   1.00
O859   O     0.61187   0.17086   0.95732   0.00000  Uiso   1.00
H860   H     0.63435   0.17833   0.97883   0.00000  Uiso   1.00
O861   O     0.37227   0.08247   0.76528   0.00000  Uiso   1.00
H862   H     0.39074   0.08749   0.79153   0.00000  Uiso   1.00
O863   O     0.62659   0.25054   0.73038   0.00000  Uiso   1.00
H864   H     0.60764   0.24440   0.70476   0.00000  Uiso   1.00
O865   O     0.62793   0.08167   0.73607   0.00000  Uiso   1.00
H866   H     0.60903   0.08539   0.70993   0.00000  Uiso   1.00
O867   O     0.37485   0.25082   0.75895   0.00000  Uiso   1.00
H868   H     0.35525   0.27708   0.76040   0.00000  Uiso   1.00
N869   N     0.45545   0.04875   0.68404   0.00000  Uiso   1.00
O870   O     0.46941   0.04962   0.64398   0.00000  Uiso   1.00
O871   O     0.41666   0.05660   0.68957   0.00000  Uiso   1.00
N872   N     0.54565   0.28454   0.81516   0.00000  Uiso   1.00
O873   O     0.53227   0.28253   0.85544   0.00000  Uiso   1.00
O874   O     0.58452   0.27792   0.80897   0.00000  Uiso   1.00
N875   N     0.54452   0.04813   0.81599   0.00000  Uiso   1.00
O876   O     0.58334   0.05563   0.81066   0.00000  Uiso   1.00
O877   O     0.53038   0.04897   0.85597   0.00000  Uiso   1.00
N878   N     0.45638   0.28532   0.68316   0.00000  Uiso   1.00
O879   O     0.41705   0.27989   0.68646   0.00000  Uiso   1.00
O880   O     0.47208   0.28336   0.64394   0.00000  Uiso   1.00
O881   O     0.77321   0.20625   0.74999   0.00000  Uiso   1.00
O882   O     0.89345   0.12709   0.75001   0.00000  Uiso   1.00
O883   O     0.89345   0.20625   0.75000   0.00000  Uiso   1.00
O884   O     0.77321   0.12709   0.74999   0.00000  Uiso   1.00
C885   C     0.75413   0.16673   0.75289   0.00000  Uiso   1.00
C886   C     0.91237   0.16659   0.74617   0.00000  Uiso   1.00
O887   O     0.83332   0.20627   0.68513   0.00000  Uiso   1.00
O888   O     0.83334   0.12707   0.81487   0.00000  Uiso   1.00
O889   O     0.83334   0.20627   0.81487   0.00000  Uiso   1.00
O890   O     0.83332   0.12707   0.68513   0.00000  Uiso   1.00
C891   C     0.83307   0.16672   0.66469   0.00000  Uiso   1.00
C892   C     0.83357   0.16665   0.83531   0.00000  Uiso   1.00
Cu893  Cu    0.83333   0.21355   0.75000   0.00000  Uiso   1.00
Cu894  Cu    0.83333   0.11978   0.75000   0.00000  Uiso   1.00
C895   C     0.87059   0.16209   0.90715   0.00000  Uiso   1.00
C896   C     0.79602   0.16273   0.59285   0.00000  Uiso   1.00
C897   C     0.83322   0.16676   0.88345   0.00000  Uiso   1.00
C898   C     0.83340   0.16698   0.61654   0.00000  Uiso   1.00
C899   C     0.79572   0.16983   0.90537   0.00000  Uiso   1.00
C900   C     0.87091   0.16956   0.59460   0.00000  Uiso   1.00
C901   C     0.79554   0.16431   0.95190   0.00000  Uiso   1.00
C902   C     0.87107   0.16392   0.54809   0.00000  Uiso   1.00
C903   C     0.83335   0.16339   0.97650   0.00000  Uiso   1.00
C904   C     0.83326   0.16344   0.52350   0.00000  Uiso   1.00
C905   C     0.87120   0.16340   0.95410   0.00000  Uiso   1.00
C906   C     0.79541   0.16400   0.54590   0.00000  Uiso   1.00
C907   C     0.75811   0.16233   0.97462   0.00000  Uiso   1.00
C908   C     0.90849   0.16137   0.52540   0.00000  Uiso   1.00
C909   C     0.75799   0.16617   0.52104   0.00000  Uiso   1.00
C910   C     0.90864   0.16508   0.97896   0.00000  Uiso   1.00
C911   C     0.68737   0.12453   0.75498   0.00000  Uiso   1.00
C912   C     0.97872   0.20906   0.74190   0.00000  Uiso   1.00
C913   C     0.97922   0.12421   0.74407   0.00000  Uiso   1.00
C914   C     0.68750   0.20943   0.75208   0.00000  Uiso   1.00
C915   C     0.95716   0.16651   0.74187   0.00000  Uiso   1.00
C916   C     0.70914   0.16693   0.75513   0.00000  Uiso   1.00
C917   C     0.81179   0.02485   0.71806   0.00000  Uiso   1.00
C918   C     0.85507   0.30847   0.78182   0.00000  Uiso   1.00
C919   C     0.85494   0.02454   0.78189   0.00000  Uiso   1.00
C920   C     0.81191   0.30881   0.71793   0.00000  Uiso   1.00
N921   N     0.83333   0.28402   0.75000   0.00000  Uiso   1.00
N922   N     0.83333   0.04931   0.75000   0.00000  Uiso   1.00
N923   N     0.90745   0.15432   0.88304   0.00000  Uiso   1.00
O924   O     0.92045   0.18551   0.85553   0.00000  Uiso   1.00
O925   O     0.92756   0.11546   0.88790   0.00000  Uiso   1.00
N926   N     0.75913   0.15535   0.61697   0.00000  Uiso   1.00
O927   O     0.74620   0.18667   0.64438   0.00000  Uiso   1.00
O928   O     0.73888   0.11674   0.61218   0.00000  Uiso   1.00
O929   O     0.75908   0.17949   0.88263   0.00000  Uiso   1.00
H930   H     0.76365   0.18787   0.85134   0.00000  Uiso   1.00
O931   O     0.90758   0.17880   0.61729   0.00000  Uiso   1.00
H932   H     0.90301   0.18727   0.64854   0.00000  Uiso   1.00
O933   O     0.72106   0.15503   0.95258   0.00000  Uiso   1.00
H934   H     0.72508   0.12896   0.93164   0.00000  Uiso   1.00
O935   O     0.94550   0.15363   0.54750   0.00000  Uiso   1.00
H936   H     0.94135   0.12767   0.56860   0.00000  Uiso   1.00
O937   O     0.72146   0.17255   0.54264   0.00000  Uiso   1.00
H938   H     0.69906   0.18048   0.52110   0.00000  Uiso   1.00
O939   O     0.94520   0.17086   0.95732   0.00000  Uiso   1.00
H940   H     0.96768   0.17833   0.97883   0.00000  Uiso   1.00
O941   O     0.70560   0.08247   0.76528   0.00000  Uiso   1.00
H942   H     0.72408   0.08749   0.79153   0.00000  Uiso   1.00
O943   O     0.95993   0.25054   0.73038   0.00000  Uiso   1.00
H944   H     0.94097   0.24440   0.70476   0.00000  Uiso   1.00
O945   O     0.96126   0.08167   0.73607   0.00000  Uiso   1.00
H946   H     0.94237   0.08539   0.70993   0.00000  Uiso   1.00
O947   O     0.70819   0.25082   0.75895   0.00000  Uiso   1.00
H948   H     0.68858   0.27708   0.76040   0.00000  Uiso   1.00
N949   N     0.78878   0.04875   0.68404   0.00000  Uiso   1.00
O950   O     0.80274   0.04962   0.64398   0.00000  Uiso   1.00
O951   O     0.75000   0.05660   0.68957   0.00000  Uiso   1.00
N952   N     0.87898   0.28454   0.81516   0.00000  Uiso   1.00
O953   O     0.86561   0.28253   0.85544   0.00000  Uiso   1.00
O954   O     0.91785   0.27792   0.80897   0.00000  Uiso   1.00
N955   N     0.87785   0.04813   0.81599   0.00000  Uiso   1.00
O956   O     0.91667   0.05563   0.81066   0.00000  Uiso   1.00
O957   O     0.86371   0.04897   0.85597   0.00000  Uiso   1.00
N958   N     0.78971   0.28532   0.68316   0.00000  Uiso   1.00
O959   O     0.75038   0.27989   0.68646   0.00000  Uiso   1.00
O960   O     0.80541   0.28336   0.64394   0.00000  Uiso   1.00
O961   O     0.10655   0.53958   0.74999   0.00000  Uiso   1.00
O962   O     0.22679   0.46042   0.75001   0.00000  Uiso   1.00
O963   O     0.22679   0.53958   0.75000   0.00000  Uiso   1.00
O964   O     0.10655   0.46042   0.74999   0.00000  Uiso   1.00
C965   C     0.08746   0.50006   0.75289   0.00000  Uiso   1.00
C966   C     0.24570   0.49993   0.74617   0.00000  Uiso   1.00
O967   O     0.16666   0.53960   0.68513   0.00000  Uiso   1.00
O968   O     0.16668   0.46040   0.81487   0.00000  Uiso   1.00
O969   O     0.16668   0.53960   0.81487   0.00000  Uiso   1.00
O970   O     0.16666   0.46040   0.68513   0.00000  Uiso   1.00
C971   C     0.16641   0.50005   0.66469   0.00000  Uiso   1.00
C972   C     0.16690   0.49998   0.83531   0.00000  Uiso   1.00
Cu973  Cu    0.16667   0.54689   0.75000   0.00000  Uiso   1.00
Cu974  Cu    0.16667   0.45311   0.75000   0.00000  Uiso   1.00
C975   C     0.20392   0.49542   0.90715   0.00000  Uiso   1.00
C976   C     0.12935   0.49606   0.59285   0.00000  Uiso   1.00
C977   C     0.16655   0.50009   0.88345   0.00000  Uiso   1.00
C978   C     0.16673   0.50031   0.61654   0.00000  Uiso   1.00
C979   C     0.12906   0.50317   0.90537   0.00000  Uiso   1.00
C980   C     0.20424   0.50289   0.59460   0.00000  Uiso   1.00
C981   C     0.12887   0.49764   0.95190   0.00000  Uiso   1.00
C982   C     0.20440   0.49725   0.54809   0.00000  Uiso   1.00
C983   C     0.16669   0.49672   0.97650   0.00000  Uiso   1.00
C984   C     0.16659   0.49677   0.52350   0.00000  Uiso   1.00
C985   C     0.20454   0.49673   0.95410   0.00000  Uiso   1.00
C986   C     0.12874   0.49734   0.54590   0.00000  Uiso   1.00
C987   C     0.09145   0.49567   0.97462   0.00000  Uiso   1.00
C988   C     0.24182   0.49471   0.52540   0.00000  Uiso   1.00
C989   C     0.09132   0.49951   0.52104   0.00000  Uiso   1.00
C990   C     0.24197   0.49842   0.97896   0.00000  Uiso   1.00
C991   C     0.02070   0.45786   0.75498   0.00000  Uiso   1.00
C992   C     0.31205   0.54240   0.74190   0.00000  Uiso   1.00
C993   C     0.31255   0.45755   0.74407   0.00000  Uiso   1.00
C994   C     0.02084   0.54276   0.75208   0.00000  Uiso   1.00
C995   C     0.29049   0.49985   0.74187   0.00000  Uiso   1.00
C996   C     0.04247   0.50027   0.75513   0.00000  Uiso   1.00
C997   C     0.14513   0.35818   0.71806   0.00000  Uiso   1.00
C998   C     0.18840   0.64180   0.78182   0.00000  Uiso   1.00
C999   C     0.18828   0.35787   0.78189   0.00000  Uiso   1.00
C1000  C     0.14525   0.64214   0.71793   0.00000  Uiso   1.00
N1001  N     0.16667   0.61736   0.75000   0.00000  Uiso   1.00
N1002  N     0.16667   0.38264   0.75000   0.00000  Uiso   1.00
N1003  N     0.24078   0.48765   0.88304   0.00000  Uiso   1.00
O1004  O     0.25379   0.51884   0.85553   0.00000  Uiso   1.00
O1005  O     0.26090   0.44879   0.88790   0.00000  Uiso   1.00
N1006  N     0.09247   0.48868   0.61697   0.00000  Uiso   1.00
O1007  O     0.07954   0.52001   0.64438   0.00000  Uiso   1.00
O1008  O     0.07221   0.45007   0.61218   0.00000  Uiso   1.00
O1009  O     0.09241   0.51282   0.88263   0.00000  Uiso   1.00
H1010  H     0.09699   0.52120   0.85134   0.00000  Uiso   1.00
O1011  O     0.24092   0.51214   0.61729   0.00000  Uiso   1.00
H1012  H     0.23634   0.52060   0.64854   0.00000  Uiso   1.00
O1013  O     0.05439   0.48837   0.95258   0.00000  Uiso   1.00
H1014  H     0.05841   0.46229   0.93164   0.00000  Uiso   1.00
O1015  O     0.27884   0.48696   0.54750   0.00000  Uiso   1.00
H1016  H     0.27469   0.46100   0.56860   0.00000  Uiso   1.00
O1017  O     0.05480   0.50589   0.54264   0.00000  Uiso   1.00
H1018  H     0.03240   0.51381   0.52110   0.00000  Uiso   1.00
O1019  O     0.27853   0.50419   0.95732   0.00000  Uiso   1.00
H1020  H     0.30102   0.51167   0.97883   0.00000  Uiso   1.00
O1021  O     0.03893   0.41580   0.76528   0.00000  Uiso   1.00
H1022  H     0.05741   0.42083   0.79153   0.00000  Uiso   1.00
O1023  O     0.29326   0.58387   0.73038   0.00000  Uiso   1.00
H1024  H     0.27431   0.57774   0.70476   0.00000  Uiso   1.00
O1025  O     0.29459   0.41500   0.73607   0.00000  Uiso   1.00
H1026  H     0.27570   0.41872   0.70993   0.00000  Uiso   1.00
O1027  O     0.04152   0.58415   0.75895   0.00000  Uiso   1.00
H1028  H     0.02192   0.61042   0.76040   0.00000  Uiso   1.00
N1029  N     0.12212   0.38209   0.68404   0.00000  Uiso   1.00
O1030  O     0.13608   0.38296   0.64398   0.00000  Uiso   1.00
O1031  O     0.08333   0.38993   0.68957   0.00000  Uiso   1.00
N1032  N     0.21231   0.61787   0.81516   0.00000  Uiso   1.00
O1033  O     0.19894   0.61587   0.85544   0.00000  Uiso   1.00
O1034  O     0.25118   0.61126   0.80897   0.00000  Uiso   1.00
N1035  N     0.21118   0.38146   0.81599   0.00000  Uiso   1.00
O1036  O     0.25001   0.38896   0.81066   0.00000  Uiso   1.00
O1037  O     0.19704   0.38231   0.85597   0.00000  Uiso   1.00
N1038  N     0.12305   0.61865   0.68316   0.00000  Uiso   1.00
O1039  O     0.08372   0.61322   0.68646   0.00000  Uiso   1.00
O1040  O     0.13874   0.61670   0.64394   0.00000  Uiso   1.00
O1041  O     0.43988   0.53958   0.74999   0.00000  Uiso   1.00
O1042  O     0.56012   0.46042   0.75001   0.00000  Uiso   1.00
O1043  O     0.56012   0.53958   0.75000   0.00000  Uiso   1.00
O1044  O     0.43988   0.46042   0.74999   0.00000  Uiso   1.00
C1045  C     0.42080   0.50006   0.75289   0.00000  Uiso   1.00
C1046  C     0.57904   0.49993   0.74617   0.00000  Uiso   1.00
O1047  O     0.49999   0.53960   0.68513   0.00000  Uiso   1.00
O1048  O     0.50001   0.46040   0.81487   0.00000  Uiso   1.00
O1049  O     0.50001   0.53960   0.81487   0.00000  Uiso   1.00
O1050  O     0.49999   0.46040   0.68513   0.00000  Uiso   1.00
C1051  C     0.49974   0.50005   0.66469   0.00000  Uiso   1.00
C1052  C     0.50023   0.49998   0.83531   0.00000  Uiso   1.00
Cu1053 Cu    0.50000   0.54689   0.75000   0.00000  Uiso   1.00
Cu1054 Cu    0.50000   0.45311   0.75000   0.00000  Uiso   1.00
C1055  C     0.53725   0.49542   0.90715   0.00000  Uiso   1.00
C1056  C     0.46269   0.49606   0.59285   0.00000  Uiso   1.00
C1057  C     0.49989   0.50009   0.88345   0.00000  Uiso   1.00
C1058  C     0.50007   0.50031   0.61654   0.00000  Uiso   1.00
C1059  C     0.46239   0.50317   0.90537   0.00000  Uiso   1.00
C1060  C     0.53757   0.50289   0.59460   0.00000  Uiso   1.00
C1061  C     0.46221   0.49764   0.95190   0.00000  Uiso   1.00
C1062  C     0.53774   0.49725   0.54809   0.00000  Uiso   1.00
C1063  C     0.50002   0.49672   0.97650   0.00000  Uiso   1.00
C1064  C     0.49993   0.49677   0.52350   0.00000  Uiso   1.00
C1065  C     0.53787   0.49673   0.95410   0.00000  Uiso   1.00
C1066  C     0.46208   0.49734   0.54590   0.00000  Uiso   1.00
C1067  C     0.42478   0.49567   0.97462   0.00000  Uiso   1.00
C1068  C     0.57516   0.49471   0.52540   0.00000  Uiso   1.00
C1069  C     0.42466   0.49951   0.52104   0.00000  Uiso   1.00
C1070  C     0.57531   0.49842   0.97896   0.00000  Uiso   1.00
C1071  C     0.35404   0.45786   0.75498   0.00000  Uiso   1.00
C1072  C     0.64539   0.54240   0.74190   0.00000  Uiso   1.00
C1073  C     0.64589   0.45755   0.74407   0.00000  Uiso   1.00
C1074  C     0.35417   0.54276   0.75208   0.00000  Uiso   1.00
C1075  C     0.62382   0.49985   0.74187   0.00000  Uiso   1.00
C1076  C     0.37581   0.50027   0.75513   0.00000  Uiso   1.00
C1077  C     0.47846   0.35818   0.71806   0.00000  Uiso   1.00
C1078  C     0.52174   0.64180   0.78182   0.00000  Uiso   1.00
C1079  C     0.52161   0.35787   0.78189   0.00000  Uiso   1.00
C1080  C     0.47858   0.64214   0.71793   0.00000  Uiso   1.00
N1081  N     0.50000   0.61736   0.75000   0.00000  Uiso   1.00
N1082  N     0.50000   0.38264   0.75000   0.00000  Uiso   1.00
N1083  N     0.57412   0.48765   0.88304   0.00000  Uiso   1.00
O1084  O     0.58712   0.51884   0.85553   0.00000  Uiso   1.00
O1085  O     0.59423   0.44879   0.88790   0.00000  Uiso   1.00
N1086  N     0.42580   0.48868   0.61697   0.00000  Uiso   1.00
O1087  O     0.41287   0.52001   0.64438   0.00000  Uiso   1.00
O1088  O     0.40554   0.45007   0.61218   0.00000  Uiso   1.00
O1089  O     0.42574   0.51282   0.88263   0.00000  Uiso   1.00
H1090  H     0.43032   0.52120   0.85134   0.00000  Uiso   1.00
O1091  O     0.57425   0.51214   0.61729   0.00000  Uiso   1.00
H1092  H     0.56968   0.52060   0.64854   0.00000  Uiso   1.00
O1093  O     0.38772   0.48837   0.95258   0.00000  Uiso   1.00
H1094  H     0.39174   0.46229   0.93164   0.00000  Uiso   1.00
O1095  O     0.61217   0.48696   0.54750   0.00000  Uiso   1.00
H1096  H     0.60802   0.46100   0.56860   0.00000  Uiso   1.00
O1097  O     0.38813   0.50589   0.54264   0.00000  Uiso   1.00
H1098  H     0.36573   0.51381   0.52110   0.00000  Uiso   1.00
O1099  O     0.61187   0.50419   0.95732   0.00000  Uiso   1.00
H1100  H     0.63435   0.51167   0.97883   0.00000  Uiso   1.00
O1101  O     0.37227   0.41580   0.76528   0.00000  Uiso   1.00
H1102  H     0.39074   0.42083   0.79153   0.00000  Uiso   1.00
O1103  O     0.62659   0.58387   0.73038   0.00000  Uiso   1.00
H1104  H     0.60764   0.57774   0.70476   0.00000  Uiso   1.00
O1105  O     0.62793   0.41500   0.73607   0.00000  Uiso   1.00
H1106  H     0.60903   0.41872   0.70993   0.00000  Uiso   1.00
O1107  O     0.37485   0.58415   0.75895   0.00000  Uiso   1.00
H1108  H     0.35525   0.61042   0.76040   0.00000  Uiso   1.00
N1109  N     0.45545   0.38209   0.68404   0.00000  Uiso   1.00
O1110  O     0.46941   0.38296   0.64398   0.00000  Uiso   1.00
O1111  O     0.41666   0.38993   0.68957   0.00000  Uiso   1.00
N1112  N     0.54565   0.61787   0.81516   0.00000  Uiso   1.00
O1113  O     0.53227   0.61587   0.85544   0.00000  Uiso   1.00
O1114  O     0.58452   0.61126   0.80897   0.00000  Uiso   1.00
N1115  N     0.54452   0.38146   0.81599   0.00000  Uiso   1.00
O1116  O     0.58334   0.38896   0.81066   0.00000  Uiso   1.00
O1117  O     0.53038   0.38231   0.85597   0.00000  Uiso   1.00
N1118  N     0.45638   0.61865   0.68316   0.00000  Uiso   1.00
O1119  O     0.41705   0.61322   0.68646   0.00000  Uiso   1.00
O1120  O     0.47208   0.61670   0.64394   0.00000  Uiso   1.00
O1121  O     0.77321   0.53958   0.74999   0.00000  Uiso   1.00
O1122  O     0.89345   0.46042   0.75001   0.00000  Uiso   1.00
O1123  O     0.89345   0.53958   0.75000   0.00000  Uiso   1.00
O1124  O     0.77321   0.46042   0.74999   0.00000  Uiso   1.00
C1125  C     0.75413   0.50006   0.75289   0.00000  Uiso   1.00
C1126  C     0.91237   0.49993   0.74617   0.00000  Uiso   1.00
O1127  O     0.83332   0.53960   0.68513   0.00000  Uiso   1.00
O1128  O     0.83334   0.46040   0.81487   0.00000  Uiso   1.00
O1129  O     0.83334   0.53960   0.81487   0.00000  Uiso   1.00
O1130  O     0.83332   0.46040   0.68513   0.00000  Uiso   1.00
C1131  C     0.83307   0.50005   0.66469   0.00000  Uiso   1.00
C1132  C     0.83357   0.49998   0.83531   0.00000  Uiso   1.00
Cu1133 Cu    0.83333   0.54689   0.75000   0.00000  Uiso   1.00
Cu1134 Cu    0.83333   0.45311   0.75000   0.00000  Uiso   1.00
C1135  C     0.87059   0.49542   0.90715   0.00000  Uiso   1.00
C1136  C     0.79602   0.49606   0.59285   0.00000  Uiso   1.00
C1137  C     0.83322   0.50009   0.88345   0.00000  Uiso   1.00
C1138  C     0.83340   0.50031   0.61654   0.00000  Uiso   1.00
C1139  C     0.79572   0.50317   0.90537   0.00000  Uiso   1.00
C1140  C     0.87091   0.50289   0.59460   0.00000  Uiso   1.00
C1141  C     0.79554   0.49764   0.95190   0.00000  Uiso   1.00
C1142  C     0.87107   0.49725   0.54809   0.00000  Uiso   1.00
C1143  C     0.83335   0.49672   0.97650   0.00000  Uiso   1.00
C1144  C     0.83326   0.49677   0.52350   0.00000  Uiso   1.00
C1145  C     0.87120   0.49673   0.95410   0.00000  Uiso   1.00
C1146  C     0.79541   0.49734   0.54590   0.00000  Uiso   1.00
C1147  C     0.75811   0.49567   0.97462   0.00000  Uiso   1.00
C1148  C     0.90849   0.49471   0.52540   0.00000  Uiso   1.00
C1149  C     0.75799   0.49951   0.52104   0.00000  Uiso   1.00
C1150  C     0.90864   0.49842   0.97896   0.00000  Uiso   1.00
C1151  C     0.68737   0.45786   0.75498   0.00000  Uiso   1.00
C1152  C     0.97872   0.54240   0.74190   0.00000  Uiso   1.00
C1153  C     0.97922   0.45755   0.74407   0.00000  Uiso   1.00
C1154  C     0.68750   0.54276   0.75208   0.00000  Uiso   1.00
C1155  C     0.95716   0.49985   0.74187   0.00000  Uiso   1.00
C1156  C     0.70914   0.50027   0.75513   0.00000  Uiso   1.00
C1157  C     0.81179   0.35818   0.71806   0.00000  Uiso   1.00
C1158  C     0.85507   0.64180   0.78182   0.00000  Uiso   1.00
C1159  C     0.85494   0.35787   0.78189   0.00000  Uiso   1.00
C1160  C     0.81191   0.64214   0.71793   0.00000  Uiso   1.00
N1161  N     0.83333   0.61736   0.75000   0.00000  Uiso   1.00
N1162  N     0.83333   0.38264   0.75000   0.00000  Uiso   1.00
N1163  N     0.90745   0.48765   0.88304   0.00000  Uiso   1.00
O1164  O     0.92045   0.51884   0.85553   0.00000  Uiso   1.00
O1165  O     0.92756   0.44879   0.88790   0.00000  Uiso   1.00
N1166  N     0.75913   0.48868   0.61697   0.00000  Uiso   1.00
O1167  O     0.74620   0.52001   0.64438   0.00000  Uiso   1.00
O1168  O     0.73888   0.45007   0.61218   0.00000  Uiso   1.00
O1169  O     0.75908   0.51282   0.88263   0.00000  Uiso   1.00
H1170  H     0.76365   0.52120   0.85134   0.00000  Uiso   1.00
O1171  O     0.90758   0.51214   0.61729   0.00000  Uiso   1.00
H1172  H     0.90301   0.52060   0.64854   0.00000  Uiso   1.00
O1173  O     0.72106   0.48837   0.95258   0.00000  Uiso   1.00
H1174  H     0.72508   0.46229   0.93164   0.00000  Uiso   1.00
O1175  O     0.94550   0.48696   0.54750   0.00000  Uiso   1.00
H1176  H     0.94135   0.46100   0.56860   0.00000  Uiso   1.00
O1177  O     0.72146   0.50589   0.54264   0.00000  Uiso   1.00
H1178  H     0.69906   0.51381   0.52110   0.00000  Uiso   1.00
O1179  O     0.94520   0.50419   0.95732   0.00000  Uiso   1.00
H1180  H     0.96768   0.51167   0.97883   0.00000  Uiso   1.00
O1181  O     0.70560   0.41580   0.76528   0.00000  Uiso   1.00
H1182  H     0.72408   0.42083   0.79153   0.00000  Uiso   1.00
O1183  O     0.95993   0.58387   0.73038   0.00000  Uiso   1.00
H1184  H     0.94097   0.57774   0.70476   0.00000  Uiso   1.00
O1185  O     0.96126   0.41500   0.73607   0.00000  Uiso   1.00
H1186  H     0.94237   0.41872   0.70993   0.00000  Uiso   1.00
O1187  O     0.70819   0.58415   0.75895   0.00000  Uiso   1.00
H1188  H     0.68858   0.61042   0.76040   0.00000  Uiso   1.00
N1189  N     0.78878   0.38209   0.68404   0.00000  Uiso   1.00
O1190  O     0.80274   0.38296   0.64398   0.00000  Uiso   1.00
O1191  O     0.75000   0.38993   0.68957   0.00000  Uiso   1.00
N1192  N     0.87898   0.61787   0.81516   0.00000  Uiso   1.00
O1193  O     0.86561   0.61587   0.85544   0.00000  Uiso   1.00
O1194  O     0.91785   0.61126   0.80897   0.00000  Uiso   1.00
N1195  N     0.87785   0.38146   0.81599   0.00000  Uiso   1.00
O1196  O     0.91667   0.38896   0.81066   0.00000  Uiso   1.00
O1197  O     0.86371   0.38231   0.85597   0.00000  Uiso   1.00
N1198  N     0.78971   0.61865   0.68316   0.00000  Uiso   1.00
O1199  O     0.75038   0.61322   0.68646   0.00000  Uiso   1.00
O1200  O     0.80541   0.61670   0.64394   0.00000  Uiso   1.00
O1201  O     0.10655   0.87291   0.74999   0.00000  Uiso   1.00
O1202  O     0.22679   0.79375   0.75001   0.00000  Uiso   1.00
O1203  O     0.22679   0.87291   0.75000   0.00000  Uiso   1.00
O1204  O     0.10655   0.79375   0.74999   0.00000  Uiso   1.00
C1205  C     0.08746   0.83340   0.75289   0.00000  Uiso   1.00
C1206  C     0.24570   0.83326   0.74617   0.00000  Uiso   1.00
O1207  O     0.16666   0.87293   0.68513   0.00000  Uiso   1.00
O1208  O     0.16668   0.79373   0.81487   0.00000  Uiso   1.00
O1209  O     0.16668   0.87293   0.81487   0.00000  Uiso   1.00
O1210  O     0.16666   0.79373   0.68513   0.00000  Uiso   1.00
C1211  C     0.16641   0.83339   0.66469   0.00000  Uiso   1.00
C1212  C     0.16690   0.83332   0.83531   0.00000  Uiso   1.00
Cu1213 Cu    0.16667   0.88022   0.75000   0.00000  Uiso   1.00
Cu1214 Cu    0.16667   0.78645   0.75000   0.00000  Uiso   1.00
C1215  C     0.20392   0.82875   0.90715   0.00000  Uiso   1.00
C1216  C     0.12935   0.82939   0.59285   0.00000  Uiso   1.00
C1217  C     0.16655   0.83343   0.88345   0.00000  Uiso   1.00
C1218  C     0.16673   0.83364   0.61654   0.00000  Uiso   1.00
C1219  C     0.12906   0.83650   0.90537   0.00000  Uiso   1.00
C1220  C     0.20424   0.83622   0.59460   0.00000  Uiso   1.00
C1221  C     0.12887   0.83097   0.95190   0.00000  Uiso   1.00
C1222  C     0.20440   0.83059   0.54809   0.00000  Uiso   1.00
C1223  C     0.16669   0.83005   0.97650   0.00000  Uiso   1.00
C1224  C     0.16659   0.83011   0.52350   0.00000  Uiso   1.00
C1225  C     0.20454   0.83007   0.95410   0.00000  Uiso   1.00
C1226  C     0.12874   0.83067   0.54590   0.00000  Uiso   1.00
C1227  C     0.09145   0.82900   0.97462   0.00000  Uiso   1.00
C1228  C     0.24182   0.82804   0.52540   0.00000  Uiso   1.00
C1229  C     0.09132   0.83284   0.52104   0.00000  Uiso   1.00
C1230  C     0.24197   0.83175   0.97896   0.00000  Uiso   1.00
C1231  C     0.02070   0.79119   0.75498   0.00000  Uiso   1.00
C1232  C     0.31205   0.87573   0.74190   0.00000  Uiso   1.00
C1233  C     0.31255   0.79088   0.74407   0.00000  Uiso   1.00
C1234  C     0.02084   0.87609   0.75208   0.00000  Uiso   1.00
C1235  C     0.29049   0.83318   0.74187   0.00000  Uiso   1.00
C1236  C     0.04247   0.83360   0.75513   0.00000  Uiso   1.00
C1237  C     0.14513   0.69152   0.71806   0.00000  Uiso   1.00
C1238  C     0.18840   0.97514   0.78182   0.00000  Uiso   1.00
C1239  C     0.18828   0.69120   0.78189   0.00000  Uiso   1.00
C1240  C     0.14525   0.97547   0.71793   0.00000  Uiso   1.00
N1241  N     0.16667   0.95069   0.75000   0.00000  Uiso   1.00
N1242  N     0.16667   0.71598   0.75000   0.00000  Uiso   1.00
N1243  N     0.24078   0.82099   0.88304   0.00000  Uiso   1.00
O1244  O     0.25379   0.85218   0.85553   0.00000  Uiso   1.00
O1245  O     0.26090   0.78212   0.88790   0.00000  Uiso   1.00
N1246  N     0.09247   0.82201   0.61697   0.00000  Uiso   1.00
O1247  O     0.07954   0.85334   0.64438   0.00000  Uiso   1.00
O1248  O     0.07221   0.78341   0.61218   0.00000  Uiso   1.00
O1249  O     0.09241   0.84616   0.88263   0.00000  Uiso   1.00
H1250  H     0.09699   0.85453   0.85134   0.00000  Uiso   1.00
O1251  O     0.24092   0.84547   0.61729   0.00000  Uiso   1.00
H1252  H     0.23634   0.85394   0.64854   0.00000  Uiso   1.00
O1253  O     0.05439   0.82170   0.95258   0.00000  Uiso   1.00
H1254  H     0.05841   0.79563   0.93164   0.00000  Uiso   1.00
O1255  O     0.27884   0.82029   0.54750   0.00000  Uiso   1.00
H1256  H     0.27469   0.79433   0.56860   0.00000  Uiso   1.00
O1257  O     0.05480   0.83922   0.54264   0.00000  Uiso   1.00
H1258  H     0.03240   0.84715   0.52110   0.00000  Uiso   1.00
O1259  O     0.27853   0.83752   0.95732   0.00000  Uiso   1.00
H1260  H     0.30102   0.84500   0.97883   0.00000  Uiso   1.00
O1261  O     0.03893   0.74913   0.76528   0.00000  Uiso   1.00
H1262  H     0.05741   0.75416   0.79153   0.00000  Uiso   1.00
O1263  O     0.29326   0.91721   0.73038   0.00000  Uiso   1.00
H1264  H     0.27431   0.91107   0.70476   0.00000  Uiso   1.00
O1265  O     0.29459   0.74834   0.73607   0.00000  Uiso   1.00
H1266  H     0.27570   0.75206   0.70993   0.00000  Uiso   1.00
O1267  O     0.04152   0.91749   0.75895   0.00000  Uiso   1.00
H1268  H     0.02192   0.94375   0.76040   0.00000  Uiso   1.00
N1269  N     0.12212   0.71542   0.68404   0.00000  Uiso   1.00
O1270  O     0.13608   0.71629   0.64398   0.00000  Uiso   1.00
O1271  O     0.08333   0.72326   0.68957   0.00000  Uiso   1.00
N1272  N     0.21231   0.95120   0.81516   0.00000  Uiso   1.00
O1273  O     0.19894   0.94920   0.85544   0.00000  Uiso   1.00
O1274  O     0.25118   0.94459   0.80897   0.00000  Uiso   1.00
N1275  N     0.21118   0.71479   0.81599   0.00000  Uiso   1.00
O1276  O     0.25001   0.72230   0.81066   0.00000  Uiso   1.00
O1277  O     0.19704   0.71564   0.85597   0.00000  Uiso   1.00
N1278  N     0.12305   0.95198   0.68316   0.00000  Uiso   1.00
O1279  O     0.08372   0.94656   0.68646   0.00000  Uiso   1.00
O1280  O     0.13874   0.95003   0.64394   0.00000  Uiso   1.00
O1281  O     0.43988   0.87291   0.74999   0.00000  Uiso   1.00
O1282  O     0.56012   0.79375   0.75001   0.00000  Uiso   1.00
O1283  O     0.56012   0.87291   0.75000   0.00000  Uiso   1.00
O1284  O     0.43988   0.79375   0.74999   0.00000  Uiso   1.00
C1285  C     0.42080   0.83340   0.75289   0.00000  Uiso   1.00
C1286  C     0.57904   0.83326   0.74617   0.00000  Uiso   1.00
O1287  O     0.49999   0.87293   0.68513   0.00000  Uiso   1.00
O1288  O     0.50001   0.79373   0.81487   0.00000  Uiso   1.00
O1289  O     0.50001   0.87293   0.81487   0.00000  Uiso   1.00
O1290  O     0.49999   0.79373   0.68513   0.00000  Uiso   1.00
C1291  C     0.49974   0.83339   0.66469   0.00000  Uiso   1.00
C1292  C     0.50023   0.83332   0.83531   0.00000  Uiso   1.00
Cu1293 Cu    0.50000   0.88022   0.75000   0.00000  Uiso   1.00
Cu1294 Cu    0.50000   0.78645   0.75000   0.00000  Uiso   1.00
C1295  C     0.53725   0.82875   0.90715   0.00000  Uiso   1.00
C1296  C     0.46269   0.82939   0.59285   0.00000  Uiso   1.00
C1297  C     0.49989   0.83343   0.88345   0.00000  Uiso   1.00
C1298  C     0.50007   0.83364   0.61654   0.00000  Uiso   1.00
C1299  C     0.46239   0.83650   0.90537   0.00000  Uiso   1.00
C1300  C     0.53757   0.83622   0.59460   0.00000  Uiso   1.00
C1301  C     0.46221   0.83097   0.95190   0.00000  Uiso   1.00
C1302  C     0.53774   0.83059   0.54809   0.00000  Uiso   1.00
C1303  C     0.50002   0.83005   0.97650   0.00000  Uiso   1.00
C1304  C     0.49993   0.83011   0.52350   0.00000  Uiso   1.00
C1305  C     0.53787   0.83007   0.95410   0.00000  Uiso   1.00
C1306  C     0.46208   0.83067   0.54590   0.00000  Uiso   1.00
C1307  C     0.42478   0.82900   0.97462   0.00000  Uiso   1.00
C1308  C     0.57516   0.82804   0.52540   0.00000  Uiso   1.00
C1309  C     0.42466   0.83284   0.52104   0.00000  Uiso   1.00
C1310  C     0.57531   0.83175   0.97896   0.00000  Uiso   1.00
C1311  C     0.35404   0.79119   0.75498   0.00000  Uiso   1.00
C1312  C     0.64539   0.87573   0.74190   0.00000  Uiso   1.00
C1313  C     0.64589   0.79088   0.74407   0.00000  Uiso   1.00
C1314  C     0.35417   0.87609   0.75208   0.00000  Uiso   1.00
C1315  C     0.62382   0.83318   0.74187   0.00000  Uiso   1.00
C1316  C     0.37581   0.83360   0.75513   0.00000  Uiso   1.00
C1317  C     0.47846   0.69152   0.71806   0.00000  Uiso   1.00
C1318  C     0.52174   0.97514   0.78182   0.00000  Uiso   1.00
C1319  C     0.52161   0.69120   0.78189   0.00000  Uiso   1.00
C1320  C     0.47858   0.97547   0.71793   0.00000  Uiso   1.00
N1321  N     0.50000   0.95069   0.75000   0.00000  Uiso   1.00
N1322  N     0.50000   0.71598   0.75000   0.00000  Uiso   1.00
N1323  N     0.57412   0.82099   0.88304   0.00000  Uiso   1.00
O1324  O     0.58712   0.85218   0.85553   0.00000  Uiso   1.00
O1325  O     0.59423   0.78212   0.88790   0.00000  Uiso   1.00
N1326  N     0.42580   0.82201   0.61697   0.00000  Uiso   1.00
O1327  O     0.41287   0.85334   0.64438   0.00000  Uiso   1.00
O1328  O     0.40554   0.78341   0.61218   0.00000  Uiso   1.00
O1329  O     0.42574   0.84616   0.88263   0.00000  Uiso   1.00
H1330  H     0.43032   0.85453   0.85134   0.00000  Uiso   1.00
O1331  O     0.57425   0.84547   0.61729   0.00000  Uiso   1.00
H1332  H     0.56968   0.85394   0.64854   0.00000  Uiso   1.00
O1333  O     0.38772   0.82170   0.95258   0.00000  Uiso   1.00
H1334  H     0.39174   0.79563   0.93164   0.00000  Uiso   1.00
O1335  O     0.61217   0.82029   0.54750   0.00000  Uiso   1.00
H1336  H     0.60802   0.79433   0.56860   0.00000  Uiso   1.00
O1337  O     0.38813   0.83922   0.54264   0.00000  Uiso   1.00
H1338  H     0.36573   0.84715   0.52110   0.00000  Uiso   1.00
O1339  O     0.61187   0.83752   0.95732   0.00000  Uiso   1.00
H1340  H     0.63435   0.84500   0.97883   0.00000  Uiso   1.00
O1341  O     0.37227   0.74913   0.76528   0.00000  Uiso   1.00
H1342  H     0.39074   0.75416   0.79153   0.00000  Uiso   1.00
O1343  O     0.62659   0.91721   0.73038   0.00000  Uiso   1.00
H1344  H     0.60764   0.91107   0.70476   0.00000  Uiso   1.00
O1345  O     0.62793   0.74834   0.73607   0.00000  Uiso   1.00
H1346  H     0.60903   0.75206   0.70993   0.00000  Uiso   1.00
O1347  O     0.37485   0.91749   0.75895   0.00000  Uiso   1.00
H1348  H     0.35525   0.94375   0.76040   0.00000  Uiso   1.00
N1349  N     0.45545   0.71542   0.68404   0.00000  Uiso   1.00
O1350  O     0.46941   0.71629   0.64398   0.00000  Uiso   1.00
O1351  O     0.41666   0.72326   0.68957   0.00000  Uiso   1.00
N1352  N     0.54565   0.95120   0.81516   0.00000  Uiso   1.00
O1353  O     0.53227   0.94920   0.85544   0.00000  Uiso   1.00
O1354  O     0.58452   0.94459   0.80897   0.00000  Uiso   1.00
N1355  N     0.54452   0.71479   0.81599   0.00000  Uiso   1.00
O1356  O     0.58334   0.72230   0.81066   0.00000  Uiso   1.00
O1357  O     0.53038   0.71564   0.85597   0.00000  Uiso   1.00
N1358  N     0.45638   0.95198   0.68316   0.00000  Uiso   1.00
O1359  O     0.41705   0.94656   0.68646   0.00000  Uiso   1.00
O1360  O     0.47208   0.95003   0.64394   0.00000  Uiso   1.00
O1361  O     0.77321   0.87291   0.74999   0.00000  Uiso   1.00
O1362  O     0.89345   0.79375   0.75001   0.00000  Uiso   1.00
O1363  O     0.89345   0.87291   0.75000   0.00000  Uiso   1.00
O1364  O     0.77321   0.79375   0.74999   0.00000  Uiso   1.00
C1365  C     0.75413   0.83340   0.75289   0.00000  Uiso   1.00
C1366  C     0.91237   0.83326   0.74617   0.00000  Uiso   1.00
O1367  O     0.83332   0.87293   0.68513   0.00000  Uiso   1.00
O1368  O     0.83334   0.79373   0.81487   0.00000  Uiso   1.00
O1369  O     0.83334   0.87293   0.81487   0.00000  Uiso   1.00
O1370  O     0.83332   0.79373   0.68513   0.00000  Uiso   1.00
C1371  C     0.83307   0.83339   0.66469   0.00000  Uiso   1.00
C1372  C     0.83357   0.83332   0.83531   0.00000  Uiso   1.00
Cu1373 Cu    0.83333   0.88022   0.75000   0.00000  Uiso   1.00
Cu1374 Cu    0.83333   0.78645   0.75000   0.00000  Uiso   1.00
C1375  C     0.87059   0.82875   0.90715   0.00000  Uiso   1.00
C1376  C     0.79602   0.82939   0.59285   0.00000  Uiso   1.00
C1377  C     0.83322   0.83343   0.88345   0.00000  Uiso   1.00
C1378  C     0.83340   0.83364   0.61654   0.00000  Uiso   1.00
C1379  C     0.79572   0.83650   0.90537   0.00000  Uiso   1.00
C1380  C     0.87091   0.83622   0.59460   0.00000  Uiso   1.00
C1381  C     0.79554   0.83097   0.95190   0.00000  Uiso   1.00
C1382  C     0.87107   0.83059   0.54809   0.00000  Uiso   1.00
C1383  C     0.83335   0.83005   0.97650   0.00000  Uiso   1.00
C1384  C     0.83326   0.83011   0.52350   0.00000  Uiso   1.00
C1385  C     0.87120   0.83007   0.95410   0.00000  Uiso   1.00
C1386  C     0.79541   0.83067   0.54590   0.00000  Uiso   1.00
C1387  C     0.75811   0.82900   0.97462   0.00000  Uiso   1.00
C1388  C     0.90849   0.82804   0.52540   0.00000  Uiso   1.00
C1389  C     0.75799   0.83284   0.52104   0.00000  Uiso   1.00
C1390  C     0.90864   0.83175   0.97896   0.00000  Uiso   1.00
C1391  C     0.68737   0.79119   0.75498   0.00000  Uiso   1.00
C1392  C     0.97872   0.87573   0.74190   0.00000  Uiso   1.00
C1393  C     0.97922   0.79088   0.74407   0.00000  Uiso   1.00
C1394  C     0.68750   0.87609   0.75208   0.00000  Uiso   1.00
C1395  C     0.95716   0.83318   0.74187   0.00000  Uiso   1.00
C1396  C     0.70914   0.83360   0.75513   0.00000  Uiso   1.00
C1397  C     0.81179   0.69152   0.71806   0.00000  Uiso   1.00
C1398  C     0.85507   0.97514   0.78182   0.00000  Uiso   1.00
C1399  C     0.85494   0.69120   0.78189   0.00000  Uiso   1.00
C1400  C     0.81191   0.97547   0.71793   0.00000  Uiso   1.00
N1401  N     0.83333   0.95069   0.75000   0.00000  Uiso   1.00
N1402  N     0.83333   0.71598   0.75000   0.00000  Uiso   1.00
N1403  N     0.90745   0.82099   0.88304   0.00000  Uiso   1.00
O1404  O     0.92045   0.85218   0.85553   0.00000  Uiso   1.00
O1405  O     0.92756   0.78212   0.88790   0.00000  Uiso   1.00
N1406  N     0.75913   0.82201   0.61697   0.00000  Uiso   1.00
O1407  O     0.74620   0.85334   0.64438   0.00000  Uiso   1.00
O1408  O     0.73888   0.78341   0.61218   0.00000  Uiso   1.00
O1409  O     0.75908   0.84616   0.88263   0.00000  Uiso   1.00
H1410  H     0.76365   0.85453   0.85134   0.00000  Uiso   1.00
O1411  O     0.90758   0.84547   0.61729   0.00000  Uiso   1.00
H1412  H     0.90301   0.85394   0.64854   0.00000  Uiso   1.00
O1413  O     0.72106   0.82170   0.95258   0.00000  Uiso   1.00
H1414  H     0.72508   0.79563   0.93164   0.00000  Uiso   1.00
O1415  O     0.94550   0.82029   0.54750   0.00000  Uiso   1.00
H1416  H     0.94135   0.79433   0.56860   0.00000  Uiso   1.00
O1417  O     0.72146   0.83922   0.54264   0.00000  Uiso   1.00
H1418  H     0.69906   0.84715   0.52110   0.00000  Uiso   1.00
O1419  O     0.94520   0.83752   0.95732   0.00000  Uiso   1.00
H1420  H     0.96768   0.84500   0.97883   0.00000  Uiso   1.00
O1421  O     0.70560   0.74913   0.76528   0.00000  Uiso   1.00
H1422  H     0.72408   0.75416   0.79153   0.00000  Uiso   1.00
O1423  O     0.95993   0.91721   0.73038   0.00000  Uiso   1.00
H1424  H     0.94097   0.91107   0.70476   0.00000  Uiso   1.00
O1425  O     0.96126   0.74834   0.73607   0.00000  Uiso   1.00
H1426  H     0.94237   0.75206   0.70993   0.00000  Uiso   1.00
O1427  O     0.70819   0.91749   0.75895   0.00000  Uiso   1.00
H1428  H     0.68858   0.94375   0.76040   0.00000  Uiso   1.00
N1429  N     0.78878   0.71542   0.68404   0.00000  Uiso   1.00
O1430  O     0.80274   0.71629   0.64398   0.00000  Uiso   1.00
O1431  O     0.75000   0.72326   0.68957   0.00000  Uiso   1.00
N1432  N     0.87898   0.95120   0.81516   0.00000  Uiso   1.00
O1433  O     0.86561   0.94920   0.85544   0.00000  Uiso   1.00
O1434  O     0.91785   0.94459   0.80897   0.00000  Uiso   1.00
N1435  N     0.87785   0.71479   0.81599   0.00000  Uiso   1.00
O1436  O     0.91667   0.72230   0.81066   0.00000  Uiso   1.00
O1437  O     0.86371   0.71564   0.85597   0.00000  Uiso   1.00
N1438  N     0.78971   0.95198   0.68316   0.00000  Uiso   1.00
O1439  O     0.75038   0.94656   0.68646   0.00000  Uiso   1.00
O1440  O     0.80541   0.95003   0.64394   0.00000  Uiso   1.00
loop_
_geom_bond_atom_site_label_1
_geom_bond_atom_site_label_2
_geom_bond_distance
_geom_bond_site_symmetry_2
_ccdc_geom_bond_type
O1     C5      1.302   .     A
O1     Cu13    1.972   .     S
O2     C6      1.302   .     A
O2     Cu14    1.972   .     S
O3     C6      1.303   .     A
O3     Cu13    1.971   .     S
O4     C5      1.302   .     A
O4     Cu14    1.971   .     S
C5     C36     1.471   .     S
C6     C35     1.470   .     S
O7     C11     1.295   .     A
O7     Cu13    1.965   .     S
O8     C12     1.296   .     A
O8     Cu14    1.965   .     S
O9     Cu13    1.964   .     S
O9     C12     1.295   .     A
O10    Cu14    1.964   .     S
O10    C11     1.296   .     A
C11    C18     1.450   .     S
C12    C17     1.450   .     S
Cu13   N41     2.029   .     S
Cu13   Cu14    2.700   .     S
Cu14   N42     2.029   .     S
C15    C25     1.414   .     A
C15    C17     1.401   .     A
C15    N43     1.438   .     S
C16    C26     1.413   .     A
C16    N46     1.438   .     S
C16    C18     1.401   .     A
C17    C19     1.408   .     A
C18    C20     1.408   .     A
C19    C21     1.410   .     A
C19    O49     1.388   .     S
C20    O51     1.388   .     S
C20    C22     1.410   .     A
C21    C27     1.417   .     A
C21    C23     1.421   .     A
C22    C28     1.417   .     A
C22    C24     1.421   .     A
C23    C25     1.423   .     A
C23    C744    1.415   .     S
C24    C26     1.423   .     A
C24    C743    1.415   1_554 S
C25    C30     1.415   .     A
C26    C29     1.415   .     A
C27    O53     1.379   .     S
C27    C749    1.402   .     S
C28    O55     1.379   .     S
C28    C750    1.402   1_554 S
C29    O57     1.385   .     S
C29    C747    1.402   1_554 S
C30    O59     1.384   .     S
C30    C748    1.402   .     S
C31    O61     1.378   .     S
C31    C36     1.414   .     A
C31    C193    1.383   1_455 S
C32    C35     1.414   .     A
C32    O63     1.380   .     S
C32    C114    1.399   .     S
C33    O65     1.378   .     S
C33    C35     1.413   .     A
C33    C111    1.383   .     S
C34    C36     1.412   .     A
C34    O67     1.384   .     S
C34    C192    1.399   1_455 S
C37    N69     1.427   .     S
C37    N42     1.372   .     A
C37    C520    1.422   1_545 S
C38    N72     1.429   .     S
C38    N41     1.373   .     A
C38    C279    1.422   .     S
C39    N75     1.427   .     S
C39    N42     1.373   .     A
C39    C518    1.422   1_545 S
C40    N78     1.429   .     S
C40    N41     1.374   .     A
C40    C277    1.422   .     S
N43    O44     1.301   .     A
N43    O45     1.301   .     A
N46    O48     1.301   .     A
N46    O47     1.301   .     A
O49    H50     0.987   .     S
O51    H52     0.987   .     S
O53    H54     0.992   .     S
O55    H56     0.992   .     S
O57    H58     0.989   .     S
O59    H60     0.989   .     S
O61    H62     0.992   .     S
O63    H64     0.992   .     S
O65    H66     0.992   .     S
O67    H68     0.990   .     S
N69    O71     1.299   .     A
N69    O70     1.301   .     A
N72    O74     1.300   .     A
N72    O73     1.301   .     A
N75    O76     1.299   .     A
N75    O77     1.301   .     A
N78    O80     1.301   .     A
N78    O79     1.299   .     A
O81    C85     1.302   .     A
O81    Cu93    1.972   .     S
O82    C86     1.302   .     A
O82    Cu94    1.972   .     S
O83    C86     1.303   .     A
O83    Cu93    1.971   .     S
O84    C85     1.302   .     A
O84    Cu94    1.971   .     S
C85    C116    1.471   .     S
C86    C115    1.470   .     S
O87    C91     1.295   .     A
O87    Cu93    1.965   .     S
O88    C92     1.296   .     A
O88    Cu94    1.965   .     S
O89    Cu93    1.964   .     S
O89    C92     1.295   .     A
O90    Cu94    1.964   .     S
O90    C91     1.296   .     A
C91    C98     1.450   .     S
C92    C97     1.450   .     S
Cu93   N121    2.029   .     S
Cu93   Cu94    2.700   .     S
Cu94   N122    2.029   .     S
C95    C105    1.414   .     A
C95    C97     1.401   .     A
C95    N123    1.438   .     S
C96    C106    1.413   .     A
C96    N126    1.438   .     S
C96    C98     1.401   .     A
C97    C99     1.408   .     A
C98    C100    1.408   .     A
C99    C101    1.410   .     A
C99    O129    1.388   .     S
C100   O131    1.388   .     S
C100   C102    1.410   .     A
C101   C107    1.417   .     A
C101   C103    1.421   .     A
C102   C108    1.417   .     A
C102   C104    1.421   .     A
C103   C105    1.423   .     A
C103   C824    1.415   .     S
C104   C106    1.423   .     A
C104   C823    1.415   1_554 S
C105   C110    1.415   .     A
C106   C109    1.415   .     A
C107   O133    1.379   .     S
C107   C829    1.402   .     S
C108   O135    1.379   .     S
C108   C830    1.402   1_554 S
C109   O137    1.385   .     S
C109   C827    1.402   1_554 S
C110   O139    1.384   .     S
C110   C828    1.402   .     S
C111   O141    1.378   .     S
C111   C116    1.414   .     A
C112   C115    1.414   .     A
C112   O143    1.380   .     S
C112   C194    1.399   .     S
C113   O145    1.378   .     S
C113   C115    1.413   .     A
C113   C191    1.383   .     S
C114   C116    1.412   .     A
C114   O147    1.384   .     S
C117   N149    1.427   .     S
C117   N122    1.372   .     A
C117   C600    1.422   1_545 S
C118   N152    1.429   .     S
C118   N121    1.373   .     A
C118   C359    1.422   .     S
C119   N155    1.427   .     S
C119   N122    1.373   .     A
C119   C598    1.422   1_545 S
C120   N158    1.429   .     S
C120   N121    1.374   .     A
C120   C357    1.422   .     S
N123   O124    1.301   .     A
N123   O125    1.301   .     A
N126   O128    1.301   .     A
N126   O127    1.301   .     A
O129   H130    0.987   .     S
O131   H132    0.987   .     S
O133   H134    0.992   .     S
O135   H136    0.992   .     S
O137   H138    0.989   .     S
O139   H140    0.989   .     S
O141   H142    0.992   .     S
O143   H144    0.992   .     S
O145   H146    0.992   .     S
O147   H148    0.990   .     S
N149   O151    1.299   .     A
N149   O150    1.301   .     A
N152   O154    1.300   .     A
N152   O153    1.301   .     A
N155   O156    1.299   .     A
N155   O157    1.301   .     A
N158   O160    1.301   .     A
N158   O159    1.299   .     A
O161   C165    1.302   .     A
O161   Cu173   1.972   .     S
O162   C166    1.302   .     A
O162   Cu174   1.972   .     S
O163   C166    1.303   .     A
O163   Cu173   1.971   .     S
O164   C165    1.302   .     A
O164   Cu174   1.971   .     S
C165   C196    1.471   .     S
C166   C195    1.470   .     S
O167   C171    1.295   .     A
O167   Cu173   1.965   .     S
O168   C172    1.296   .     A
O168   Cu174   1.965   .     S
O169   Cu173   1.964   .     S
O169   C172    1.295   .     A
O170   Cu174   1.964   .     S
O170   C171    1.296   .     A
C171   C178    1.450   .     S
C172   C177    1.450   .     S
Cu173  N201    2.029   .     S
Cu173  Cu174   2.700   .     S
Cu174  N202    2.029   .     S
C175   C185    1.414   .     A
C175   C177    1.401   .     A
C175   N203    1.438   .     S
C176   C186    1.413   .     A
C176   N206    1.438   .     S
C176   C178    1.401   .     A
C177   C179    1.408   .     A
C178   C180    1.408   .     A
C179   C181    1.410   .     A
C179   O209    1.388   .     S
C180   O211    1.388   .     S
C180   C182    1.410   .     A
C181   C187    1.417   .     A
C181   C183    1.421   .     A
C182   C188    1.417   .     A
C182   C184    1.421   .     A
C183   C185    1.423   .     A
C183   C904    1.415   .     S
C184   C186    1.423   .     A
C184   C903    1.415   1_554 S
C185   C190    1.415   .     A
C186   C189    1.415   .     A
C187   O213    1.379   .     S
C187   C909    1.402   .     S
C188   O215    1.379   .     S
C188   C910    1.402   1_554 S
C189   O217    1.385   .     S
C189   C907    1.402   1_554 S
C190   O219    1.384   .     S
C190   C908    1.402   .     S
C191   O221    1.378   .     S
C191   C196    1.414   .     A
C192   C195    1.414   .     A
C192   O223    1.380   .     S
C192   C34     1.399   1_655 S
C193   O225    1.378   .     S
C193   C195    1.413   .     A
C193   C31     1.383   1_655 S
C194   C196    1.412   .     A
C194   O227    1.384   .     S
C197   N229    1.427   .     S
C197   N202    1.372   .     A
C197   C680    1.422   1_545 S
C198   N232    1.429   .     S
C198   N201    1.373   .     A
C198   C439    1.422   .     S
C199   N235    1.427   .     S
C199   N202    1.373   .     A
C199   C678    1.422   1_545 S
C200   N238    1.429   .     S
C200   N201    1.374   .     A
C200   C437    1.422   .     S
N203   O204    1.301   .     A
N203   O205    1.301   .     A
N206   O208    1.301   .     A
N206   O207    1.301   .     A
O209   H210    0.987   .     S
O211   H212    0.987   .     S
O213   H214    0.992   .     S
O215   H216    0.992   .     S
O217   H218    0.989   .     S
O219   H220    0.989   .     S
O221   H222    0.992   .     S
O223   H224    0.992   .     S
O225   H226    0.992   .     S
O227   H228    0.990   .     S
N229   O231    1.299   .     A
N229   O230    1.301   .     A
N232   O234    1.300   .     A
N232   O233    1.301   .     A
N235   O236    1.299   .     A
N235   O237    1.301   .     A
N238   O240    1.301   .     A
N238   O239    1.299   .     A
O241   C245    1.302   .     A
O241   Cu253   1.972   .     S
O242   C246    1.302   .     A
O242   Cu254   1.972   .     S
O243   C246    1.303   .     A
O243   Cu253   1.971   .     S
O244   C245    1.302   .     A
O244   Cu254   1.971   .     S
C245   C276    1.471   .     S
C246   C275    1.470   .     S
O247   C251    1.295   .     A
O247   Cu253   1.965   .     S
O248   C252    1.296   .     A
O248   Cu254   1.965   .     S
O249   Cu253   1.964   .     S
O249   C252    1.295   .     A
O250   Cu254   1.964   .     S
O250   C251    1.296   .     A
C251   C258    1.450   .     S
C252   C257    1.450   .     S
Cu253  N281    2.029   .     S
Cu253  Cu254   2.700   .     S
Cu254  N282    2.029   .     S
C255   C265    1.414   .     A
C255   C257    1.401   .     A
C255   N283    1.438   .     S
C256   C266    1.413   .     A
C256   N286    1.438   .     S
C256   C258    1.401   .     A
C257   C259    1.408   .     A
C258   C260    1.408   .     A
C259   C261    1.410   .     A
C259   O289    1.388   .     S
C260   O291    1.388   .     S
C260   C262    1.410   .     A
C261   C267    1.417   .     A
C261   C263    1.421   .     A
C262   C268    1.417   .     A
C262   C264    1.421   .     A
C263   C265    1.423   .     A
C263   C984    1.415   .     S
C264   C266    1.423   .     A
C264   C983    1.415   1_554 S
C265   C270    1.415   .     A
C266   C269    1.415   .     A
C267   O293    1.379   .     S
C267   C989    1.402   .     S
C268   O295    1.379   .     S
C268   C990    1.402   1_554 S
C269   O297    1.385   .     S
C269   C987    1.402   1_554 S
C270   O299    1.384   .     S
C270   C988    1.402   .     S
C271   O301    1.378   .     S
C271   C276    1.414   .     A
C271   C433    1.383   1_455 S
C272   C275    1.414   .     A
C272   O303    1.380   .     S
C272   C354    1.399   .     S
C273   O305    1.378   .     S
C273   C275    1.413   .     A
C273   C351    1.383   .     S
C274   C276    1.412   .     A
C274   O307    1.384   .     S
C274   C432    1.399   1_455 S
C277   N309    1.427   .     S
C277   N282    1.372   .     A
C278   N312    1.429   .     S
C278   N281    1.373   .     A
C278   C519    1.422   .     S
C279   N315    1.427   .     S
C279   N282    1.373   .     A
C280   N318    1.429   .     S
C280   N281    1.374   .     A
C280   C517    1.422   .     S
N283   O284    1.301   .     A
N283   O285    1.301   .     A
N286   O288    1.301   .     A
N286   O287    1.301   .     A
O289   H290    0.987   .     S
O291   H292    0.987   .     S
O293   H294    0.992   .     S
O295   H296    0.992   .     S
O297   H298    0.989   .     S
O299   H300    0.989   .     S
O301   H302    0.992   .     S
O303   H304    0.992   .     S
O305   H306    0.992   .     S
O307   H308    0.990   .     S
N309   O311    1.299   .     A
N309   O310    1.301   .     A
N312   O314    1.300   .     A
N312   O313    1.301   .     A
N315   O316    1.299   .     A
N315   O317    1.301   .     A
N318   O320    1.301   .     A
N318   O319    1.299   .     A
O321   C325    1.302   .     A
O321   Cu333   1.972   .     S
O322   C326    1.302   .     A
O322   Cu334   1.972   .     S
O323   C326    1.303   .     A
O323   Cu333   1.971   .     S
O324   C325    1.302   .     A
O324   Cu334   1.971   .     S
C325   C356    1.471   .     S
C326   C355    1.470   .     S
O327   C331    1.295   .     A
O327   Cu333   1.965   .     S
O328   C332    1.296   .     A
O328   Cu334   1.965   .     S
O329   Cu333   1.964   .     S
O329   C332    1.295   .     A
O330   Cu334   1.964   .     S
O330   C331    1.296   .     A
C331   C338    1.450   .     S
C332   C337    1.450   .     S
Cu333  N361    2.029   .     S
Cu333  Cu334   2.700   .     S
Cu334  N362    2.029   .     S
C335   C345    1.414   .     A
C335   C337    1.401   .     A
C335   N363    1.438   .     S
C336   C346    1.413   .     A
C336   N366    1.438   .     S
C336   C338    1.401   .     A
C337   C339    1.408   .     A
C338   C340    1.408   .     A
C339   C341    1.410   .     A
C339   O369    1.388   .     S
C340   O371    1.388   .     S
C340   C342    1.410   .     A
C341   C347    1.417   .     A
C341   C343    1.421   .     A
C342   C348    1.417   .     A
C342   C344    1.421   .     A
C343   C345    1.423   .     A
C343   C1064   1.415   .     S
C344   C346    1.423   .     A
C344   C1063   1.415   1_554 S
C345   C350    1.415   .     A
C346   C349    1.415   .     A
C347   O373    1.379   .     S
C347   C1069   1.402   .     S
C348   O375    1.379   .     S
C348   C1070   1.402   1_554 S
C349   O377    1.385   .     S
C349   C1067   1.402   1_554 S
C350   O379    1.384   .     S
C350   C1068   1.402   .     S
C351   O381    1.378   .     S
C351   C356    1.414   .     A
C352   C355    1.414   .     A
C352   O383    1.380   .     S
C352   C434    1.399   .     S
C353   O385    1.378   .     S
C353   C355    1.413   .     A
C353   C431    1.383   .     S
C354   C356    1.412   .     A
C354   O387    1.384   .     S
C357   N389    1.427   .     S
C357   N362    1.372   .     A
C358   N392    1.429   .     S
C358   N361    1.373   .     A
C358   C599    1.422   .     S
C359   N395    1.427   .     S
C359   N362    1.373   .     A
C360   N398    1.429   .     S
C360   N361    1.374   .     A
C360   C597    1.422   .     S
N363   O364    1.301   .     A
N363   O365    1.301   .     A
N366   O368    1.301   .     A
N366   O367    1.301   .     A
O369   H370    0.987   .     S
O371   H372    0.987   .     S
O373   H374    0.992   .     S
O375   H376    0.992   .     S
O377   H378    0.989   .     S
O379   H380    0.989   .     S
O381   H382    0.992   .     S
O383   H384    0.992   .     S
O385   H386    0.992   .     S
O387   H388    0.990   .     S
N389   O391    1.299   .     A
N389   O390    1.301   .     A
N392   O394    1.300   .     A
N392   O393    1.301   .     A
N395   O396    1.299   .     A
N395   O397    1.301   .     A
N398   O400    1.301   .     A
N398   O399    1.299   .     A
O401   C405    1.302   .     A
O401   Cu413   1.972   .     S
O402   C406    1.302   .     A
O402   Cu414   1.972   .     S
O403   C406    1.303   .     A
O403   Cu413   1.971   .     S
O404   C405    1.302   .     A
O404   Cu414   1.971   .     S
C405   C436    1.471   .     S
C406   C435    1.470   .     S
O407   C411    1.295   .     A
O407   Cu413   1.965   .     S
O408   C412    1.296   .     A
O408   Cu414   1.965   .     S
O409   Cu413   1.964   .     S
O409   C412    1.295   .     A
O410   Cu414   1.964   .     S
O410   C411    1.296   .     A
C411   C418    1.450   .     S
C412   C417    1.450   .     S
Cu413  N441    2.029   .     S
Cu413  Cu414   2.700   .     S
Cu414  N442    2.029   .     S
C415   C425    1.414   .     A
C415   C417    1.401   .     A
C415   N443    1.438   .     S
C416   C426    1.413   .     A
C416   N446    1.438   .     S
C416   C418    1.401   .     A
C417   C419    1.408   .     A
C418   C420    1.408   .     A
C419   C421    1.410   .     A
C419   O449    1.388   .     S
C420   O451    1.388   .     S
C420   C422    1.410   .     A
C421   C427    1.417   .     A
C421   C423    1.421   .     A
C422   C428    1.417   .     A
C422   C424    1.421   .     A
C423   C425    1.423   .     A
C423   C1144   1.415   .     S
C424   C426    1.423   .     A
C424   C1143   1.415   1_554 S
C425   C430    1.415   .     A
C426   C429    1.415   .     A
C427   O453    1.379   .     S
C427   C1149   1.402   .     S
C428   O455    1.379   .     S
C428   C1150   1.402   1_554 S
C429   O457    1.385   .     S
C429   C1147   1.402   1_554 S
C430   O459    1.384   .     S
C430   C1148   1.402   .     S
C431   O461    1.378   .     S
C431   C436    1.414   .     A
C432   C435    1.414   .     A
C432   O463    1.380   .     S
C432   C274    1.399   1_655 S
C433   O465    1.378   .     S
C433   C435    1.413   .     A
C433   C271    1.383   1_655 S
C434   C436    1.412   .     A
C434   O467    1.384   .     S
C437   N469    1.427   .     S
C437   N442    1.372   .     A
C438   N472    1.429   .     S
C438   N441    1.373   .     A
C438   C679    1.422   .     S
C439   N475    1.427   .     S
C439   N442    1.373   .     A
C440   N478    1.429   .     S
C440   N441    1.374   .     A
C440   C677    1.422   .     S
N443   O444    1.301   .     A
N443   O445    1.301   .     A
N446   O448    1.301   .     A
N446   O447    1.301   .     A
O449   H450    0.987   .     S
O451   H452    0.987   .     S
O453   H454    0.992   .     S
O455   H456    0.992   .     S
O457   H458    0.989   .     S
O459   H460    0.989   .     S
O461   H462    0.992   .     S
O463   H464    0.992   .     S
O465   H466    0.992   .     S
O467   H468    0.990   .     S
N469   O471    1.299   .     A
N469   O470    1.301   .     A
N472   O474    1.300   .     A
N472   O473    1.301   .     A
N475   O476    1.299   .     A
N475   O477    1.301   .     A
N478   O480    1.301   .     A
N478   O479    1.299   .     A
O481   C485    1.302   .     A
O481   Cu493   1.972   .     S
O482   C486    1.302   .     A
O482   Cu494   1.972   .     S
O483   C486    1.303   .     A
O483   Cu493   1.971   .     S
O484   C485    1.302   .     A
O484   Cu494   1.971   .     S
C485   C516    1.471   .     S
C486   C515    1.470   .     S
O487   C491    1.295   .     A
O487   Cu493   1.965   .     S
O488   C492    1.296   .     A
O488   Cu494   1.965   .     S
O489   Cu493   1.964   .     S
O489   C492    1.295   .     A
O490   Cu494   1.964   .     S
O490   C491    1.296   .     A
C491   C498    1.450   .     S
C492   C497    1.450   .     S
Cu493  N521    2.029   .     S
Cu493  Cu494   2.700   .     S
Cu494  N522    2.029   .     S
C495   C505    1.414   .     A
C495   C497    1.401   .     A
C495   N523    1.438   .     S
C496   C506    1.413   .     A
C496   N526    1.438   .     S
C496   C498    1.401   .     A
C497   C499    1.408   .     A
C498   C500    1.408   .     A
C499   C501    1.410   .     A
C499   O529    1.388   .     S
C500   O531    1.388   .     S
C500   C502    1.410   .     A
C501   C507    1.417   .     A
C501   C503    1.421   .     A
C502   C508    1.417   .     A
C502   C504    1.421   .     A
C503   C505    1.423   .     A
C503   C1224   1.415   .     S
C504   C506    1.423   .     A
C504   C1223   1.415   1_554 S
C505   C510    1.415   .     A
C506   C509    1.415   .     A
C507   O533    1.379   .     S
C507   C1229   1.402   .     S
C508   O535    1.379   .     S
C508   C1230   1.402   1_554 S
C509   O537    1.385   .     S
C509   C1227   1.402   1_554 S
C510   O539    1.384   .     S
C510   C1228   1.402   .     S
C511   O541    1.378   .     S
C511   C516    1.414   .     A
C511   C673    1.383   1_455 S
C512   C515    1.414   .     A
C512   O543    1.380   .     S
C512   C594    1.399   .     S
C513   O545    1.378   .     S
C513   C515    1.413   .     A
C513   C591    1.383   .     S
C514   C516    1.412   .     A
C514   O547    1.384   .     S
C514   C672    1.399   1_455 S
C517   N549    1.427   .     S
C517   N522    1.372   .     A
C518   N552    1.429   .     S
C518   N521    1.373   .     A
C518   C39     1.422   1_565 S
C519   N555    1.427   .     S
C519   N522    1.373   .     A
C520   N558    1.429   .     S
C520   N521    1.374   .     A
C520   C37     1.422   1_565 S
N523   O524    1.301   .     A
N523   O525    1.301   .     A
N526   O528    1.301   .     A
N526   O527    1.301   .     A
O529   H530    0.987   .     S
O531   H532    0.987   .     S
O533   H534    0.992   .     S
O535   H536    0.992   .     S
O537   H538    0.989   .     S
O539   H540    0.989   .     S
O541   H542    0.992   .     S
O543   H544    0.992   .     S
O545   H546    0.992   .     S
O547   H548    0.990   .     S
N549   O551    1.299   .     A
N549   O550    1.301   .     A
N552   O554    1.300   .     A
N552   O553    1.301   .     A
N555   O556    1.299   .     A
N555   O557    1.301   .     A
N558   O560    1.301   .     A
N558   O559    1.299   .     A
O561   C565    1.302   .     A
O561   Cu573   1.972   .     S
O562   C566    1.302   .     A
O562   Cu574   1.972   .     S
O563   C566    1.303   .     A
O563   Cu573   1.971   .     S
O564   C565    1.302   .     A
O564   Cu574   1.971   .     S
C565   C596    1.471   .     S
C566   C595    1.470   .     S
O567   C571    1.295   .     A
O567   Cu573   1.965   .     S
O568   C572    1.296   .     A
O568   Cu574   1.965   .     S
O569   Cu573   1.964   .     S
O569   C572    1.295   .     A
O570   Cu574   1.964   .     S
O570   C571    1.296   .     A
C571   C578    1.450   .     S
C572   C577    1.450   .     S
Cu573  N601    2.029   .     S
Cu573  Cu574   2.700   .     S
Cu574  N602    2.029   .     S
C575   C585    1.414   .     A
C575   C577    1.401   .     A
C575   N603    1.438   .     S
C576   C586    1.413   .     A
C576   N606    1.438   .     S
C576   C578    1.401   .     A
C577   C579    1.408   .     A
C578   C580    1.408   .     A
C579   C581    1.410   .     A
C579   O609    1.388   .     S
C580   O611    1.388   .     S
C580   C582    1.410   .     A
C581   C587    1.417   .     A
C581   C583    1.421   .     A
C582   C588    1.417   .     A
C582   C584    1.421   .     A
C583   C585    1.423   .     A
C583   C1304   1.415   .     S
C584   C586    1.423   .     A
C584   C1303   1.415   1_554 S
C585   C590    1.415   .     A
C586   C589    1.415   .     A
C587   O613    1.379   .     S
C587   C1309   1.402   .     S
C588   O615    1.379   .     S
C588   C1310   1.402   1_554 S
C589   O617    1.385   .     S
C589   C1307   1.402   1_554 S
C590   O619    1.384   .     S
C590   C1308   1.402   .     S
C591   O621    1.378   .     S
C591   C596    1.414   .     A
C592   C595    1.414   .     A
C592   O623    1.380   .     S
C592   C674    1.399   .     S
C593   O625    1.378   .     S
C593   C595    1.413   .     A
C593   C671    1.383   .     S
C594   C596    1.412   .     A
C594   O627    1.384   .     S
C597   N629    1.427   .     S
C597   N602    1.372   .     A
C598   N632    1.429   .     S
C598   N601    1.373   .     A
C598   C119    1.422   1_565 S
C599   N635    1.427   .     S
C599   N602    1.373   .     A
C600   N638    1.429   .     S
C600   N601    1.374   .     A
C600   C117    1.422   1_565 S
N603   O604    1.301   .     A
N603   O605    1.301   .     A
N606   O608    1.301   .     A
N606   O607    1.301   .     A
O609   H610    0.987   .     S
O611   H612    0.987   .     S
O613   H614    0.992   .     S
O615   H616    0.992   .     S
O617   H618    0.989   .     S
O619   H620    0.989   .     S
O621   H622    0.992   .     S
O623   H624    0.992   .     S
O625   H626    0.992   .     S
O627   H628    0.990   .     S
N629   O631    1.299   .     A
N629   O630    1.301   .     A
N632   O634    1.300   .     A
N632   O633    1.301   .     A
N635   O636    1.299   .     A
N635   O637    1.301   .     A
N638   O640    1.301   .     A
N638   O639    1.299   .     A
O641   C645    1.302   .     A
O641   Cu653   1.972   .     S
O642   C646    1.302   .     A
O642   Cu654   1.972   .     S
O643   C646    1.303   .     A
O643   Cu653   1.971   .     S
O644   C645    1.302   .     A
O644   Cu654   1.971   .     S
C645   C676    1.471   .     S
C646   C675    1.470   .     S
O647   C651    1.295   .     A
O647   Cu653   1.965   .     S
O648   C652    1.296   .     A
O648   Cu654   1.965   .     S
O649   Cu653   1.964   .     S
O649   C652    1.295   .     A
O650   Cu654   1.964   .     S
O650   C651    1.296   .     A
C651   C658    1.450   .     S
C652   C657    1.450   .     S
Cu653  N681    2.029   .     S
Cu653  Cu654   2.700   .     S
Cu654  N682    2.029   .     S
C655   C665    1.414   .     A
C655   C657    1.401   .     A
C655   N683    1.438   .     S
C656   C666    1.413   .     A
C656   N686    1.438   .     S
C656   C658    1.401   .     A
C657   C659    1.408   .     A
C658   C660    1.408   .     A
C659   C661    1.410   .     A
C659   O689    1.388   .     S
C660   O691    1.388   .     S
C660   C662    1.410   .     A
C661   C667    1.417   .     A
C661   C663    1.421   .     A
C662   C668    1.417   .     A
C662   C664    1.421   .     A
C663   C665    1.423   .     A
C663   C1384   1.415   .     S
C664   C666    1.423   .     A
C664   C1383   1.415   1_554 S
C665   C670    1.415   .     A
C666   C669    1.415   .     A
C667   O693    1.379   .     S
C667   C1389   1.402   .     S
C668   O695    1.379   .     S
C668   C1390   1.402   1_554 S
C669   O697    1.385   .     S
C669   C1387   1.402   1_554 S
C670   O699    1.384   .     S
C670   C1388   1.402   .     S
C671   O701    1.378   .     S
C671   C676    1.414   .     A
C672   C675    1.414   .     A
C672   O703    1.380   .     S
C672   C514    1.399   1_655 S
C673   O705    1.378   .     S
C673   C675    1.413   .     A
C673   C511    1.383   1_655 S
C674   C676    1.412   .     A
C674   O707    1.384   .     S
C677   N709    1.427   .     S
C677   N682    1.372   .     A
C678   N712    1.429   .     S
C678   N681    1.373   .     A
C678   C199    1.422   1_565 S
C679   N715    1.427   .     S
C679   N682    1.373   .     A
C680   N718    1.429   .     S
C680   N681    1.374   .     A
C680   C197    1.422   1_565 S
N683   O684    1.301   .     A
N683   O685    1.301   .     A
N686   O688    1.301   .     A
N686   O687    1.301   .     A
O689   H690    0.987   .     S
O691   H692    0.987   .     S
O693   H694    0.992   .     S
O695   H696    0.992   .     S
O697   H698    0.989   .     S
O699   H700    0.989   .     S
O701   H702    0.992   .     S
O703   H704    0.992   .     S
O705   H706    0.992   .     S
O707   H708    0.990   .     S
N709   O711    1.299   .     A
N709   O710    1.301   .     A
N712   O714    1.300   .     A
N712   O713    1.301   .     A
N715   O716    1.299   .     A
N715   O717    1.301   .     A
N718   O720    1.301   .     A
N718   O719    1.299   .     A
O721   C725    1.302   .     A
O721   Cu733   1.972   .     S
O722   C726    1.302   .     A
O722   Cu734   1.972   .     S
O723   C726    1.303   .     A
O723   Cu733   1.971   .     S
O724   C725    1.302   .     A
O724   Cu734   1.971   .     S
C725   C756    1.471   .     S
C726   C755    1.470   .     S
O727   C731    1.295   .     A
O727   Cu733   1.965   .     S
O728   C732    1.296   .     A
O728   Cu734   1.965   .     S
O729   Cu733   1.964   .     S
O729   C732    1.295   .     A
O730   Cu734   1.964   .     S
O730   C731    1.296   .     A
C731   C738    1.450   .     S
C732   C737    1.450   .     S
Cu733  N761    2.029   .     S
Cu733  Cu734   2.700   .     S
Cu734  N762    2.029   .     S
C735   C745    1.414   .     A
C735   C737    1.401   .     A
C735   N763    1.438   .     S
C736   C746    1.413   .     A
C736   N766    1.438   .     S
C736   C738    1.401   .     A
C737   C739    1.408   .     A
C738   C740    1.408   .     A
C739   C741    1.410   .     A
C739   O769    1.388   .     S
C740   O771    1.388   .     S
C740   C742    1.410   .     A
C741   C747    1.417   .     A
C741   C743    1.421   .     A
C742   C748    1.417   .     A
C742   C744    1.421   .     A
C743   C745    1.423   .     A
C743   C24     1.415   1_556 S
C744   C746    1.423   .     A
C745   C750    1.415   .     A
C746   C749    1.415   .     A
C747   O773    1.379   .     S
C747   C29     1.402   1_556 S
C748   O775    1.379   .     S
C749   O777    1.385   .     S
C750   O779    1.384   .     S
C750   C28     1.402   1_556 S
C751   O781    1.378   .     S
C751   C756    1.414   .     A
C751   C913    1.383   1_455 S
C752   C755    1.414   .     A
C752   O783    1.380   .     S
C752   C834    1.399   .     S
C753   O785    1.378   .     S
C753   C755    1.413   .     A
C753   C831    1.383   .     S
C754   C756    1.412   .     A
C754   O787    1.384   .     S
C754   C912    1.399   1_455 S
C757   N789    1.427   .     S
C757   N762    1.372   .     A
C757   C1240   1.422   1_545 S
C758   N792    1.429   .     S
C758   N761    1.373   .     A
C758   C999    1.422   .     S
C759   N795    1.427   .     S
C759   N762    1.373   .     A
C759   C1238   1.422   1_545 S
C760   N798    1.429   .     S
C760   N761    1.374   .     A
C760   C997    1.422   .     S
N763   O764    1.301   .     A
N763   O765    1.301   .     A
N766   O768    1.301   .     A
N766   O767    1.301   .     A
O769   H770    0.987   .     S
O771   H772    0.987   .     S
O773   H774    0.992   .     S
O775   H776    0.992   .     S
O777   H778    0.989   .     S
O779   H780    0.989   .     S
O781   H782    0.992   .     S
O783   H784    0.992   .     S
O785   H786    0.992   .     S
O787   H788    0.990   .     S
N789   O791    1.299   .     A
N789   O790    1.301   .     A
N792   O794    1.300   .     A
N792   O793    1.301   .     A
N795   O796    1.299   .     A
N795   O797    1.301   .     A
N798   O800    1.301   .     A
N798   O799    1.299   .     A
O801   C805    1.302   .     A
O801   Cu813   1.972   .     S
O802   C806    1.302   .     A
O802   Cu814   1.972   .     S
O803   C806    1.303   .     A
O803   Cu813   1.971   .     S
O804   C805    1.302   .     A
O804   Cu814   1.971   .     S
C805   C836    1.471   .     S
C806   C835    1.470   .     S
O807   C811    1.295   .     A
O807   Cu813   1.965   .     S
O808   C812    1.296   .     A
O808   Cu814   1.965   .     S
O809   Cu813   1.964   .     S
O809   C812    1.295   .     A
O810   Cu814   1.964   .     S
O810   C811    1.296   .     A
C811   C818    1.450   .     S
C812   C817    1.450   .     S
Cu813  N841    2.029   .     S
Cu813  Cu814   2.700   .     S
Cu814  N842    2.029   .     S
C815   C825    1.414   .     A
C815   C817    1.401   .     A
C815   N843    1.438   .     S
C816   C826    1.413   .     A
C816   N846    1.438   .     S
C816   C818    1.401   .     A
C817   C819    1.408   .     A
C818   C820    1.408   .     A
C819   C821    1.410   .     A
C819   O849    1.388   .     S
C820   O851    1.388   .     S
C820   C822    1.410   .     A
C821   C827    1.417   .     A
C821   C823    1.421   .     A
C822   C828    1.417   .     A
C822   C824    1.421   .     A
C823   C825    1.423   .     A
C823   C104    1.415   1_556 S
C824   C826    1.423   .     A
C825   C830    1.415   .     A
C826   C829    1.415   .     A
C827   O853    1.379   .     S
C827   C109    1.402   1_556 S
C828   O855    1.379   .     S
C829   O857    1.385   .     S
C830   O859    1.384   .     S
C830   C108    1.402   1_556 S
C831   O861    1.378   .     S
C831   C836    1.414   .     A
C832   C835    1.414   .     A
C832   O863    1.380   .     S
C832   C914    1.399   .     S
C833   O865    1.378   .     S
C833   C835    1.413   .     A
C833   C911    1.383   .     S
C834   C836    1.412   .     A
C834   O867    1.384   .     S
C837   N869    1.427   .     S
C837   N842    1.372   .     A
C837   C1320   1.422   1_545 S
C838   N872    1.429   .     S
C838   N841    1.373   .     A
C838   C1079   1.422   .     S
C839   N875    1.427   .     S
C839   N842    1.373   .     A
C839   C1318   1.422   1_545 S
C840   N878    1.429   .     S
C840   N841    1.374   .     A
C840   C1077   1.422   .     S
N843   O844    1.301   .     A
N843   O845    1.301   .     A
N846   O848    1.301   .     A
N846   O847    1.301   .     A
O849   H850    0.987   .     S
O851   H852    0.987   .     S
O853   H854    0.992   .     S
O855   H856    0.992   .     S
O857   H858    0.989   .     S
O859   H860    0.989   .     S
O861   H862    0.992   .     S
O863   H864    0.992   .     S
O865   H866    0.992   .     S
O867   H868    0.990   .     S
N869   O871    1.299   .     A
N869   O870    1.301   .     A
N872   O874    1.300   .     A
N872   O873    1.301   .     A
N875   O876    1.299   .     A
N875   O877    1.301   .     A
N878   O880    1.301   .     A
N878   O879    1.299   .     A
O881   C885    1.302   .     A
O881   Cu893   1.972   .     S
O882   C886    1.302   .     A
O882   Cu894   1.972   .     S
O883   C886    1.303   .     A
O883   Cu893   1.971   .     S
O884   C885    1.302   .     A
O884   Cu894   1.971   .     S
C885   C916    1.471   .     S
C886   C915    1.470   .     S
O887   C891    1.295   .     A
O887   Cu893   1.965   .     S
O888   C892    1.296   .     A
O888   Cu894   1.965   .     S
O889   Cu893   1.964   .     S
O889   C892    1.295   .     A
O890   Cu894   1.964   .     S
O890   C891    1.296   .     A
C891   C898    1.450   .     S
C892   C897    1.450   .     S
Cu893  N921    2.029   .     S
Cu893  Cu894   2.700   .     S
Cu894  N922    2.029   .     S
C895   C905    1.414   .     A
C895   C897    1.401   .     A
C895   N923    1.438   .     S
C896   C906    1.413   .     A
C896   N926    1.438   .     S
C896   C898    1.401   .     A
C897   C899    1.408   .     A
C898   C900    1.408   .     A
C899   C901    1.410   .     A
C899   O929    1.388   .     S
C900   O931    1.388   .     S
C900   C902    1.410   .     A
C901   C907    1.417   .     A
C901   C903    1.421   .     A
C902   C908    1.417   .     A
C902   C904    1.421   .     A
C903   C905    1.423   .     A
C903   C184    1.415   1_556 S
C904   C906    1.423   .     A
C905   C910    1.415   .     A
C906   C909    1.415   .     A
C907   O933    1.379   .     S
C907   C189    1.402   1_556 S
C908   O935    1.379   .     S
C909   O937    1.385   .     S
C910   O939    1.384   .     S
C910   C188    1.402   1_556 S
C911   O941    1.378   .     S
C911   C916    1.414   .     A
C912   C915    1.414   .     A
C912   O943    1.380   .     S
C912   C754    1.399   1_655 S
C913   O945    1.378   .     S
C913   C915    1.413   .     A
C913   C751    1.383   1_655 S
C914   C916    1.412   .     A
C914   O947    1.384   .     S
C917   N949    1.427   .     S
C917   N922    1.372   .     A
C917   C1400   1.422   1_545 S
C918   N952    1.429   .     S
C918   N921    1.373   .     A
C918   C1159   1.422   .     S
C919   N955    1.427   .     S
C919   N922    1.373   .     A
C919   C1398   1.422   1_545 S
C920   N958    1.429   .     S
C920   N921    1.374   .     A
C920   C1157   1.422   .     S
N923   O924    1.301   .     A
N923   O925    1.301   .     A
N926   O928    1.301   .     A
N926   O927    1.301   .     A
O929   H930    0.987   .     S
O931   H932    0.987   .     S
O933   H934    0.992   .     S
O935   H936    0.992   .     S
O937   H938    0.989   .     S
O939   H940    0.989   .     S
O941   H942    0.992   .     S
O943   H944    0.992   .     S
O945   H946    0.992   .     S
O947   H948    0.990   .     S
N949   O951    1.299   .     A
N949   O950    1.301   .     A
N952   O954    1.300   .     A
N952   O953    1.301   .     A
N955   O956    1.299   .     A
N955   O957    1.301   .     A
N958   O960    1.301   .     A
N958   O959    1.299   .     A
O961   C965    1.302   .     A
O961   Cu973   1.972   .     S
O962   C966    1.302   .     A
O962   Cu974   1.972   .     S
O963   C966    1.303   .     A
O963   Cu973   1.971   .     S
O964   C965    1.302   .     A
O964   Cu974   1.971   .     S
C965   C996    1.471   .     S
C966   C995    1.470   .     S
O967   C971    1.295   .     A
O967   Cu973   1.965   .     S
O968   C972    1.296   .     A
O968   Cu974   1.965   .     S
O969   Cu973   1.964   .     S
O969   C972    1.295   .     A
O970   Cu974   1.964   .     S
O970   C971    1.296   .     A
C971   C978    1.450   .     S
C972   C977    1.450   .     S
Cu973  N1001   2.029   .     S
Cu973  Cu974   2.700   .     S
Cu974  N1002   2.029   .     S
C975   C985    1.414   .     A
C975   C977    1.401   .     A
C975   N1003   1.438   .     S
C976   C986    1.413   .     A
C976   N1006   1.438   .     S
C976   C978    1.401   .     A
C977   C979    1.408   .     A
C978   C980    1.408   .     A
C979   C981    1.410   .     A
C979   O1009   1.388   .     S
C980   O1011   1.388   .     S
C980   C982    1.410   .     A
C981   C987    1.417   .     A
C981   C983    1.421   .     A
C982   C988    1.417   .     A
C982   C984    1.421   .     A
C983   C985    1.423   .     A
C983   C264    1.415   1_556 S
C984   C986    1.423   .     A
C985   C990    1.415   .     A
C986   C989    1.415   .     A
C987   O1013   1.379   .     S
C987   C269    1.402   1_556 S
C988   O1015   1.379   .     S
C989   O1017   1.385   .     S
C990   O1019   1.384   .     S
C990   C268    1.402   1_556 S
C991   O1021   1.378   .     S
C991   C996    1.414   .     A
C991   C1153   1.383   1_455 S
C992   C995    1.414   .     A
C992   O1023   1.380   .     S
C992   C1074   1.399   .     S
C993   O1025   1.378   .     S
C993   C995    1.413   .     A
C993   C1071   1.383   .     S
C994   C996    1.412   .     A
C994   O1027   1.384   .     S
C994   C1152   1.399   1_455 S
C997   N1029   1.427   .     S
C997   N1002   1.372   .     A
C998   N1032   1.429   .     S
C998   N1001   1.373   .     A
C998   C1239   1.422   .     S
C999   N1035   1.427   .     S
C999   N1002   1.373   .     A
C1000  N1038   1.429   .     S
C1000  N1001   1.374   .     A
C1000  C1237   1.422   .     S
N1003  O1004   1.301   .     A
N1003  O1005   1.301   .     A
N1006  O1008   1.301   .     A
N1006  O1007   1.301   .     A
O1009  H1010   0.987   .     S
O1011  H1012   0.987   .     S
O1013  H1014   0.992   .     S
O1015  H1016   0.992   .     S
O1017  H1018   0.989   .     S
O1019  H1020   0.989   .     S
O1021  H1022   0.992   .     S
O1023  H1024   0.992   .     S
O1025  H1026   0.992   .     S
O1027  H1028   0.990   .     S
N1029  O1031   1.299   .     A
N1029  O1030   1.301   .     A
N1032  O1034   1.300   .     A
N1032  O1033   1.301   .     A
N1035  O1036   1.299   .     A
N1035  O1037   1.301   .     A
N1038  O1040   1.301   .     A
N1038  O1039   1.299   .     A
O1041  C1045   1.302   .     A
O1041  Cu1053  1.972   .     S
O1042  C1046   1.302   .     A
O1042  Cu1054  1.972   .     S
O1043  C1046   1.303   .     A
O1043  Cu1053  1.971   .     S
O1044  C1045   1.302   .     A
O1044  Cu1054  1.971   .     S
C1045  C1076   1.471   .     S
C1046  C1075   1.470   .     S
O1047  C1051   1.295   .     A
O1047  Cu1053  1.965   .     S
O1048  C1052   1.296   .     A
O1048  Cu1054  1.965   .     S
O1049  Cu1053  1.964   .     S
O1049  C1052   1.295   .     A
O1050  Cu1054  1.964   .     S
O1050  C1051   1.296   .     A
C1051  C1058   1.450   .     S
C1052  C1057   1.450   .     S
Cu1053 N1081   2.029   .     S
Cu1053 Cu1054  2.700   .     S
Cu1054 N1082   2.029   .     S
C1055  C1065   1.414   .     A
C1055  C1057   1.401   .     A
C1055  N1083   1.438   .     S
C1056  C1066   1.413   .     A
C1056  N1086   1.438   .     S
C1056  C1058   1.401   .     A
C1057  C1059   1.408   .     A
C1058  C1060   1.408   .     A
C1059  C1061   1.410   .     A
C1059  O1089   1.388   .     S
C1060  O1091   1.388   .     S
C1060  C1062   1.410   .     A
C1061  C1067   1.417   .     A
C1061  C1063   1.421   .     A
C1062  C1068   1.417   .     A
C1062  C1064   1.421   .     A
C1063  C1065   1.423   .     A
C1063  C344    1.415   1_556 S
C1064  C1066   1.423   .     A
C1065  C1070   1.415   .     A
C1066  C1069   1.415   .     A
C1067  O1093   1.379   .     S
C1067  C349    1.402   1_556 S
C1068  O1095   1.379   .     S
C1069  O1097   1.385   .     S
C1070  O1099   1.384   .     S
C1070  C348    1.402   1_556 S
C1071  O1101   1.378   .     S
C1071  C1076   1.414   .     A
C1072  C1075   1.414   .     A
C1072  O1103   1.380   .     S
C1072  C1154   1.399   .     S
C1073  O1105   1.378   .     S
C1073  C1075   1.413   .     A
C1073  C1151   1.383   .     S
C1074  C1076   1.412   .     A
C1074  O1107   1.384   .     S
C1077  N1109   1.427   .     S
C1077  N1082   1.372   .     A
C1078  N1112   1.429   .     S
C1078  N1081   1.373   .     A
C1078  C1319   1.422   .     S
C1079  N1115   1.427   .     S
C1079  N1082   1.373   .     A
C1080  N1118   1.429   .     S
C1080  N1081   1.374   .     A
C1080  C1317   1.422   .     S
N1083  O1084   1.301   .     A
N1083  O1085   1.301   .     A
N1086  O1088   1.301   .     A
N1086  O1087   1.301   .     A
O1089  H1090   0.987   .     S
O1091  H1092   0.987   .     S
O1093  H1094   0.992   .     S
O1095  H1096   0.992   .     S
O1097  H1098   0.989   .     S
O1099  H1100   0.989   .     S
O1101  H1102   0.992   .     S
O1103  H1104   0.992   .     S
O1105  H1106   0.992   .     S
O1107  H1108   0.990   .     S
N1109  O1111   1.299   .     A
N1109  O1110   1.301   .     A
N1112  O1114   1.300   .     A
N1112  O1113   1.301   .     A
N1115  O1116   1.299   .     A
N1115  O1117   1.301   .     A
N1118  O1120   1.301   .     A
N1118  O1119   1.299   .     A
O1121  C1125   1.302   .     A
O1121  Cu1133  1.972   .     S
O1122  C1126   1.302   .     A
O1122  Cu1134  1.972   .     S
O1123  C1126   1.303   .     A
O1123  Cu1133  1.971   .     S
O1124  C1125   1.302   .     A
O1124  Cu1134  1.971   .     S
C1125  C1156   1.471   .     S
C1126  C1155   1.470   .     S
O1127  C1131   1.295   .     A
O1127  Cu1133  1.965   .     S
O1128  C1132   1.296   .     A
O1128  Cu1134  1.965   .     S
O1129  Cu1133  1.964   .     S
O1129  C1132   1.295   .     A
O1130  Cu1134  1.964   .     S
O1130  C1131   1.296   .     A
C1131  C1138   1.450   .     S
C1132  C1137   1.450   .     S
Cu1133 N1161   2.029   .     S
Cu1133 Cu1134  2.700   .     S
Cu1134 N1162   2.029   .     S
C1135  C1145   1.414   .     A
C1135  C1137   1.401   .     A
C1135  N1163   1.438   .     S
C1136  C1146   1.413   .     A
C1136  N1166   1.438   .     S
C1136  C1138   1.401   .     A
C1137  C1139   1.408   .     A
C1138  C1140   1.408   .     A
C1139  C1141   1.410   .     A
C1139  O1169   1.388   .     S
C1140  O1171   1.388   .     S
C1140  C1142   1.410   .     A
C1141  C1147   1.417   .     A
C1141  C1143   1.421   .     A
C1142  C1148   1.417   .     A
C1142  C1144   1.421   .     A
C1143  C1145   1.423   .     A
C1143  C424    1.415   1_556 S
C1144  C1146   1.423   .     A
C1145  C1150   1.415   .     A
C1146  C1149   1.415   .     A
C1147  O1173   1.379   .     S
C1147  C429    1.402   1_556 S
C1148  O1175   1.379   .     S
C1149  O1177   1.385   .     S
C1150  O1179   1.384   .     S
C1150  C428    1.402   1_556 S
C1151  O1181   1.378   .     S
C1151  C1156   1.414   .     A
C1152  C1155   1.414   .     A
C1152  O1183   1.380   .     S
C1152  C994    1.399   1_655 S
C1153  O1185   1.378   .     S
C1153  C1155   1.413   .     A
C1153  C991    1.383   1_655 S
C1154  C1156   1.412   .     A
C1154  O1187   1.384   .     S
C1157  N1189   1.427   .     S
C1157  N1162   1.372   .     A
C1158  N1192   1.429   .     S
C1158  N1161   1.373   .     A
C1158  C1399   1.422   .     S
C1159  N1195   1.427   .     S
C1159  N1162   1.373   .     A
C1160  N1198   1.429   .     S
C1160  N1161   1.374   .     A
C1160  C1397   1.422   .     S
N1163  O1164   1.301   .     A
N1163  O1165   1.301   .     A
N1166  O1168   1.301   .     A
N1166  O1167   1.301   .     A
O1169  H1170   0.987   .     S
O1171  H1172   0.987   .     S
O1173  H1174   0.992   .     S
O1175  H1176   0.992   .     S
O1177  H1178   0.989   .     S
O1179  H1180   0.989   .     S
O1181  H1182   0.992   .     S
O1183  H1184   0.992   .     S
O1185  H1186   0.992   .     S
O1187  H1188   0.990   .     S
N1189  O1191   1.299   .     A
N1189  O1190   1.301   .     A
N1192  O1194   1.300   .     A
N1192  O1193   1.301   .     A
N1195  O1196   1.299   .     A
N1195  O1197   1.301   .     A
N1198  O1200   1.301   .     A
N1198  O1199   1.299   .     A
O1201  C1205   1.302   .     A
O1201  Cu1213  1.972   .     S
O1202  C1206   1.302   .     A
O1202  Cu1214  1.972   .     S
O1203  C1206   1.303   .     A
O1203  Cu1213  1.971   .     S
O1204  C1205   1.302   .     A
O1204  Cu1214  1.971   .     S
C1205  C1236   1.471   .     S
C1206  C1235   1.470   .     S
O1207  C1211   1.295   .     A
O1207  Cu1213  1.965   .     S
O1208  C1212   1.296   .     A
O1208  Cu1214  1.965   .     S
O1209  Cu1213  1.964   .     S
O1209  C1212   1.295   .     A
O1210  Cu1214  1.964   .     S
O1210  C1211   1.296   .     A
C1211  C1218   1.450   .     S
C1212  C1217   1.450   .     S
Cu1213 N1241   2.029   .     S
Cu1213 Cu1214  2.700   .     S
Cu1214 N1242   2.029   .     S
C1215  C1225   1.414   .     A
C1215  C1217   1.401   .     A
C1215  N1243   1.438   .     S
C1216  C1226   1.413   .     A
C1216  N1246   1.438   .     S
C1216  C1218   1.401   .     A
C1217  C1219   1.408   .     A
C1218  C1220   1.408   .     A
C1219  C1221   1.410   .     A
C1219  O1249   1.388   .     S
C1220  O1251   1.388   .     S
C1220  C1222   1.410   .     A
C1221  C1227   1.417   .     A
C1221  C1223   1.421   .     A
C1222  C1228   1.417   .     A
C1222  C1224   1.421   .     A
C1223  C1225   1.423   .     A
C1223  C504    1.415   1_556 S
C1224  C1226   1.423   .     A
C1225  C1230   1.415   .     A
C1226  C1229   1.415   .     A
C1227  O1253   1.379   .     S
C1227  C509    1.402   1_556 S
C1228  O1255   1.379   .     S
C1229  O1257   1.385   .     S
C1230  O1259   1.384   .     S
C1230  C508    1.402   1_556 S
C1231  O1261   1.378   .     S
C1231  C1236   1.414   .     A
C1231  C1393   1.383   1_455 S
C1232  C1235   1.414   .     A
C1232  O1263   1.380   .     S
C1232  C1314   1.399   .     S
C1233  O1265   1.378   .     S
C1233  C1235   1.413   .     A
C1233  C1311   1.383   .     S
C1234  C1236   1.412   .     A
C1234  O1267   1.384   .     S
C1234  C1392   1.399   1_455 S
C1237  N1269   1.427   .     S
C1237  N1242   1.372   .     A
C1238  N1272   1.429   .     S
C1238  N1241   1.373   .     A
C1238  C759    1.422   1_565 S
C1239  N1275   1.427   .     S
C1239  N1242   1.373   .     A
C1240  N1278   1.429   .     S
C1240  N1241   1.374   .     A
C1240  C757    1.422   1_565 S
N1243  O1244   1.301   .     A
N1243  O1245   1.301   .     A
N1246  O1248   1.301   .     A
N1246  O1247   1.301   .     A
O1249  H1250   0.987   .     S
O1251  H1252   0.987   .     S
O1253  H1254   0.992   .     S
O1255  H1256   0.992   .     S
O1257  H1258   0.989   .     S
O1259  H1260   0.989   .     S
O1261  H1262   0.992   .     S
O1263  H1264   0.992   .     S
O1265  H1266   0.992   .     S
O1267  H1268   0.990   .     S
N1269  O1271   1.299   .     A
N1269  O1270   1.301   .     A
N1272  O1274   1.300   .     A
N1272  O1273   1.301   .     A
N1275  O1276   1.299   .     A
N1275  O1277   1.301   .     A
N1278  O1280   1.301   .     A
N1278  O1279   1.299   .     A
O1281  C1285   1.302   .     A
O1281  Cu1293  1.972   .     S
O1282  C1286   1.302   .     A
O1282  Cu1294  1.972   .     S
O1283  C1286   1.303   .     A
O1283  Cu1293  1.971   .     S
O1284  C1285   1.302   .     A
O1284  Cu1294  1.971   .     S
C1285  C1316   1.471   .     S
C1286  C1315   1.470   .     S
O1287  C1291   1.295   .     A
O1287  Cu1293  1.965   .     S
O1288  C1292   1.296   .     A
O1288  Cu1294  1.965   .     S
O1289  Cu1293  1.964   .     S
O1289  C1292   1.295   .     A
O1290  Cu1294  1.964   .     S
O1290  C1291   1.296   .     A
C1291  C1298   1.450   .     S
C1292  C1297   1.450   .     S
Cu1293 N1321   2.029   .     S
Cu1293 Cu1294  2.700   .     S
Cu1294 N1322   2.029   .     S
C1295  C1305   1.414   .     A
C1295  C1297   1.401   .     A
C1295  N1323   1.438   .     S
C1296  C1306   1.413   .     A
C1296  N1326   1.438   .     S
C1296  C1298   1.401   .     A
C1297  C1299   1.408   .     A
C1298  C1300   1.408   .     A
C1299  C1301   1.410   .     A
C1299  O1329   1.388   .     S
C1300  O1331   1.388   .     S
C1300  C1302   1.410   .     A
C1301  C1307   1.417   .     A
C1301  C1303   1.421   .     A
C1302  C1308   1.417   .     A
C1302  C1304   1.421   .     A
C1303  C1305   1.423   .     A
C1303  C584    1.415   1_556 S
C1304  C1306   1.423   .     A
C1305  C1310   1.415   .     A
C1306  C1309   1.415   .     A
C1307  O1333   1.379   .     S
C1307  C589    1.402   1_556 S
C1308  O1335   1.379   .     S
C1309  O1337   1.385   .     S
C1310  O1339   1.384   .     S
C1310  C588    1.402   1_556 S
C1311  O1341   1.378   .     S
C1311  C1316   1.414   .     A
C1312  C1315   1.414   .     A
C1312  O1343   1.380   .     S
C1312  C1394   1.399   .     S
C1313  O1345   1.378   .     S
C1313  C1315   1.413   .     A
C1313  C1391   1.383   .     S
C1314  C1316   1.412   .     A
C1314  O1347   1.384   .     S
C1317  N1349   1.427   .     S
C1317  N1322   1.372   .     A
C1318  N1352   1.429   .     S
C1318  N1321   1.373   .     A
C1318  C839    1.422   1_565 S
C1319  N1355   1.427   .     S
C1319  N1322   1.373   .     A
C1320  N1358   1.429   .     S
C1320  N1321   1.374   .     A
C1320  C837    1.422   1_565 S
N1323  O1324   1.301   .     A
N1323  O1325   1.301   .     A
N1326  O1328   1.301   .     A
N1326  O1327   1.301   .     A
O1329  H1330   0.987   .     S
O1331  H1332   0.987   .     S
O1333  H1334   0.992   .     S
O1335  H1336   0.992   .     S
O1337  H1338   0.989   .     S
O1339  H1340   0.989   .     S
O1341  H1342   0.992   .     S
O1343  H1344   0.992   .     S
O1345  H1346   0.992   .     S
O1347  H1348   0.990   .     S
N1349  O1351   1.299   .     A
N1349  O1350   1.301   .     A
N1352  O1354   1.300   .     A
N1352  O1353   1.301   .     A
N1355  O1356   1.299   .     A
N1355  O1357   1.301   .     A
N1358  O1360   1.301   .     A
N1358  O1359   1.299   .     A
O1361  C1365   1.302   .     A
O1361  Cu1373  1.972   .     S
O1362  C1366   1.302   .     A
O1362  Cu1374  1.972   .     S
O1363  C1366   1.303   .     A
O1363  Cu1373  1.971   .     S
O1364  C1365   1.302   .     A
O1364  Cu1374  1.971   .     S
C1365  C1396   1.471   .     S
C1366  C1395   1.470   .     S
O1367  C1371   1.295   .     A
O1367  Cu1373  1.965   .     S
O1368  C1372   1.296   .     A
O1368  Cu1374  1.965   .     S
O1369  Cu1373  1.964   .     S
O1369  C1372   1.295   .     A
O1370  Cu1374  1.964   .     S
O1370  C1371   1.296   .     A
C1371  C1378   1.450   .     S
C1372  C1377   1.450   .     S
Cu1373 N1401   2.029   .     S
Cu1373 Cu1374  2.700   .     S
Cu1374 N1402   2.029   .     S
C1375  C1385   1.414   .     A
C1375  C1377   1.401   .     A
C1375  N1403   1.438   .     S
C1376  C1386   1.413   .     A
C1376  N1406   1.438   .     S
C1376  C1378   1.401   .     A
C1377  C1379   1.408   .     A
C1378  C1380   1.408   .     A
C1379  C1381   1.410   .     A
C1379  O1409   1.388   .     S
C1380  O1411   1.388   .     S
C1380  C1382   1.410   .     A
C1381  C1387   1.417   .     A
C1381  C1383   1.421   .     A
C1382  C1388   1.417   .     A
C1382  C1384   1.421   .     A
C1383  C1385   1.423   .     A
C1383  C664    1.415   1_556 S
C1384  C1386   1.423   .     A
C1385  C1390   1.415   .     A
C1386  C1389   1.415   .     A
C1387  O1413   1.379   .     S
C1387  C669    1.402   1_556 S
C1388  O1415   1.379   .     S
C1389  O1417   1.385   .     S
C1390  O1419   1.384   .     S
C1390  C668    1.402   1_556 S
C1391  O1421   1.378   .     S
C1391  C1396   1.414   .     A
C1392  C1395   1.414   .     A
C1392  O1423   1.380   .     S
C1392  C1234   1.399   1_655 S
C1393  O1425   1.378   .     S
C1393  C1395   1.413   .     A
C1393  C1231   1.383   1_655 S
C1394  C1396   1.412   .     A
C1394  O1427   1.384   .     S
C1397  N1429   1.427   .     S
C1397  N1402   1.372   .     A
C1398  N1432   1.429   .     S
C1398  N1401   1.373   .     A
C1398  C919    1.422   1_565 S
C1399  N1435   1.427   .     S
C1399  N1402   1.373   .     A
C1400  N1438   1.429   .     S
C1400  N1401   1.374   .     A
C1400  C917    1.422   1_565 S
N1403  O1404   1.301   .     A
N1403  O1405   1.301   .     A
N1406  O1408   1.301   .     A
N1406  O1407   1.301   .     A
O1409  H1410   0.987   .     S
O1411  H1412   0.987   .     S
O1413  H1414   0.992   .     S
O1415  H1416   0.992   .     S
O1417  H1418   0.989   .     S
O1419  H1420   0.989   .     S
O1421  H1422   0.992   .     S
O1423  H1424   0.992   .     S
O1425  H1426   0.992   .     S
O1427  H1428   0.990   .     S
N1429  O1431   1.299   .     A
N1429  O1430   1.301   .     A
N1432  O1434   1.300   .     A
N1432  O1433   1.301   .     A
N1435  O1436   1.299   .     A
N1435  O1437   1.301   .     A
N1438  O1440   1.301   .     A
N1438  O1439   1.299   .     A
