data_str_m2_o1_o18_pcu_sym.59
_audit_creation_date              2020-01-03
_audit_creation_method            'Materials Studio'
_symmetry_space_group_name_H-M    'P1'
_symmetry_Int_Tables_number       1
_symmetry_cell_setting            triclinic
loop_
_symmetry_equiv_pos_as_xyz
  x,y,z
_cell_length_a                    28.8233
_cell_length_b                    32.4868
_cell_length_c                    31.4131
_cell_angle_alpha                 88.1997
_cell_angle_beta                  73.2460
_cell_angle_gamma                 91.4069
loop_
_atom_site_label
_atom_site_type_symbol
_atom_site_fract_x
_atom_site_fract_y
_atom_site_fract_z
_atom_site_U_iso_or_equiv
_atom_site_adp_type
_atom_site_occupancy
C1     C     0.00027   0.08757   0.24838   0.00000  Uiso   1.00
C2     C     0.04347   0.02196   0.22702   0.00000  Uiso   1.00
C3     C     0.33293   0.29039   0.25240   0.00000  Uiso   1.00
C4     C     0.00071   0.04291   0.24707   0.00000  Uiso   1.00
C5     C     0.18065   0.13983   0.27802   0.00000  Uiso   1.00
C6     C     0.15234   0.19423   0.22282   0.00000  Uiso   1.00
C7     C     0.13145   0.14086   0.27789   0.00000  Uiso   1.00
C8     C     0.20137   0.19393   0.22373   0.00000  Uiso   1.00
C9     C     0.30579   0.16671   0.33578   0.00000  Uiso   1.00
C10    C     0.02748   0.16606   0.16426   0.00000  Uiso   1.00
C11    C     0.29040   0.16694   0.38451   0.00000  Uiso   1.00
C12    C     0.33320   0.24576   0.25130   0.00000  Uiso   1.00
C13    C     0.04250   0.16144   0.11598   0.00000  Uiso   1.00
C14    C     0.30793   0.17647   0.45435   0.00000  Uiso   1.00
C15    C     0.02584   0.13883   0.04905   0.00000  Uiso   1.00
C16    C     0.32379   0.17472   0.40825   0.00000  Uiso   1.00
C17    C     0.00966   0.14702   0.09408   0.00000  Uiso   1.00
C18    C     0.24138   0.16005   0.40731   0.00000  Uiso   1.00
C19    C     0.09122   0.16820   0.09235   0.00000  Uiso   1.00
C20    C     0.22443   0.16104   0.45387   0.00000  Uiso   1.00
C21    C     0.10894   0.15773   0.04762   0.00000  Uiso   1.00
C22    C     0.25866   0.16995   0.47726   0.00000  Uiso   1.00
C23    C     0.19483   0.16690   0.04641   0.00000  Uiso   1.00
C24    C     0.07509   0.14431   0.02562   0.00000  Uiso   1.00
C25    C     0.17444   0.15458   0.47769   0.00000  Uiso   1.00
C26    C     0.15922   0.16030   0.02428   0.00000  Uiso   1.00
C27    C     0.24343   0.28998   0.29638   0.00000  Uiso   1.00
C28    C     0.20286   0.29364   0.28040   0.00000  Uiso   1.00
C29    C     0.15871   0.27378   0.30329   0.00000  Uiso   1.00
C30    C     0.15474   0.25025   0.34225   0.00000  Uiso   1.00
C31    C     0.19479   0.24682   0.35860   0.00000  Uiso   1.00
C32    C     0.23910   0.26649   0.33574   0.00000  Uiso   1.00
C33    C     0.08937   0.04305   0.20070   0.00000  Uiso   1.00
C34    C     0.13930   0.14180   0.45684   0.00000  Uiso   1.00
C35    C     0.09166   0.06542   0.16115   0.00000  Uiso   1.00
C36    C     0.13593   0.08271   0.13484   0.00000  Uiso   1.00
C37    C     0.17787   0.07864   0.14818   0.00000  Uiso   1.00
C38    C     0.17588   0.05633   0.18743   0.00000  Uiso   1.00
C39    C     0.13188   0.03825   0.21344   0.00000  Uiso   1.00
C40    C     0.19001   0.11073   0.31316   0.00000  Uiso   1.00
C41    C     0.17134   0.06644   0.31130   0.00000  Uiso   1.00
C42    C     0.14032   0.22884   0.19457   0.00000  Uiso   1.00
C43    C     0.17741   0.23560   0.14867   0.00000  Uiso   1.00
C44    C     0.24347   0.17209   0.02330   0.00000  Uiso   1.00
C45    C     0.09076   0.13615   0.48062   0.00000  Uiso   1.00
C46    C     0.29149   0.02073   0.26923   0.00000  Uiso   1.00
C47    C     0.04231   0.31253   0.23034   0.00000  Uiso   1.00
C48    C     0.29006   0.31132   0.27209   0.00000  Uiso   1.00
Cu49   Cu    0.04689   0.16667   0.25000   0.00000  Uiso   1.00
Cu50   Cu    0.28645   0.16666   0.25000   0.00000  Uiso   1.00
H51    H     0.26931   0.17798   0.04171   0.00000  Uiso   1.00
H52    H     0.14814   0.13444   0.42240   0.00000  Uiso   1.00
H53    H     0.25970   0.03690   0.28595   0.00000  Uiso   1.00
H54    H     0.07445   0.29646   0.21367   0.00000  Uiso   1.00
H55    H     0.10375   0.12153   0.30083   0.00000  Uiso   1.00
H56    H     0.22810   0.21605   0.20385   0.00000  Uiso   1.00
H57    H     0.20558   0.31161   0.25010   0.00000  Uiso   1.00
H58    H     0.12755   0.27667   0.29088   0.00000  Uiso   1.00
H59    H     0.12055   0.23486   0.35992   0.00000  Uiso   1.00
H60    H     0.19133   0.22915   0.38916   0.00000  Uiso   1.00
H61    H     0.26989   0.26358   0.34872   0.00000  Uiso   1.00
H62    H     0.06524   0.12561   0.46348   0.00000  Uiso   1.00
H63    H     0.05951   0.06860   0.15022   0.00000  Uiso   1.00
H64    H     0.13795   0.09860   0.10368   0.00000  Uiso   1.00
H65    H     0.21201   0.09224   0.12777   0.00000  Uiso   1.00
H66    H     0.20858   0.05260   0.19730   0.00000  Uiso   1.00
H67    H     0.13081   0.02031   0.24336   0.00000  Uiso   1.00
H68    H     0.13122   0.06388   0.32096   0.00000  Uiso   1.00
H69    H     0.18616   0.05503   0.27740   0.00000  Uiso   1.00
H70    H     0.18296   0.04624   0.33523   0.00000  Uiso   1.00
H71    H     0.22815   0.10896   0.31158   0.00000  Uiso   1.00
H72    H     0.17100   0.12229   0.34624   0.00000  Uiso   1.00
H73    H     0.11470   0.18151   0.10979   0.00000  Uiso   1.00
H74    H     0.20762   0.25663   0.15066   0.00000  Uiso   1.00
H75    H     0.19257   0.20597   0.13581   0.00000  Uiso   1.00
H76    H     0.16007   0.25003   0.12485   0.00000  Uiso   1.00
H77    H     0.10526   0.22407   0.18851   0.00000  Uiso   1.00
H78    H     0.13910   0.25773   0.21269   0.00000  Uiso   1.00
H79    H     0.21693   0.15522   0.38774   0.00000  Uiso   1.00
H80    H     0.30506   0.14129   0.11187   0.00000  Uiso   1.00
H81    H     0.02862   0.18022   0.39120   0.00000  Uiso   1.00
H82    H     0.00082   0.18338   0.47207   0.00000  Uiso   1.00
H83    H     0.00004   0.12738   0.03271   0.00000  Uiso   1.00
H84    H     0.18629   0.16641   0.08199   0.00000  Uiso   1.00
N85    N     0.11736   0.16668   0.24999   0.00000  Uiso   1.00
N86    N     0.21597   0.16666   0.25001   0.00000  Uiso   1.00
O87    O     0.03958   0.10655   0.25000   0.00000  Uiso   1.00
O88    O     0.29375   0.22678   0.25000   0.00000  Uiso   1.00
O89    O     0.29372   0.10654   0.25000   0.00000  Uiso   1.00
O90    O     0.03961   0.22679   0.25000   0.00000  Uiso   1.00
O91    O     0.01852   0.16668   0.31492   0.00000  Uiso   1.00
O92    O     0.31481   0.16666   0.18508   0.00000  Uiso   1.00
O93    O     0.27267   0.16667   0.31492   0.00000  Uiso   1.00
O94    O     0.06067   0.16667   0.18508   0.00000  Uiso   1.00
C95    C     0.33360   0.08757   0.24838   0.00000  Uiso   1.00
C96    C     0.37680   0.02196   0.22702   0.00000  Uiso   1.00
C97    C     0.66627   0.29039   0.25240   0.00000  Uiso   1.00
C98    C     0.33404   0.04291   0.24707   0.00000  Uiso   1.00
C99    C     0.51398   0.13983   0.27802   0.00000  Uiso   1.00
C100   C     0.48567   0.19423   0.22282   0.00000  Uiso   1.00
C101   C     0.46478   0.14086   0.27789   0.00000  Uiso   1.00
C102   C     0.53470   0.19393   0.22373   0.00000  Uiso   1.00
C103   C     0.63912   0.16671   0.33578   0.00000  Uiso   1.00
C104   C     0.36081   0.16606   0.16426   0.00000  Uiso   1.00
C105   C     0.62374   0.16694   0.38451   0.00000  Uiso   1.00
C106   C     0.66653   0.24576   0.25130   0.00000  Uiso   1.00
C107   C     0.37583   0.16144   0.11598   0.00000  Uiso   1.00
C108   C     0.64127   0.17647   0.45435   0.00000  Uiso   1.00
C109   C     0.35918   0.13883   0.04905   0.00000  Uiso   1.00
C110   C     0.65712   0.17472   0.40825   0.00000  Uiso   1.00
C111   C     0.34299   0.14702   0.09408   0.00000  Uiso   1.00
C112   C     0.57471   0.16005   0.40731   0.00000  Uiso   1.00
C113   C     0.42456   0.16820   0.09235   0.00000  Uiso   1.00
C114   C     0.55776   0.16104   0.45387   0.00000  Uiso   1.00
C115   C     0.44227   0.15773   0.04762   0.00000  Uiso   1.00
C116   C     0.59199   0.16995   0.47726   0.00000  Uiso   1.00
C117   C     0.52816   0.16690   0.04641   0.00000  Uiso   1.00
C118   C     0.40843   0.14431   0.02562   0.00000  Uiso   1.00
C119   C     0.50777   0.15458   0.47769   0.00000  Uiso   1.00
C120   C     0.49256   0.16030   0.02428   0.00000  Uiso   1.00
C121   C     0.57677   0.28998   0.29638   0.00000  Uiso   1.00
C122   C     0.53619   0.29364   0.28040   0.00000  Uiso   1.00
C123   C     0.49204   0.27378   0.30329   0.00000  Uiso   1.00
C124   C     0.48807   0.25025   0.34225   0.00000  Uiso   1.00
C125   C     0.52812   0.24682   0.35860   0.00000  Uiso   1.00
C126   C     0.57243   0.26649   0.33574   0.00000  Uiso   1.00
C127   C     0.42271   0.04305   0.20070   0.00000  Uiso   1.00
C128   C     0.47263   0.14180   0.45684   0.00000  Uiso   1.00
C129   C     0.42500   0.06542   0.16115   0.00000  Uiso   1.00
C130   C     0.46927   0.08271   0.13484   0.00000  Uiso   1.00
C131   C     0.51120   0.07864   0.14818   0.00000  Uiso   1.00
C132   C     0.50921   0.05633   0.18743   0.00000  Uiso   1.00
C133   C     0.46521   0.03825   0.21344   0.00000  Uiso   1.00
C134   C     0.52334   0.11073   0.31316   0.00000  Uiso   1.00
C135   C     0.50467   0.06644   0.31130   0.00000  Uiso   1.00
C136   C     0.47365   0.22884   0.19457   0.00000  Uiso   1.00
C137   C     0.51075   0.23560   0.14867   0.00000  Uiso   1.00
C138   C     0.57681   0.17209   0.02330   0.00000  Uiso   1.00
C139   C     0.42410   0.13615   0.48062   0.00000  Uiso   1.00
C140   C     0.62482   0.02073   0.26923   0.00000  Uiso   1.00
C141   C     0.37565   0.31253   0.23034   0.00000  Uiso   1.00
C142   C     0.62339   0.31132   0.27209   0.00000  Uiso   1.00
Cu143  Cu    0.38022   0.16667   0.25000   0.00000  Uiso   1.00
Cu144  Cu    0.61978   0.16666   0.25000   0.00000  Uiso   1.00
H145   H     0.60264   0.17798   0.04171   0.00000  Uiso   1.00
H146   H     0.48147   0.13444   0.42240   0.00000  Uiso   1.00
H147   H     0.59303   0.03690   0.28595   0.00000  Uiso   1.00
H148   H     0.40778   0.29646   0.21367   0.00000  Uiso   1.00
H149   H     0.43709   0.12153   0.30083   0.00000  Uiso   1.00
H150   H     0.56143   0.21605   0.20385   0.00000  Uiso   1.00
H151   H     0.53891   0.31161   0.25010   0.00000  Uiso   1.00
H152   H     0.46088   0.27667   0.29088   0.00000  Uiso   1.00
H153   H     0.45388   0.23486   0.35992   0.00000  Uiso   1.00
H154   H     0.52467   0.22915   0.38916   0.00000  Uiso   1.00
H155   H     0.60322   0.26358   0.34872   0.00000  Uiso   1.00
H156   H     0.39857   0.12561   0.46348   0.00000  Uiso   1.00
H157   H     0.39284   0.06860   0.15022   0.00000  Uiso   1.00
H158   H     0.47129   0.09860   0.10368   0.00000  Uiso   1.00
H159   H     0.54534   0.09224   0.12777   0.00000  Uiso   1.00
H160   H     0.54192   0.05260   0.19730   0.00000  Uiso   1.00
H161   H     0.46414   0.02031   0.24336   0.00000  Uiso   1.00
H162   H     0.46455   0.06388   0.32096   0.00000  Uiso   1.00
H163   H     0.51949   0.05503   0.27740   0.00000  Uiso   1.00
H164   H     0.51630   0.04624   0.33523   0.00000  Uiso   1.00
H165   H     0.56148   0.10896   0.31158   0.00000  Uiso   1.00
H166   H     0.50433   0.12229   0.34624   0.00000  Uiso   1.00
H167   H     0.44804   0.18151   0.10979   0.00000  Uiso   1.00
H168   H     0.54096   0.25663   0.15066   0.00000  Uiso   1.00
H169   H     0.52590   0.20597   0.13581   0.00000  Uiso   1.00
H170   H     0.49340   0.25003   0.12485   0.00000  Uiso   1.00
H171   H     0.43859   0.22407   0.18851   0.00000  Uiso   1.00
H172   H     0.47244   0.25773   0.21269   0.00000  Uiso   1.00
H173   H     0.55026   0.15522   0.38774   0.00000  Uiso   1.00
H174   H     0.63839   0.14129   0.11187   0.00000  Uiso   1.00
H175   H     0.36195   0.18022   0.39120   0.00000  Uiso   1.00
H176   H     0.33415   0.18338   0.47207   0.00000  Uiso   1.00
H177   H     0.33337   0.12738   0.03271   0.00000  Uiso   1.00
H178   H     0.51963   0.16641   0.08199   0.00000  Uiso   1.00
N179   N     0.45069   0.16668   0.24999   0.00000  Uiso   1.00
N180   N     0.54931   0.16666   0.25001   0.00000  Uiso   1.00
O181   O     0.37291   0.10655   0.25000   0.00000  Uiso   1.00
O182   O     0.62709   0.22678   0.25000   0.00000  Uiso   1.00
O183   O     0.62706   0.10654   0.25000   0.00000  Uiso   1.00
O184   O     0.37294   0.22679   0.25000   0.00000  Uiso   1.00
O185   O     0.35186   0.16668   0.31492   0.00000  Uiso   1.00
O186   O     0.64814   0.16666   0.18508   0.00000  Uiso   1.00
O187   O     0.60600   0.16667   0.31492   0.00000  Uiso   1.00
O188   O     0.39400   0.16667   0.18508   0.00000  Uiso   1.00
C189   C     0.66694   0.08757   0.24838   0.00000  Uiso   1.00
C190   C     0.71014   0.02196   0.22702   0.00000  Uiso   1.00
C191   C     0.99960   0.29039   0.25240   0.00000  Uiso   1.00
C192   C     0.66738   0.04291   0.24707   0.00000  Uiso   1.00
C193   C     0.84731   0.13983   0.27802   0.00000  Uiso   1.00
C194   C     0.81900   0.19423   0.22282   0.00000  Uiso   1.00
C195   C     0.79811   0.14086   0.27789   0.00000  Uiso   1.00
C196   C     0.86803   0.19393   0.22373   0.00000  Uiso   1.00
C197   C     0.97246   0.16671   0.33578   0.00000  Uiso   1.00
C198   C     0.69414   0.16606   0.16426   0.00000  Uiso   1.00
C199   C     0.95707   0.16694   0.38451   0.00000  Uiso   1.00
C200   C     0.99987   0.24576   0.25130   0.00000  Uiso   1.00
C201   C     0.70917   0.16144   0.11598   0.00000  Uiso   1.00
C202   C     0.97460   0.17647   0.45435   0.00000  Uiso   1.00
C203   C     0.69251   0.13883   0.04905   0.00000  Uiso   1.00
C204   C     0.99046   0.17472   0.40825   0.00000  Uiso   1.00
C205   C     0.67633   0.14702   0.09408   0.00000  Uiso   1.00
C206   C     0.90804   0.16005   0.40731   0.00000  Uiso   1.00
C207   C     0.75789   0.16820   0.09235   0.00000  Uiso   1.00
C208   C     0.89109   0.16104   0.45387   0.00000  Uiso   1.00
C209   C     0.77561   0.15773   0.04762   0.00000  Uiso   1.00
C210   C     0.92532   0.16995   0.47726   0.00000  Uiso   1.00
C211   C     0.86150   0.16690   0.04641   0.00000  Uiso   1.00
C212   C     0.74176   0.14431   0.02562   0.00000  Uiso   1.00
C213   C     0.84110   0.15458   0.47769   0.00000  Uiso   1.00
C214   C     0.82589   0.16030   0.02428   0.00000  Uiso   1.00
C215   C     0.91010   0.28998   0.29638   0.00000  Uiso   1.00
C216   C     0.86953   0.29364   0.28040   0.00000  Uiso   1.00
C217   C     0.82538   0.27378   0.30329   0.00000  Uiso   1.00
C218   C     0.82140   0.25025   0.34225   0.00000  Uiso   1.00
C219   C     0.86145   0.24682   0.35860   0.00000  Uiso   1.00
C220   C     0.90577   0.26649   0.33574   0.00000  Uiso   1.00
C221   C     0.75604   0.04305   0.20070   0.00000  Uiso   1.00
C222   C     0.80597   0.14180   0.45684   0.00000  Uiso   1.00
C223   C     0.75833   0.06542   0.16115   0.00000  Uiso   1.00
C224   C     0.80260   0.08271   0.13484   0.00000  Uiso   1.00
C225   C     0.84453   0.07864   0.14818   0.00000  Uiso   1.00
C226   C     0.84254   0.05633   0.18743   0.00000  Uiso   1.00
C227   C     0.79855   0.03825   0.21344   0.00000  Uiso   1.00
C228   C     0.85667   0.11073   0.31316   0.00000  Uiso   1.00
C229   C     0.83801   0.06644   0.31130   0.00000  Uiso   1.00
C230   C     0.80698   0.22884   0.19457   0.00000  Uiso   1.00
C231   C     0.84408   0.23560   0.14867   0.00000  Uiso   1.00
C232   C     0.91014   0.17209   0.02330   0.00000  Uiso   1.00
C233   C     0.75743   0.13615   0.48062   0.00000  Uiso   1.00
C234   C     0.95816   0.02073   0.26923   0.00000  Uiso   1.00
C235   C     0.70898   0.31253   0.23034   0.00000  Uiso   1.00
C236   C     0.95672   0.31132   0.27209   0.00000  Uiso   1.00
Cu237  Cu    0.71355   0.16667   0.25000   0.00000  Uiso   1.00
Cu238  Cu    0.95311   0.16666   0.25000   0.00000  Uiso   1.00
H239   H     0.93598   0.17798   0.04171   0.00000  Uiso   1.00
H240   H     0.81481   0.13444   0.42240   0.00000  Uiso   1.00
H241   H     0.92637   0.03690   0.28595   0.00000  Uiso   1.00
H242   H     0.74112   0.29646   0.21367   0.00000  Uiso   1.00
H243   H     0.77042   0.12153   0.30083   0.00000  Uiso   1.00
H244   H     0.89476   0.21605   0.20385   0.00000  Uiso   1.00
H245   H     0.87224   0.31161   0.25010   0.00000  Uiso   1.00
H246   H     0.79421   0.27667   0.29088   0.00000  Uiso   1.00
H247   H     0.78722   0.23486   0.35992   0.00000  Uiso   1.00
H248   H     0.85800   0.22915   0.38916   0.00000  Uiso   1.00
H249   H     0.93656   0.26358   0.34872   0.00000  Uiso   1.00
H250   H     0.73191   0.12561   0.46348   0.00000  Uiso   1.00
H251   H     0.72618   0.06860   0.15022   0.00000  Uiso   1.00
H252   H     0.80462   0.09860   0.10368   0.00000  Uiso   1.00
H253   H     0.87868   0.09224   0.12777   0.00000  Uiso   1.00
H254   H     0.87525   0.05260   0.19730   0.00000  Uiso   1.00
H255   H     0.79748   0.02031   0.24336   0.00000  Uiso   1.00
H256   H     0.79788   0.06388   0.32096   0.00000  Uiso   1.00
H257   H     0.85283   0.05503   0.27740   0.00000  Uiso   1.00
H258   H     0.84963   0.04624   0.33523   0.00000  Uiso   1.00
H259   H     0.89482   0.10896   0.31158   0.00000  Uiso   1.00
H260   H     0.83766   0.12229   0.34624   0.00000  Uiso   1.00
H261   H     0.78137   0.18151   0.10979   0.00000  Uiso   1.00
H262   H     0.87429   0.25663   0.15066   0.00000  Uiso   1.00
H263   H     0.85923   0.20597   0.13581   0.00000  Uiso   1.00
H264   H     0.82674   0.25003   0.12485   0.00000  Uiso   1.00
H265   H     0.77193   0.22407   0.18851   0.00000  Uiso   1.00
H266   H     0.80577   0.25773   0.21269   0.00000  Uiso   1.00
H267   H     0.88360   0.15522   0.38774   0.00000  Uiso   1.00
H268   H     0.97173   0.14129   0.11187   0.00000  Uiso   1.00
H269   H     0.69529   0.18022   0.39120   0.00000  Uiso   1.00
H270   H     0.66748   0.18338   0.47207   0.00000  Uiso   1.00
H271   H     0.66671   0.12738   0.03271   0.00000  Uiso   1.00
H272   H     0.85296   0.16641   0.08199   0.00000  Uiso   1.00
N273   N     0.78403   0.16668   0.24999   0.00000  Uiso   1.00
N274   N     0.88264   0.16666   0.25001   0.00000  Uiso   1.00
O275   O     0.70625   0.10655   0.25000   0.00000  Uiso   1.00
O276   O     0.96042   0.22678   0.25000   0.00000  Uiso   1.00
O277   O     0.96039   0.10654   0.25000   0.00000  Uiso   1.00
O278   O     0.70628   0.22679   0.25000   0.00000  Uiso   1.00
O279   O     0.68519   0.16668   0.31492   0.00000  Uiso   1.00
O280   O     0.98148   0.16666   0.18508   0.00000  Uiso   1.00
O281   O     0.93933   0.16667   0.31492   0.00000  Uiso   1.00
O282   O     0.72733   0.16667   0.18508   0.00000  Uiso   1.00
C283   C     0.00027   0.42091   0.24838   0.00000  Uiso   1.00
C284   C     0.04347   0.35529   0.22702   0.00000  Uiso   1.00
C285   C     0.33293   0.62372   0.25240   0.00000  Uiso   1.00
C286   C     0.00071   0.37624   0.24707   0.00000  Uiso   1.00
C287   C     0.18065   0.47316   0.27802   0.00000  Uiso   1.00
C288   C     0.15234   0.52756   0.22282   0.00000  Uiso   1.00
C289   C     0.13145   0.47419   0.27789   0.00000  Uiso   1.00
C290   C     0.20137   0.52727   0.22373   0.00000  Uiso   1.00
C291   C     0.30579   0.50004   0.33578   0.00000  Uiso   1.00
C292   C     0.02748   0.49939   0.16426   0.00000  Uiso   1.00
C293   C     0.29040   0.50027   0.38451   0.00000  Uiso   1.00
C294   C     0.33320   0.57909   0.25130   0.00000  Uiso   1.00
C295   C     0.04250   0.49478   0.11598   0.00000  Uiso   1.00
C296   C     0.30793   0.50980   0.45435   0.00000  Uiso   1.00
C297   C     0.02584   0.47217   0.04905   0.00000  Uiso   1.00
C298   C     0.32379   0.50805   0.40825   0.00000  Uiso   1.00
C299   C     0.00966   0.48035   0.09408   0.00000  Uiso   1.00
C300   C     0.24138   0.49339   0.40731   0.00000  Uiso   1.00
C301   C     0.09122   0.50153   0.09235   0.00000  Uiso   1.00
C302   C     0.22443   0.49437   0.45387   0.00000  Uiso   1.00
C303   C     0.10894   0.49106   0.04762   0.00000  Uiso   1.00
C304   C     0.25866   0.50328   0.47726   0.00000  Uiso   1.00
C305   C     0.19483   0.50023   0.04641   0.00000  Uiso   1.00
C306   C     0.07509   0.47764   0.02562   0.00000  Uiso   1.00
C307   C     0.17444   0.48791   0.47769   0.00000  Uiso   1.00
C308   C     0.15922   0.49363   0.02428   0.00000  Uiso   1.00
C309   C     0.24343   0.62331   0.29638   0.00000  Uiso   1.00
C310   C     0.20286   0.62697   0.28040   0.00000  Uiso   1.00
C311   C     0.15871   0.60711   0.30329   0.00000  Uiso   1.00
C312   C     0.15474   0.58358   0.34225   0.00000  Uiso   1.00
C313   C     0.19479   0.58016   0.35860   0.00000  Uiso   1.00
C314   C     0.23910   0.59982   0.33574   0.00000  Uiso   1.00
C315   C     0.08937   0.37639   0.20070   0.00000  Uiso   1.00
C316   C     0.13930   0.47514   0.45684   0.00000  Uiso   1.00
C317   C     0.09166   0.39875   0.16115   0.00000  Uiso   1.00
C318   C     0.13593   0.41604   0.13484   0.00000  Uiso   1.00
C319   C     0.17787   0.41197   0.14818   0.00000  Uiso   1.00
C320   C     0.17588   0.38967   0.18743   0.00000  Uiso   1.00
C321   C     0.13188   0.37158   0.21344   0.00000  Uiso   1.00
C322   C     0.19001   0.44406   0.31316   0.00000  Uiso   1.00
C323   C     0.17134   0.39978   0.31130   0.00000  Uiso   1.00
C324   C     0.14032   0.56218   0.19457   0.00000  Uiso   1.00
C325   C     0.17741   0.56893   0.14867   0.00000  Uiso   1.00
C326   C     0.24347   0.50543   0.02330   0.00000  Uiso   1.00
C327   C     0.09076   0.46948   0.48062   0.00000  Uiso   1.00
C328   C     0.29149   0.35406   0.26923   0.00000  Uiso   1.00
C329   C     0.04231   0.64587   0.23034   0.00000  Uiso   1.00
C330   C     0.29006   0.64465   0.27209   0.00000  Uiso   1.00
Cu331  Cu    0.04689   0.50001   0.25000   0.00000  Uiso   1.00
Cu332  Cu    0.28645   0.49999   0.25000   0.00000  Uiso   1.00
H333   H     0.26931   0.51131   0.04171   0.00000  Uiso   1.00
H334   H     0.14814   0.46777   0.42240   0.00000  Uiso   1.00
H335   H     0.25970   0.37023   0.28595   0.00000  Uiso   1.00
H336   H     0.07445   0.62979   0.21367   0.00000  Uiso   1.00
H337   H     0.10375   0.45486   0.30083   0.00000  Uiso   1.00
H338   H     0.22810   0.54939   0.20385   0.00000  Uiso   1.00
H339   H     0.20558   0.64494   0.25010   0.00000  Uiso   1.00
H340   H     0.12755   0.61000   0.29088   0.00000  Uiso   1.00
H341   H     0.12055   0.56820   0.35992   0.00000  Uiso   1.00
H342   H     0.19133   0.56248   0.38916   0.00000  Uiso   1.00
H343   H     0.26989   0.59691   0.34872   0.00000  Uiso   1.00
H344   H     0.06524   0.45894   0.46348   0.00000  Uiso   1.00
H345   H     0.05951   0.40193   0.15022   0.00000  Uiso   1.00
H346   H     0.13795   0.43193   0.10368   0.00000  Uiso   1.00
H347   H     0.21201   0.42558   0.12777   0.00000  Uiso   1.00
H348   H     0.20858   0.38593   0.19730   0.00000  Uiso   1.00
H349   H     0.13081   0.35364   0.24336   0.00000  Uiso   1.00
H350   H     0.13122   0.39721   0.32096   0.00000  Uiso   1.00
H351   H     0.18616   0.38837   0.27740   0.00000  Uiso   1.00
H352   H     0.18296   0.37957   0.33523   0.00000  Uiso   1.00
H353   H     0.22815   0.44230   0.31158   0.00000  Uiso   1.00
H354   H     0.17100   0.45563   0.34624   0.00000  Uiso   1.00
H355   H     0.11470   0.51484   0.10979   0.00000  Uiso   1.00
H356   H     0.20762   0.58996   0.15066   0.00000  Uiso   1.00
H357   H     0.19257   0.53931   0.13581   0.00000  Uiso   1.00
H358   H     0.16007   0.58336   0.12485   0.00000  Uiso   1.00
H359   H     0.10526   0.55740   0.18851   0.00000  Uiso   1.00
H360   H     0.13910   0.59106   0.21269   0.00000  Uiso   1.00
H361   H     0.21693   0.48855   0.38774   0.00000  Uiso   1.00
H362   H     0.30506   0.47463   0.11187   0.00000  Uiso   1.00
H363   H     0.02862   0.51356   0.39120   0.00000  Uiso   1.00
H364   H     0.00082   0.51672   0.47207   0.00000  Uiso   1.00
H365   H     0.00004   0.46072   0.03271   0.00000  Uiso   1.00
H366   H     0.18629   0.49975   0.08199   0.00000  Uiso   1.00
N367   N     0.11736   0.50001   0.24999   0.00000  Uiso   1.00
N368   N     0.21597   0.49999   0.25001   0.00000  Uiso   1.00
O369   O     0.03958   0.43989   0.25000   0.00000  Uiso   1.00
O370   O     0.29375   0.56011   0.25000   0.00000  Uiso   1.00
O371   O     0.29372   0.43988   0.25000   0.00000  Uiso   1.00
O372   O     0.03961   0.56012   0.25000   0.00000  Uiso   1.00
O373   O     0.01852   0.50001   0.31492   0.00000  Uiso   1.00
O374   O     0.31481   0.49999   0.18508   0.00000  Uiso   1.00
O375   O     0.27267   0.50000   0.31492   0.00000  Uiso   1.00
O376   O     0.06067   0.50000   0.18508   0.00000  Uiso   1.00
C377   C     0.33360   0.42091   0.24838   0.00000  Uiso   1.00
C378   C     0.37680   0.35529   0.22702   0.00000  Uiso   1.00
C379   C     0.66627   0.62372   0.25240   0.00000  Uiso   1.00
C380   C     0.33404   0.37624   0.24707   0.00000  Uiso   1.00
C381   C     0.51398   0.47316   0.27802   0.00000  Uiso   1.00
C382   C     0.48567   0.52756   0.22282   0.00000  Uiso   1.00
C383   C     0.46478   0.47419   0.27789   0.00000  Uiso   1.00
C384   C     0.53470   0.52727   0.22373   0.00000  Uiso   1.00
C385   C     0.63912   0.50004   0.33578   0.00000  Uiso   1.00
C386   C     0.36081   0.49939   0.16426   0.00000  Uiso   1.00
C387   C     0.62374   0.50027   0.38451   0.00000  Uiso   1.00
C388   C     0.66653   0.57909   0.25130   0.00000  Uiso   1.00
C389   C     0.37583   0.49478   0.11598   0.00000  Uiso   1.00
C390   C     0.64127   0.50980   0.45435   0.00000  Uiso   1.00
C391   C     0.35918   0.47217   0.04905   0.00000  Uiso   1.00
C392   C     0.65712   0.50805   0.40825   0.00000  Uiso   1.00
C393   C     0.34299   0.48035   0.09408   0.00000  Uiso   1.00
C394   C     0.57471   0.49339   0.40731   0.00000  Uiso   1.00
C395   C     0.42456   0.50153   0.09235   0.00000  Uiso   1.00
C396   C     0.55776   0.49437   0.45387   0.00000  Uiso   1.00
C397   C     0.44227   0.49106   0.04762   0.00000  Uiso   1.00
C398   C     0.59199   0.50328   0.47726   0.00000  Uiso   1.00
C399   C     0.52816   0.50023   0.04641   0.00000  Uiso   1.00
C400   C     0.40843   0.47764   0.02562   0.00000  Uiso   1.00
C401   C     0.50777   0.48791   0.47769   0.00000  Uiso   1.00
C402   C     0.49256   0.49363   0.02428   0.00000  Uiso   1.00
C403   C     0.57677   0.62331   0.29638   0.00000  Uiso   1.00
C404   C     0.53619   0.62697   0.28040   0.00000  Uiso   1.00
C405   C     0.49204   0.60711   0.30329   0.00000  Uiso   1.00
C406   C     0.48807   0.58358   0.34225   0.00000  Uiso   1.00
C407   C     0.52812   0.58016   0.35860   0.00000  Uiso   1.00
C408   C     0.57243   0.59982   0.33574   0.00000  Uiso   1.00
C409   C     0.42271   0.37639   0.20070   0.00000  Uiso   1.00
C410   C     0.47263   0.47514   0.45684   0.00000  Uiso   1.00
C411   C     0.42500   0.39875   0.16115   0.00000  Uiso   1.00
C412   C     0.46927   0.41604   0.13484   0.00000  Uiso   1.00
C413   C     0.51120   0.41197   0.14818   0.00000  Uiso   1.00
C414   C     0.50921   0.38967   0.18743   0.00000  Uiso   1.00
C415   C     0.46521   0.37158   0.21344   0.00000  Uiso   1.00
C416   C     0.52334   0.44406   0.31316   0.00000  Uiso   1.00
C417   C     0.50467   0.39978   0.31130   0.00000  Uiso   1.00
C418   C     0.47365   0.56218   0.19457   0.00000  Uiso   1.00
C419   C     0.51075   0.56893   0.14867   0.00000  Uiso   1.00
C420   C     0.57681   0.50543   0.02330   0.00000  Uiso   1.00
C421   C     0.42410   0.46948   0.48062   0.00000  Uiso   1.00
C422   C     0.62482   0.35406   0.26923   0.00000  Uiso   1.00
C423   C     0.37565   0.64587   0.23034   0.00000  Uiso   1.00
C424   C     0.62339   0.64465   0.27209   0.00000  Uiso   1.00
Cu425  Cu    0.38022   0.50001   0.25000   0.00000  Uiso   1.00
Cu426  Cu    0.61978   0.49999   0.25000   0.00000  Uiso   1.00
H427   H     0.60264   0.51131   0.04171   0.00000  Uiso   1.00
H428   H     0.48147   0.46777   0.42240   0.00000  Uiso   1.00
H429   H     0.59303   0.37023   0.28595   0.00000  Uiso   1.00
H430   H     0.40778   0.62979   0.21367   0.00000  Uiso   1.00
H431   H     0.43709   0.45486   0.30083   0.00000  Uiso   1.00
H432   H     0.56143   0.54939   0.20385   0.00000  Uiso   1.00
H433   H     0.53891   0.64494   0.25010   0.00000  Uiso   1.00
H434   H     0.46088   0.61000   0.29088   0.00000  Uiso   1.00
H435   H     0.45388   0.56820   0.35992   0.00000  Uiso   1.00
H436   H     0.52467   0.56248   0.38916   0.00000  Uiso   1.00
H437   H     0.60322   0.59691   0.34872   0.00000  Uiso   1.00
H438   H     0.39857   0.45894   0.46348   0.00000  Uiso   1.00
H439   H     0.39284   0.40193   0.15022   0.00000  Uiso   1.00
H440   H     0.47129   0.43193   0.10368   0.00000  Uiso   1.00
H441   H     0.54534   0.42558   0.12777   0.00000  Uiso   1.00
H442   H     0.54192   0.38593   0.19730   0.00000  Uiso   1.00
H443   H     0.46414   0.35364   0.24336   0.00000  Uiso   1.00
H444   H     0.46455   0.39721   0.32096   0.00000  Uiso   1.00
H445   H     0.51949   0.38837   0.27740   0.00000  Uiso   1.00
H446   H     0.51630   0.37957   0.33523   0.00000  Uiso   1.00
H447   H     0.56148   0.44230   0.31158   0.00000  Uiso   1.00
H448   H     0.50433   0.45563   0.34624   0.00000  Uiso   1.00
H449   H     0.44804   0.51484   0.10979   0.00000  Uiso   1.00
H450   H     0.54096   0.58996   0.15066   0.00000  Uiso   1.00
H451   H     0.52590   0.53931   0.13581   0.00000  Uiso   1.00
H452   H     0.49340   0.58336   0.12485   0.00000  Uiso   1.00
H453   H     0.43859   0.55740   0.18851   0.00000  Uiso   1.00
H454   H     0.47244   0.59106   0.21269   0.00000  Uiso   1.00
H455   H     0.55026   0.48855   0.38774   0.00000  Uiso   1.00
H456   H     0.63839   0.47463   0.11187   0.00000  Uiso   1.00
H457   H     0.36195   0.51356   0.39120   0.00000  Uiso   1.00
H458   H     0.33415   0.51672   0.47207   0.00000  Uiso   1.00
H459   H     0.33337   0.46072   0.03271   0.00000  Uiso   1.00
H460   H     0.51963   0.49975   0.08199   0.00000  Uiso   1.00
N461   N     0.45069   0.50001   0.24999   0.00000  Uiso   1.00
N462   N     0.54931   0.49999   0.25001   0.00000  Uiso   1.00
O463   O     0.37291   0.43989   0.25000   0.00000  Uiso   1.00
O464   O     0.62709   0.56011   0.25000   0.00000  Uiso   1.00
O465   O     0.62706   0.43988   0.25000   0.00000  Uiso   1.00
O466   O     0.37294   0.56012   0.25000   0.00000  Uiso   1.00
O467   O     0.35186   0.50001   0.31492   0.00000  Uiso   1.00
O468   O     0.64814   0.49999   0.18508   0.00000  Uiso   1.00
O469   O     0.60600   0.50000   0.31492   0.00000  Uiso   1.00
O470   O     0.39400   0.50000   0.18508   0.00000  Uiso   1.00
C471   C     0.66694   0.42091   0.24838   0.00000  Uiso   1.00
C472   C     0.71014   0.35529   0.22702   0.00000  Uiso   1.00
C473   C     0.99960   0.62372   0.25240   0.00000  Uiso   1.00
C474   C     0.66738   0.37624   0.24707   0.00000  Uiso   1.00
C475   C     0.84731   0.47316   0.27802   0.00000  Uiso   1.00
C476   C     0.81900   0.52756   0.22282   0.00000  Uiso   1.00
C477   C     0.79811   0.47419   0.27789   0.00000  Uiso   1.00
C478   C     0.86803   0.52727   0.22373   0.00000  Uiso   1.00
C479   C     0.97246   0.50004   0.33578   0.00000  Uiso   1.00
C480   C     0.69414   0.49939   0.16426   0.00000  Uiso   1.00
C481   C     0.95707   0.50027   0.38451   0.00000  Uiso   1.00
C482   C     0.99987   0.57909   0.25130   0.00000  Uiso   1.00
C483   C     0.70917   0.49478   0.11598   0.00000  Uiso   1.00
C484   C     0.97460   0.50980   0.45435   0.00000  Uiso   1.00
C485   C     0.69251   0.47217   0.04905   0.00000  Uiso   1.00
C486   C     0.99046   0.50805   0.40825   0.00000  Uiso   1.00
C487   C     0.67633   0.48035   0.09408   0.00000  Uiso   1.00
C488   C     0.90804   0.49339   0.40731   0.00000  Uiso   1.00
C489   C     0.75789   0.50153   0.09235   0.00000  Uiso   1.00
C490   C     0.89109   0.49437   0.45387   0.00000  Uiso   1.00
C491   C     0.77561   0.49106   0.04762   0.00000  Uiso   1.00
C492   C     0.92532   0.50328   0.47726   0.00000  Uiso   1.00
C493   C     0.86150   0.50023   0.04641   0.00000  Uiso   1.00
C494   C     0.74176   0.47764   0.02562   0.00000  Uiso   1.00
C495   C     0.84110   0.48791   0.47769   0.00000  Uiso   1.00
C496   C     0.82589   0.49363   0.02428   0.00000  Uiso   1.00
C497   C     0.91010   0.62331   0.29638   0.00000  Uiso   1.00
C498   C     0.86953   0.62697   0.28040   0.00000  Uiso   1.00
C499   C     0.82538   0.60711   0.30329   0.00000  Uiso   1.00
C500   C     0.82140   0.58358   0.34225   0.00000  Uiso   1.00
C501   C     0.86145   0.58016   0.35860   0.00000  Uiso   1.00
C502   C     0.90577   0.59982   0.33574   0.00000  Uiso   1.00
C503   C     0.75604   0.37639   0.20070   0.00000  Uiso   1.00
C504   C     0.80597   0.47514   0.45684   0.00000  Uiso   1.00
C505   C     0.75833   0.39875   0.16115   0.00000  Uiso   1.00
C506   C     0.80260   0.41604   0.13484   0.00000  Uiso   1.00
C507   C     0.84453   0.41197   0.14818   0.00000  Uiso   1.00
C508   C     0.84254   0.38967   0.18743   0.00000  Uiso   1.00
C509   C     0.79855   0.37158   0.21344   0.00000  Uiso   1.00
C510   C     0.85667   0.44406   0.31316   0.00000  Uiso   1.00
C511   C     0.83801   0.39978   0.31130   0.00000  Uiso   1.00
C512   C     0.80698   0.56218   0.19457   0.00000  Uiso   1.00
C513   C     0.84408   0.56893   0.14867   0.00000  Uiso   1.00
C514   C     0.91014   0.50543   0.02330   0.00000  Uiso   1.00
C515   C     0.75743   0.46948   0.48062   0.00000  Uiso   1.00
C516   C     0.95816   0.35406   0.26923   0.00000  Uiso   1.00
C517   C     0.70898   0.64587   0.23034   0.00000  Uiso   1.00
C518   C     0.95672   0.64465   0.27209   0.00000  Uiso   1.00
Cu519  Cu    0.71355   0.50001   0.25000   0.00000  Uiso   1.00
Cu520  Cu    0.95311   0.49999   0.25000   0.00000  Uiso   1.00
H521   H     0.93598   0.51131   0.04171   0.00000  Uiso   1.00
H522   H     0.81481   0.46777   0.42240   0.00000  Uiso   1.00
H523   H     0.92637   0.37023   0.28595   0.00000  Uiso   1.00
H524   H     0.74112   0.62979   0.21367   0.00000  Uiso   1.00
H525   H     0.77042   0.45486   0.30083   0.00000  Uiso   1.00
H526   H     0.89476   0.54939   0.20385   0.00000  Uiso   1.00
H527   H     0.87224   0.64494   0.25010   0.00000  Uiso   1.00
H528   H     0.79421   0.61000   0.29088   0.00000  Uiso   1.00
H529   H     0.78722   0.56820   0.35992   0.00000  Uiso   1.00
H530   H     0.85800   0.56248   0.38916   0.00000  Uiso   1.00
H531   H     0.93656   0.59691   0.34872   0.00000  Uiso   1.00
H532   H     0.73191   0.45894   0.46348   0.00000  Uiso   1.00
H533   H     0.72618   0.40193   0.15022   0.00000  Uiso   1.00
H534   H     0.80462   0.43193   0.10368   0.00000  Uiso   1.00
H535   H     0.87868   0.42558   0.12777   0.00000  Uiso   1.00
H536   H     0.87525   0.38593   0.19730   0.00000  Uiso   1.00
H537   H     0.79748   0.35364   0.24336   0.00000  Uiso   1.00
H538   H     0.79788   0.39721   0.32096   0.00000  Uiso   1.00
H539   H     0.85283   0.38837   0.27740   0.00000  Uiso   1.00
H540   H     0.84963   0.37957   0.33523   0.00000  Uiso   1.00
H541   H     0.89482   0.44230   0.31158   0.00000  Uiso   1.00
H542   H     0.83766   0.45563   0.34624   0.00000  Uiso   1.00
H543   H     0.78137   0.51484   0.10979   0.00000  Uiso   1.00
H544   H     0.87429   0.58996   0.15066   0.00000  Uiso   1.00
H545   H     0.85923   0.53931   0.13581   0.00000  Uiso   1.00
H546   H     0.82674   0.58336   0.12485   0.00000  Uiso   1.00
H547   H     0.77193   0.55740   0.18851   0.00000  Uiso   1.00
H548   H     0.80577   0.59106   0.21269   0.00000  Uiso   1.00
H549   H     0.88360   0.48855   0.38774   0.00000  Uiso   1.00
H550   H     0.97173   0.47463   0.11187   0.00000  Uiso   1.00
H551   H     0.69529   0.51356   0.39120   0.00000  Uiso   1.00
H552   H     0.66748   0.51672   0.47207   0.00000  Uiso   1.00
H553   H     0.66671   0.46072   0.03271   0.00000  Uiso   1.00
H554   H     0.85296   0.49975   0.08199   0.00000  Uiso   1.00
N555   N     0.78403   0.50001   0.24999   0.00000  Uiso   1.00
N556   N     0.88264   0.49999   0.25001   0.00000  Uiso   1.00
O557   O     0.70625   0.43989   0.25000   0.00000  Uiso   1.00
O558   O     0.96042   0.56011   0.25000   0.00000  Uiso   1.00
O559   O     0.96039   0.43988   0.25000   0.00000  Uiso   1.00
O560   O     0.70628   0.56012   0.25000   0.00000  Uiso   1.00
O561   O     0.68519   0.50001   0.31492   0.00000  Uiso   1.00
O562   O     0.98148   0.49999   0.18508   0.00000  Uiso   1.00
O563   O     0.93933   0.50000   0.31492   0.00000  Uiso   1.00
O564   O     0.72733   0.50000   0.18508   0.00000  Uiso   1.00
C565   C     0.00027   0.75424   0.24838   0.00000  Uiso   1.00
C566   C     0.04347   0.68863   0.22702   0.00000  Uiso   1.00
C567   C     0.33293   0.95706   0.25240   0.00000  Uiso   1.00
C568   C     0.00071   0.70957   0.24707   0.00000  Uiso   1.00
C569   C     0.18065   0.80650   0.27802   0.00000  Uiso   1.00
C570   C     0.15234   0.86090   0.22282   0.00000  Uiso   1.00
C571   C     0.13145   0.80753   0.27789   0.00000  Uiso   1.00
C572   C     0.20137   0.86060   0.22373   0.00000  Uiso   1.00
C573   C     0.30579   0.83337   0.33578   0.00000  Uiso   1.00
C574   C     0.02748   0.83273   0.16426   0.00000  Uiso   1.00
C575   C     0.29040   0.83361   0.38451   0.00000  Uiso   1.00
C576   C     0.33320   0.91243   0.25130   0.00000  Uiso   1.00
C577   C     0.04250   0.82811   0.11598   0.00000  Uiso   1.00
C578   C     0.30793   0.84313   0.45435   0.00000  Uiso   1.00
C579   C     0.02584   0.80550   0.04905   0.00000  Uiso   1.00
C580   C     0.32379   0.84139   0.40825   0.00000  Uiso   1.00
C581   C     0.00966   0.81369   0.09408   0.00000  Uiso   1.00
C582   C     0.24138   0.82672   0.40731   0.00000  Uiso   1.00
C583   C     0.09122   0.83487   0.09235   0.00000  Uiso   1.00
C584   C     0.22443   0.82771   0.45387   0.00000  Uiso   1.00
C585   C     0.10894   0.82439   0.04762   0.00000  Uiso   1.00
C586   C     0.25866   0.83662   0.47726   0.00000  Uiso   1.00
C587   C     0.19483   0.83357   0.04641   0.00000  Uiso   1.00
C588   C     0.07509   0.81097   0.02562   0.00000  Uiso   1.00
C589   C     0.17444   0.82125   0.47769   0.00000  Uiso   1.00
C590   C     0.15922   0.82697   0.02428   0.00000  Uiso   1.00
C591   C     0.24343   0.95664   0.29638   0.00000  Uiso   1.00
C592   C     0.20286   0.96031   0.28040   0.00000  Uiso   1.00
C593   C     0.15871   0.94045   0.30329   0.00000  Uiso   1.00
C594   C     0.15474   0.91691   0.34225   0.00000  Uiso   1.00
C595   C     0.19479   0.91349   0.35860   0.00000  Uiso   1.00
C596   C     0.23910   0.93316   0.33574   0.00000  Uiso   1.00
C597   C     0.08937   0.70972   0.20070   0.00000  Uiso   1.00
C598   C     0.13930   0.80847   0.45684   0.00000  Uiso   1.00
C599   C     0.09166   0.73208   0.16115   0.00000  Uiso   1.00
C600   C     0.13593   0.74938   0.13484   0.00000  Uiso   1.00
C601   C     0.17787   0.74531   0.14818   0.00000  Uiso   1.00
C602   C     0.17588   0.72300   0.18743   0.00000  Uiso   1.00
C603   C     0.13188   0.70491   0.21344   0.00000  Uiso   1.00
C604   C     0.19001   0.77739   0.31316   0.00000  Uiso   1.00
C605   C     0.17134   0.73311   0.31130   0.00000  Uiso   1.00
C606   C     0.14032   0.89551   0.19457   0.00000  Uiso   1.00
C607   C     0.17741   0.90227   0.14867   0.00000  Uiso   1.00
C608   C     0.24347   0.83876   0.02330   0.00000  Uiso   1.00
C609   C     0.09076   0.80282   0.48062   0.00000  Uiso   1.00
C610   C     0.29149   0.68740   0.26923   0.00000  Uiso   1.00
C611   C     0.04231   0.97920   0.23034   0.00000  Uiso   1.00
C612   C     0.29006   0.97799   0.27209   0.00000  Uiso   1.00
Cu613  Cu    0.04689   0.83334   0.25000   0.00000  Uiso   1.00
Cu614  Cu    0.28645   0.83333   0.25000   0.00000  Uiso   1.00
H615   H     0.26931   0.84464   0.04171   0.00000  Uiso   1.00
H616   H     0.14814   0.80110   0.42240   0.00000  Uiso   1.00
H617   H     0.25970   0.70356   0.28595   0.00000  Uiso   1.00
H618   H     0.07445   0.96313   0.21367   0.00000  Uiso   1.00
H619   H     0.10375   0.78820   0.30083   0.00000  Uiso   1.00
H620   H     0.22810   0.88272   0.20385   0.00000  Uiso   1.00
H621   H     0.20558   0.97827   0.25010   0.00000  Uiso   1.00
H622   H     0.12755   0.94334   0.29088   0.00000  Uiso   1.00
H623   H     0.12055   0.90153   0.35992   0.00000  Uiso   1.00
H624   H     0.19133   0.89582   0.38916   0.00000  Uiso   1.00
H625   H     0.26989   0.93024   0.34872   0.00000  Uiso   1.00
H626   H     0.06524   0.79227   0.46348   0.00000  Uiso   1.00
H627   H     0.05951   0.73527   0.15022   0.00000  Uiso   1.00
H628   H     0.13795   0.76527   0.10368   0.00000  Uiso   1.00
H629   H     0.21201   0.75891   0.12777   0.00000  Uiso   1.00
H630   H     0.20858   0.71926   0.19730   0.00000  Uiso   1.00
H631   H     0.13081   0.68697   0.24336   0.00000  Uiso   1.00
H632   H     0.13122   0.73055   0.32096   0.00000  Uiso   1.00
H633   H     0.18616   0.72170   0.27740   0.00000  Uiso   1.00
H634   H     0.18296   0.71290   0.33523   0.00000  Uiso   1.00
H635   H     0.22815   0.77563   0.31158   0.00000  Uiso   1.00
H636   H     0.17100   0.78896   0.34624   0.00000  Uiso   1.00
H637   H     0.11470   0.84818   0.10979   0.00000  Uiso   1.00
H638   H     0.20762   0.92330   0.15066   0.00000  Uiso   1.00
H639   H     0.19257   0.87264   0.13581   0.00000  Uiso   1.00
H640   H     0.16007   0.91670   0.12485   0.00000  Uiso   1.00
H641   H     0.10526   0.89073   0.18851   0.00000  Uiso   1.00
H642   H     0.13910   0.92439   0.21269   0.00000  Uiso   1.00
H643   H     0.21693   0.82188   0.38774   0.00000  Uiso   1.00
H644   H     0.30506   0.80796   0.11187   0.00000  Uiso   1.00
H645   H     0.02862   0.84689   0.39120   0.00000  Uiso   1.00
H646   H     0.00082   0.85005   0.47207   0.00000  Uiso   1.00
H647   H     0.00004   0.79405   0.03271   0.00000  Uiso   1.00
H648   H     0.18629   0.83308   0.08199   0.00000  Uiso   1.00
N649   N     0.11736   0.83334   0.24999   0.00000  Uiso   1.00
N650   N     0.21597   0.83332   0.25001   0.00000  Uiso   1.00
O651   O     0.03958   0.77322   0.25000   0.00000  Uiso   1.00
O652   O     0.29375   0.89345   0.25000   0.00000  Uiso   1.00
O653   O     0.29372   0.77321   0.25000   0.00000  Uiso   1.00
O654   O     0.03961   0.89346   0.25000   0.00000  Uiso   1.00
O655   O     0.01852   0.83334   0.31492   0.00000  Uiso   1.00
O656   O     0.31481   0.83332   0.18508   0.00000  Uiso   1.00
O657   O     0.27267   0.83333   0.31492   0.00000  Uiso   1.00
O658   O     0.06067   0.83333   0.18508   0.00000  Uiso   1.00
C659   C     0.33360   0.75424   0.24838   0.00000  Uiso   1.00
C660   C     0.37680   0.68863   0.22702   0.00000  Uiso   1.00
C661   C     0.66627   0.95706   0.25240   0.00000  Uiso   1.00
C662   C     0.33404   0.70957   0.24707   0.00000  Uiso   1.00
C663   C     0.51398   0.80650   0.27802   0.00000  Uiso   1.00
C664   C     0.48567   0.86090   0.22282   0.00000  Uiso   1.00
C665   C     0.46478   0.80753   0.27789   0.00000  Uiso   1.00
C666   C     0.53470   0.86060   0.22373   0.00000  Uiso   1.00
C667   C     0.63912   0.83337   0.33578   0.00000  Uiso   1.00
C668   C     0.36081   0.83273   0.16426   0.00000  Uiso   1.00
C669   C     0.62374   0.83361   0.38451   0.00000  Uiso   1.00
C670   C     0.66653   0.91243   0.25130   0.00000  Uiso   1.00
C671   C     0.37583   0.82811   0.11598   0.00000  Uiso   1.00
C672   C     0.64127   0.84313   0.45435   0.00000  Uiso   1.00
C673   C     0.35918   0.80550   0.04905   0.00000  Uiso   1.00
C674   C     0.65712   0.84139   0.40825   0.00000  Uiso   1.00
C675   C     0.34299   0.81369   0.09408   0.00000  Uiso   1.00
C676   C     0.57471   0.82672   0.40731   0.00000  Uiso   1.00
C677   C     0.42456   0.83487   0.09235   0.00000  Uiso   1.00
C678   C     0.55776   0.82771   0.45387   0.00000  Uiso   1.00
C679   C     0.44227   0.82439   0.04762   0.00000  Uiso   1.00
C680   C     0.59199   0.83662   0.47726   0.00000  Uiso   1.00
C681   C     0.52816   0.83357   0.04641   0.00000  Uiso   1.00
C682   C     0.40843   0.81097   0.02562   0.00000  Uiso   1.00
C683   C     0.50777   0.82125   0.47769   0.00000  Uiso   1.00
C684   C     0.49256   0.82697   0.02428   0.00000  Uiso   1.00
C685   C     0.57677   0.95664   0.29638   0.00000  Uiso   1.00
C686   C     0.53619   0.96031   0.28040   0.00000  Uiso   1.00
C687   C     0.49204   0.94045   0.30329   0.00000  Uiso   1.00
C688   C     0.48807   0.91691   0.34225   0.00000  Uiso   1.00
C689   C     0.52812   0.91349   0.35860   0.00000  Uiso   1.00
C690   C     0.57243   0.93316   0.33574   0.00000  Uiso   1.00
C691   C     0.42271   0.70972   0.20070   0.00000  Uiso   1.00
C692   C     0.47263   0.80847   0.45684   0.00000  Uiso   1.00
C693   C     0.42500   0.73208   0.16115   0.00000  Uiso   1.00
C694   C     0.46927   0.74938   0.13484   0.00000  Uiso   1.00
C695   C     0.51120   0.74531   0.14818   0.00000  Uiso   1.00
C696   C     0.50921   0.72300   0.18743   0.00000  Uiso   1.00
C697   C     0.46521   0.70491   0.21344   0.00000  Uiso   1.00
C698   C     0.52334   0.77739   0.31316   0.00000  Uiso   1.00
C699   C     0.50467   0.73311   0.31130   0.00000  Uiso   1.00
C700   C     0.47365   0.89551   0.19457   0.00000  Uiso   1.00
C701   C     0.51075   0.90227   0.14867   0.00000  Uiso   1.00
C702   C     0.57681   0.83876   0.02330   0.00000  Uiso   1.00
C703   C     0.42410   0.80282   0.48062   0.00000  Uiso   1.00
C704   C     0.62482   0.68740   0.26923   0.00000  Uiso   1.00
C705   C     0.37565   0.97920   0.23034   0.00000  Uiso   1.00
C706   C     0.62339   0.97799   0.27209   0.00000  Uiso   1.00
Cu707  Cu    0.38022   0.83334   0.25000   0.00000  Uiso   1.00
Cu708  Cu    0.61978   0.83333   0.25000   0.00000  Uiso   1.00
H709   H     0.60264   0.84464   0.04171   0.00000  Uiso   1.00
H710   H     0.48147   0.80110   0.42240   0.00000  Uiso   1.00
H711   H     0.59303   0.70356   0.28595   0.00000  Uiso   1.00
H712   H     0.40778   0.96313   0.21367   0.00000  Uiso   1.00
H713   H     0.43709   0.78820   0.30083   0.00000  Uiso   1.00
H714   H     0.56143   0.88272   0.20385   0.00000  Uiso   1.00
H715   H     0.53891   0.97827   0.25010   0.00000  Uiso   1.00
H716   H     0.46088   0.94334   0.29088   0.00000  Uiso   1.00
H717   H     0.45388   0.90153   0.35992   0.00000  Uiso   1.00
H718   H     0.52467   0.89582   0.38916   0.00000  Uiso   1.00
H719   H     0.60322   0.93024   0.34872   0.00000  Uiso   1.00
H720   H     0.39857   0.79227   0.46348   0.00000  Uiso   1.00
H721   H     0.39284   0.73527   0.15022   0.00000  Uiso   1.00
H722   H     0.47129   0.76527   0.10368   0.00000  Uiso   1.00
H723   H     0.54534   0.75891   0.12777   0.00000  Uiso   1.00
H724   H     0.54192   0.71926   0.19730   0.00000  Uiso   1.00
H725   H     0.46414   0.68697   0.24336   0.00000  Uiso   1.00
H726   H     0.46455   0.73055   0.32096   0.00000  Uiso   1.00
H727   H     0.51949   0.72170   0.27740   0.00000  Uiso   1.00
H728   H     0.51630   0.71290   0.33523   0.00000  Uiso   1.00
H729   H     0.56148   0.77563   0.31158   0.00000  Uiso   1.00
H730   H     0.50433   0.78896   0.34624   0.00000  Uiso   1.00
H731   H     0.44804   0.84818   0.10979   0.00000  Uiso   1.00
H732   H     0.54096   0.92330   0.15066   0.00000  Uiso   1.00
H733   H     0.52590   0.87264   0.13581   0.00000  Uiso   1.00
H734   H     0.49340   0.91670   0.12485   0.00000  Uiso   1.00
H735   H     0.43859   0.89073   0.18851   0.00000  Uiso   1.00
H736   H     0.47244   0.92439   0.21269   0.00000  Uiso   1.00
H737   H     0.55026   0.82188   0.38774   0.00000  Uiso   1.00
H738   H     0.63839   0.80796   0.11187   0.00000  Uiso   1.00
H739   H     0.36195   0.84689   0.39120   0.00000  Uiso   1.00
H740   H     0.33415   0.85005   0.47207   0.00000  Uiso   1.00
H741   H     0.33337   0.79405   0.03271   0.00000  Uiso   1.00
H742   H     0.51963   0.83308   0.08199   0.00000  Uiso   1.00
N743   N     0.45069   0.83334   0.24999   0.00000  Uiso   1.00
N744   N     0.54931   0.83332   0.25001   0.00000  Uiso   1.00
O745   O     0.37291   0.77322   0.25000   0.00000  Uiso   1.00
O746   O     0.62709   0.89345   0.25000   0.00000  Uiso   1.00
O747   O     0.62706   0.77321   0.25000   0.00000  Uiso   1.00
O748   O     0.37294   0.89346   0.25000   0.00000  Uiso   1.00
O749   O     0.35186   0.83334   0.31492   0.00000  Uiso   1.00
O750   O     0.64814   0.83332   0.18508   0.00000  Uiso   1.00
O751   O     0.60600   0.83333   0.31492   0.00000  Uiso   1.00
O752   O     0.39400   0.83333   0.18508   0.00000  Uiso   1.00
C753   C     0.66694   0.75424   0.24838   0.00000  Uiso   1.00
C754   C     0.71014   0.68863   0.22702   0.00000  Uiso   1.00
C755   C     0.99960   0.95706   0.25240   0.00000  Uiso   1.00
C756   C     0.66738   0.70957   0.24707   0.00000  Uiso   1.00
C757   C     0.84731   0.80650   0.27802   0.00000  Uiso   1.00
C758   C     0.81900   0.86090   0.22282   0.00000  Uiso   1.00
C759   C     0.79811   0.80753   0.27789   0.00000  Uiso   1.00
C760   C     0.86803   0.86060   0.22373   0.00000  Uiso   1.00
C761   C     0.97246   0.83337   0.33578   0.00000  Uiso   1.00
C762   C     0.69414   0.83273   0.16426   0.00000  Uiso   1.00
C763   C     0.95707   0.83361   0.38451   0.00000  Uiso   1.00
C764   C     0.99987   0.91243   0.25130   0.00000  Uiso   1.00
C765   C     0.70917   0.82811   0.11598   0.00000  Uiso   1.00
C766   C     0.97460   0.84313   0.45435   0.00000  Uiso   1.00
C767   C     0.69251   0.80550   0.04905   0.00000  Uiso   1.00
C768   C     0.99046   0.84139   0.40825   0.00000  Uiso   1.00
C769   C     0.67633   0.81369   0.09408   0.00000  Uiso   1.00
C770   C     0.90804   0.82672   0.40731   0.00000  Uiso   1.00
C771   C     0.75789   0.83487   0.09235   0.00000  Uiso   1.00
C772   C     0.89109   0.82771   0.45387   0.00000  Uiso   1.00
C773   C     0.77561   0.82439   0.04762   0.00000  Uiso   1.00
C774   C     0.92532   0.83662   0.47726   0.00000  Uiso   1.00
C775   C     0.86150   0.83357   0.04641   0.00000  Uiso   1.00
C776   C     0.74176   0.81097   0.02562   0.00000  Uiso   1.00
C777   C     0.84110   0.82125   0.47769   0.00000  Uiso   1.00
C778   C     0.82589   0.82697   0.02428   0.00000  Uiso   1.00
C779   C     0.91010   0.95664   0.29638   0.00000  Uiso   1.00
C780   C     0.86953   0.96031   0.28040   0.00000  Uiso   1.00
C781   C     0.82538   0.94045   0.30329   0.00000  Uiso   1.00
C782   C     0.82140   0.91691   0.34225   0.00000  Uiso   1.00
C783   C     0.86145   0.91349   0.35860   0.00000  Uiso   1.00
C784   C     0.90577   0.93316   0.33574   0.00000  Uiso   1.00
C785   C     0.75604   0.70972   0.20070   0.00000  Uiso   1.00
C786   C     0.80597   0.80847   0.45684   0.00000  Uiso   1.00
C787   C     0.75833   0.73208   0.16115   0.00000  Uiso   1.00
C788   C     0.80260   0.74938   0.13484   0.00000  Uiso   1.00
C789   C     0.84453   0.74531   0.14818   0.00000  Uiso   1.00
C790   C     0.84254   0.72300   0.18743   0.00000  Uiso   1.00
C791   C     0.79855   0.70491   0.21344   0.00000  Uiso   1.00
C792   C     0.85667   0.77739   0.31316   0.00000  Uiso   1.00
C793   C     0.83801   0.73311   0.31130   0.00000  Uiso   1.00
C794   C     0.80698   0.89551   0.19457   0.00000  Uiso   1.00
C795   C     0.84408   0.90227   0.14867   0.00000  Uiso   1.00
C796   C     0.91014   0.83876   0.02330   0.00000  Uiso   1.00
C797   C     0.75743   0.80282   0.48062   0.00000  Uiso   1.00
C798   C     0.95816   0.68740   0.26923   0.00000  Uiso   1.00
C799   C     0.70898   0.97920   0.23034   0.00000  Uiso   1.00
C800   C     0.95672   0.97799   0.27209   0.00000  Uiso   1.00
Cu801  Cu    0.71355   0.83334   0.25000   0.00000  Uiso   1.00
Cu802  Cu    0.95311   0.83333   0.25000   0.00000  Uiso   1.00
H803   H     0.93598   0.84464   0.04171   0.00000  Uiso   1.00
H804   H     0.81481   0.80110   0.42240   0.00000  Uiso   1.00
H805   H     0.92637   0.70356   0.28595   0.00000  Uiso   1.00
H806   H     0.74112   0.96313   0.21367   0.00000  Uiso   1.00
H807   H     0.77042   0.78820   0.30083   0.00000  Uiso   1.00
H808   H     0.89476   0.88272   0.20385   0.00000  Uiso   1.00
H809   H     0.87224   0.97827   0.25010   0.00000  Uiso   1.00
H810   H     0.79421   0.94334   0.29088   0.00000  Uiso   1.00
H811   H     0.78722   0.90153   0.35992   0.00000  Uiso   1.00
H812   H     0.85800   0.89582   0.38916   0.00000  Uiso   1.00
H813   H     0.93656   0.93024   0.34872   0.00000  Uiso   1.00
H814   H     0.73191   0.79227   0.46348   0.00000  Uiso   1.00
H815   H     0.72618   0.73527   0.15022   0.00000  Uiso   1.00
H816   H     0.80462   0.76527   0.10368   0.00000  Uiso   1.00
H817   H     0.87868   0.75891   0.12777   0.00000  Uiso   1.00
H818   H     0.87525   0.71926   0.19730   0.00000  Uiso   1.00
H819   H     0.79748   0.68697   0.24336   0.00000  Uiso   1.00
H820   H     0.79788   0.73055   0.32096   0.00000  Uiso   1.00
H821   H     0.85283   0.72170   0.27740   0.00000  Uiso   1.00
H822   H     0.84963   0.71290   0.33523   0.00000  Uiso   1.00
H823   H     0.89482   0.77563   0.31158   0.00000  Uiso   1.00
H824   H     0.83766   0.78896   0.34624   0.00000  Uiso   1.00
H825   H     0.78137   0.84818   0.10979   0.00000  Uiso   1.00
H826   H     0.87429   0.92330   0.15066   0.00000  Uiso   1.00
H827   H     0.85923   0.87264   0.13581   0.00000  Uiso   1.00
H828   H     0.82674   0.91670   0.12485   0.00000  Uiso   1.00
H829   H     0.77193   0.89073   0.18851   0.00000  Uiso   1.00
H830   H     0.80577   0.92439   0.21269   0.00000  Uiso   1.00
H831   H     0.88360   0.82188   0.38774   0.00000  Uiso   1.00
H832   H     0.97173   0.80796   0.11187   0.00000  Uiso   1.00
H833   H     0.69529   0.84689   0.39120   0.00000  Uiso   1.00
H834   H     0.66748   0.85005   0.47207   0.00000  Uiso   1.00
H835   H     0.66671   0.79405   0.03271   0.00000  Uiso   1.00
H836   H     0.85296   0.83308   0.08199   0.00000  Uiso   1.00
N837   N     0.78403   0.83334   0.24999   0.00000  Uiso   1.00
N838   N     0.88264   0.83332   0.25001   0.00000  Uiso   1.00
O839   O     0.70625   0.77322   0.25000   0.00000  Uiso   1.00
O840   O     0.96042   0.89345   0.25000   0.00000  Uiso   1.00
O841   O     0.96039   0.77321   0.25000   0.00000  Uiso   1.00
O842   O     0.70628   0.89346   0.25000   0.00000  Uiso   1.00
O843   O     0.68519   0.83334   0.31492   0.00000  Uiso   1.00
O844   O     0.98148   0.83332   0.18508   0.00000  Uiso   1.00
O845   O     0.93933   0.83333   0.31492   0.00000  Uiso   1.00
O846   O     0.72733   0.83333   0.18508   0.00000  Uiso   1.00
C847   C     0.00027   0.08757   0.74838   0.00000  Uiso   1.00
C848   C     0.04347   0.02196   0.72702   0.00000  Uiso   1.00
C849   C     0.33293   0.29039   0.75240   0.00000  Uiso   1.00
C850   C     0.00071   0.04291   0.74707   0.00000  Uiso   1.00
C851   C     0.18065   0.13983   0.77802   0.00000  Uiso   1.00
C852   C     0.15234   0.19423   0.72282   0.00000  Uiso   1.00
C853   C     0.13145   0.14086   0.77789   0.00000  Uiso   1.00
C854   C     0.20137   0.19393   0.72373   0.00000  Uiso   1.00
C855   C     0.30579   0.16671   0.83578   0.00000  Uiso   1.00
C856   C     0.02748   0.16606   0.66426   0.00000  Uiso   1.00
C857   C     0.29040   0.16694   0.88451   0.00000  Uiso   1.00
C858   C     0.33320   0.24576   0.75130   0.00000  Uiso   1.00
C859   C     0.04250   0.16144   0.61598   0.00000  Uiso   1.00
C860   C     0.30793   0.17647   0.95435   0.00000  Uiso   1.00
C861   C     0.02584   0.13883   0.54905   0.00000  Uiso   1.00
C862   C     0.32379   0.17472   0.90825   0.00000  Uiso   1.00
C863   C     0.00966   0.14702   0.59408   0.00000  Uiso   1.00
C864   C     0.24138   0.16005   0.90731   0.00000  Uiso   1.00
C865   C     0.09122   0.16820   0.59235   0.00000  Uiso   1.00
C866   C     0.22443   0.16104   0.95387   0.00000  Uiso   1.00
C867   C     0.10894   0.15773   0.54762   0.00000  Uiso   1.00
C868   C     0.25866   0.16995   0.97726   0.00000  Uiso   1.00
C869   C     0.19483   0.16690   0.54641   0.00000  Uiso   1.00
C870   C     0.07509   0.14431   0.52562   0.00000  Uiso   1.00
C871   C     0.17444   0.15458   0.97769   0.00000  Uiso   1.00
C872   C     0.15922   0.16030   0.52428   0.00000  Uiso   1.00
C873   C     0.24343   0.28998   0.79638   0.00000  Uiso   1.00
C874   C     0.20286   0.29364   0.78040   0.00000  Uiso   1.00
C875   C     0.15871   0.27378   0.80329   0.00000  Uiso   1.00
C876   C     0.15474   0.25025   0.84225   0.00000  Uiso   1.00
C877   C     0.19479   0.24682   0.85860   0.00000  Uiso   1.00
C878   C     0.23910   0.26649   0.83574   0.00000  Uiso   1.00
C879   C     0.08937   0.04305   0.70070   0.00000  Uiso   1.00
C880   C     0.13930   0.14180   0.95684   0.00000  Uiso   1.00
C881   C     0.09166   0.06542   0.66115   0.00000  Uiso   1.00
C882   C     0.13593   0.08271   0.63484   0.00000  Uiso   1.00
C883   C     0.17787   0.07864   0.64818   0.00000  Uiso   1.00
C884   C     0.17588   0.05633   0.68743   0.00000  Uiso   1.00
C885   C     0.13188   0.03825   0.71344   0.00000  Uiso   1.00
C886   C     0.19001   0.11073   0.81316   0.00000  Uiso   1.00
C887   C     0.17134   0.06644   0.81130   0.00000  Uiso   1.00
C888   C     0.14032   0.22884   0.69457   0.00000  Uiso   1.00
C889   C     0.17741   0.23560   0.64867   0.00000  Uiso   1.00
C890   C     0.24347   0.17209   0.52330   0.00000  Uiso   1.00
C891   C     0.09076   0.13615   0.98062   0.00000  Uiso   1.00
C892   C     0.29149   0.02073   0.76923   0.00000  Uiso   1.00
C893   C     0.04231   0.31253   0.73034   0.00000  Uiso   1.00
C894   C     0.29006   0.31132   0.77209   0.00000  Uiso   1.00
Cu895  Cu    0.04689   0.16667   0.75000   0.00000  Uiso   1.00
Cu896  Cu    0.28645   0.16666   0.75000   0.00000  Uiso   1.00
H897   H     0.26931   0.17798   0.54171   0.00000  Uiso   1.00
H898   H     0.14814   0.13444   0.92240   0.00000  Uiso   1.00
H899   H     0.25970   0.03690   0.78595   0.00000  Uiso   1.00
H900   H     0.07445   0.29646   0.71367   0.00000  Uiso   1.00
H901   H     0.10375   0.12153   0.80083   0.00000  Uiso   1.00
H902   H     0.22810   0.21605   0.70385   0.00000  Uiso   1.00
H903   H     0.20558   0.31161   0.75010   0.00000  Uiso   1.00
H904   H     0.12755   0.27667   0.79088   0.00000  Uiso   1.00
H905   H     0.12055   0.23486   0.85992   0.00000  Uiso   1.00
H906   H     0.19133   0.22915   0.88916   0.00000  Uiso   1.00
H907   H     0.26989   0.26358   0.84872   0.00000  Uiso   1.00
H908   H     0.06524   0.12561   0.96348   0.00000  Uiso   1.00
H909   H     0.05951   0.06860   0.65022   0.00000  Uiso   1.00
H910   H     0.13795   0.09860   0.60368   0.00000  Uiso   1.00
H911   H     0.21201   0.09224   0.62777   0.00000  Uiso   1.00
H912   H     0.20858   0.05260   0.69730   0.00000  Uiso   1.00
H913   H     0.13081   0.02031   0.74336   0.00000  Uiso   1.00
H914   H     0.13122   0.06388   0.82096   0.00000  Uiso   1.00
H915   H     0.18616   0.05503   0.77740   0.00000  Uiso   1.00
H916   H     0.18296   0.04624   0.83523   0.00000  Uiso   1.00
H917   H     0.22815   0.10896   0.81158   0.00000  Uiso   1.00
H918   H     0.17100   0.12229   0.84624   0.00000  Uiso   1.00
H919   H     0.11470   0.18151   0.60979   0.00000  Uiso   1.00
H920   H     0.20762   0.25663   0.65066   0.00000  Uiso   1.00
H921   H     0.19257   0.20597   0.63581   0.00000  Uiso   1.00
H922   H     0.16007   0.25003   0.62485   0.00000  Uiso   1.00
H923   H     0.10526   0.22407   0.68851   0.00000  Uiso   1.00
H924   H     0.13910   0.25773   0.71269   0.00000  Uiso   1.00
H925   H     0.21693   0.15522   0.88774   0.00000  Uiso   1.00
H926   H     0.30506   0.14129   0.61187   0.00000  Uiso   1.00
H927   H     0.02862   0.18022   0.89120   0.00000  Uiso   1.00
H928   H     0.00082   0.18338   0.97207   0.00000  Uiso   1.00
H929   H     0.00004   0.12738   0.53271   0.00000  Uiso   1.00
H930   H     0.18629   0.16641   0.58199   0.00000  Uiso   1.00
N931   N     0.11736   0.16668   0.74999   0.00000  Uiso   1.00
N932   N     0.21597   0.16666   0.75001   0.00000  Uiso   1.00
O933   O     0.03958   0.10655   0.75000   0.00000  Uiso   1.00
O934   O     0.29375   0.22678   0.75000   0.00000  Uiso   1.00
O935   O     0.29372   0.10654   0.75000   0.00000  Uiso   1.00
O936   O     0.03961   0.22679   0.75000   0.00000  Uiso   1.00
O937   O     0.01852   0.16668   0.81492   0.00000  Uiso   1.00
O938   O     0.31481   0.16666   0.68508   0.00000  Uiso   1.00
O939   O     0.27267   0.16667   0.81492   0.00000  Uiso   1.00
O940   O     0.06067   0.16667   0.68508   0.00000  Uiso   1.00
C941   C     0.33360   0.08757   0.74838   0.00000  Uiso   1.00
C942   C     0.37680   0.02196   0.72702   0.00000  Uiso   1.00
C943   C     0.66627   0.29039   0.75240   0.00000  Uiso   1.00
C944   C     0.33404   0.04291   0.74707   0.00000  Uiso   1.00
C945   C     0.51398   0.13983   0.77802   0.00000  Uiso   1.00
C946   C     0.48567   0.19423   0.72282   0.00000  Uiso   1.00
C947   C     0.46478   0.14086   0.77789   0.00000  Uiso   1.00
C948   C     0.53470   0.19393   0.72373   0.00000  Uiso   1.00
C949   C     0.63912   0.16671   0.83578   0.00000  Uiso   1.00
C950   C     0.36081   0.16606   0.66426   0.00000  Uiso   1.00
C951   C     0.62374   0.16694   0.88451   0.00000  Uiso   1.00
C952   C     0.66653   0.24576   0.75130   0.00000  Uiso   1.00
C953   C     0.37583   0.16144   0.61598   0.00000  Uiso   1.00
C954   C     0.64127   0.17647   0.95435   0.00000  Uiso   1.00
C955   C     0.35918   0.13883   0.54905   0.00000  Uiso   1.00
C956   C     0.65712   0.17472   0.90825   0.00000  Uiso   1.00
C957   C     0.34299   0.14702   0.59408   0.00000  Uiso   1.00
C958   C     0.57471   0.16005   0.90731   0.00000  Uiso   1.00
C959   C     0.42456   0.16820   0.59235   0.00000  Uiso   1.00
C960   C     0.55776   0.16104   0.95387   0.00000  Uiso   1.00
C961   C     0.44227   0.15773   0.54762   0.00000  Uiso   1.00
C962   C     0.59199   0.16995   0.97726   0.00000  Uiso   1.00
C963   C     0.52816   0.16690   0.54641   0.00000  Uiso   1.00
C964   C     0.40843   0.14431   0.52562   0.00000  Uiso   1.00
C965   C     0.50777   0.15458   0.97769   0.00000  Uiso   1.00
C966   C     0.49256   0.16030   0.52428   0.00000  Uiso   1.00
C967   C     0.57677   0.28998   0.79638   0.00000  Uiso   1.00
C968   C     0.53619   0.29364   0.78040   0.00000  Uiso   1.00
C969   C     0.49204   0.27378   0.80329   0.00000  Uiso   1.00
C970   C     0.48807   0.25025   0.84225   0.00000  Uiso   1.00
C971   C     0.52812   0.24682   0.85860   0.00000  Uiso   1.00
C972   C     0.57243   0.26649   0.83574   0.00000  Uiso   1.00
C973   C     0.42271   0.04305   0.70070   0.00000  Uiso   1.00
C974   C     0.47263   0.14180   0.95684   0.00000  Uiso   1.00
C975   C     0.42500   0.06542   0.66115   0.00000  Uiso   1.00
C976   C     0.46927   0.08271   0.63484   0.00000  Uiso   1.00
C977   C     0.51120   0.07864   0.64818   0.00000  Uiso   1.00
C978   C     0.50921   0.05633   0.68743   0.00000  Uiso   1.00
C979   C     0.46521   0.03825   0.71344   0.00000  Uiso   1.00
C980   C     0.52334   0.11073   0.81316   0.00000  Uiso   1.00
C981   C     0.50467   0.06644   0.81130   0.00000  Uiso   1.00
C982   C     0.47365   0.22884   0.69457   0.00000  Uiso   1.00
C983   C     0.51075   0.23560   0.64867   0.00000  Uiso   1.00
C984   C     0.57681   0.17209   0.52330   0.00000  Uiso   1.00
C985   C     0.42410   0.13615   0.98062   0.00000  Uiso   1.00
C986   C     0.62482   0.02073   0.76923   0.00000  Uiso   1.00
C987   C     0.37565   0.31253   0.73034   0.00000  Uiso   1.00
C988   C     0.62339   0.31132   0.77209   0.00000  Uiso   1.00
Cu989  Cu    0.38022   0.16667   0.75000   0.00000  Uiso   1.00
Cu990  Cu    0.61978   0.16666   0.75000   0.00000  Uiso   1.00
H991   H     0.60264   0.17798   0.54171   0.00000  Uiso   1.00
H992   H     0.48147   0.13444   0.92240   0.00000  Uiso   1.00
H993   H     0.59303   0.03690   0.78595   0.00000  Uiso   1.00
H994   H     0.40778   0.29646   0.71367   0.00000  Uiso   1.00
H995   H     0.43709   0.12153   0.80083   0.00000  Uiso   1.00
H996   H     0.56143   0.21605   0.70385   0.00000  Uiso   1.00
H997   H     0.53891   0.31161   0.75010   0.00000  Uiso   1.00
H998   H     0.46088   0.27667   0.79088   0.00000  Uiso   1.00
H999   H     0.45388   0.23486   0.85992   0.00000  Uiso   1.00
H1000  H     0.52467   0.22915   0.88916   0.00000  Uiso   1.00
H1001  H     0.60322   0.26358   0.84872   0.00000  Uiso   1.00
H1002  H     0.39857   0.12561   0.96348   0.00000  Uiso   1.00
H1003  H     0.39284   0.06860   0.65022   0.00000  Uiso   1.00
H1004  H     0.47129   0.09860   0.60368   0.00000  Uiso   1.00
H1005  H     0.54534   0.09224   0.62777   0.00000  Uiso   1.00
H1006  H     0.54192   0.05260   0.69730   0.00000  Uiso   1.00
H1007  H     0.46414   0.02031   0.74336   0.00000  Uiso   1.00
H1008  H     0.46455   0.06388   0.82096   0.00000  Uiso   1.00
H1009  H     0.51949   0.05503   0.77740   0.00000  Uiso   1.00
H1010  H     0.51630   0.04624   0.83523   0.00000  Uiso   1.00
H1011  H     0.56148   0.10896   0.81158   0.00000  Uiso   1.00
H1012  H     0.50433   0.12229   0.84624   0.00000  Uiso   1.00
H1013  H     0.44804   0.18151   0.60979   0.00000  Uiso   1.00
H1014  H     0.54096   0.25663   0.65066   0.00000  Uiso   1.00
H1015  H     0.52590   0.20597   0.63581   0.00000  Uiso   1.00
H1016  H     0.49340   0.25003   0.62485   0.00000  Uiso   1.00
H1017  H     0.43859   0.22407   0.68851   0.00000  Uiso   1.00
H1018  H     0.47244   0.25773   0.71269   0.00000  Uiso   1.00
H1019  H     0.55026   0.15522   0.88774   0.00000  Uiso   1.00
H1020  H     0.63839   0.14129   0.61187   0.00000  Uiso   1.00
H1021  H     0.36195   0.18022   0.89120   0.00000  Uiso   1.00
H1022  H     0.33415   0.18338   0.97207   0.00000  Uiso   1.00
H1023  H     0.33337   0.12738   0.53271   0.00000  Uiso   1.00
H1024  H     0.51963   0.16641   0.58199   0.00000  Uiso   1.00
N1025  N     0.45069   0.16668   0.74999   0.00000  Uiso   1.00
N1026  N     0.54931   0.16666   0.75001   0.00000  Uiso   1.00
O1027  O     0.37291   0.10655   0.75000   0.00000  Uiso   1.00
O1028  O     0.62709   0.22678   0.75000   0.00000  Uiso   1.00
O1029  O     0.62706   0.10654   0.75000   0.00000  Uiso   1.00
O1030  O     0.37294   0.22679   0.75000   0.00000  Uiso   1.00
O1031  O     0.35186   0.16668   0.81492   0.00000  Uiso   1.00
O1032  O     0.64814   0.16666   0.68508   0.00000  Uiso   1.00
O1033  O     0.60600   0.16667   0.81492   0.00000  Uiso   1.00
O1034  O     0.39400   0.16667   0.68508   0.00000  Uiso   1.00
C1035  C     0.66694   0.08757   0.74838   0.00000  Uiso   1.00
C1036  C     0.71014   0.02196   0.72702   0.00000  Uiso   1.00
C1037  C     0.99960   0.29039   0.75240   0.00000  Uiso   1.00
C1038  C     0.66738   0.04291   0.74707   0.00000  Uiso   1.00
C1039  C     0.84731   0.13983   0.77802   0.00000  Uiso   1.00
C1040  C     0.81900   0.19423   0.72282   0.00000  Uiso   1.00
C1041  C     0.79811   0.14086   0.77789   0.00000  Uiso   1.00
C1042  C     0.86803   0.19393   0.72373   0.00000  Uiso   1.00
C1043  C     0.97246   0.16671   0.83578   0.00000  Uiso   1.00
C1044  C     0.69414   0.16606   0.66426   0.00000  Uiso   1.00
C1045  C     0.95707   0.16694   0.88451   0.00000  Uiso   1.00
C1046  C     0.99987   0.24576   0.75130   0.00000  Uiso   1.00
C1047  C     0.70917   0.16144   0.61598   0.00000  Uiso   1.00
C1048  C     0.97460   0.17647   0.95435   0.00000  Uiso   1.00
C1049  C     0.69251   0.13883   0.54905   0.00000  Uiso   1.00
C1050  C     0.99046   0.17472   0.90825   0.00000  Uiso   1.00
C1051  C     0.67633   0.14702   0.59408   0.00000  Uiso   1.00
C1052  C     0.90804   0.16005   0.90731   0.00000  Uiso   1.00
C1053  C     0.75789   0.16820   0.59235   0.00000  Uiso   1.00
C1054  C     0.89109   0.16104   0.95387   0.00000  Uiso   1.00
C1055  C     0.77561   0.15773   0.54762   0.00000  Uiso   1.00
C1056  C     0.92532   0.16995   0.97726   0.00000  Uiso   1.00
C1057  C     0.86150   0.16690   0.54641   0.00000  Uiso   1.00
C1058  C     0.74176   0.14431   0.52562   0.00000  Uiso   1.00
C1059  C     0.84110   0.15458   0.97769   0.00000  Uiso   1.00
C1060  C     0.82589   0.16030   0.52428   0.00000  Uiso   1.00
C1061  C     0.91010   0.28998   0.79638   0.00000  Uiso   1.00
C1062  C     0.86953   0.29364   0.78040   0.00000  Uiso   1.00
C1063  C     0.82538   0.27378   0.80329   0.00000  Uiso   1.00
C1064  C     0.82140   0.25025   0.84225   0.00000  Uiso   1.00
C1065  C     0.86145   0.24682   0.85860   0.00000  Uiso   1.00
C1066  C     0.90577   0.26649   0.83574   0.00000  Uiso   1.00
C1067  C     0.75604   0.04305   0.70070   0.00000  Uiso   1.00
C1068  C     0.80597   0.14180   0.95684   0.00000  Uiso   1.00
C1069  C     0.75833   0.06542   0.66115   0.00000  Uiso   1.00
C1070  C     0.80260   0.08271   0.63484   0.00000  Uiso   1.00
C1071  C     0.84453   0.07864   0.64818   0.00000  Uiso   1.00
C1072  C     0.84254   0.05633   0.68743   0.00000  Uiso   1.00
C1073  C     0.79855   0.03825   0.71344   0.00000  Uiso   1.00
C1074  C     0.85667   0.11073   0.81316   0.00000  Uiso   1.00
C1075  C     0.83801   0.06644   0.81130   0.00000  Uiso   1.00
C1076  C     0.80698   0.22884   0.69457   0.00000  Uiso   1.00
C1077  C     0.84408   0.23560   0.64867   0.00000  Uiso   1.00
C1078  C     0.91014   0.17209   0.52330   0.00000  Uiso   1.00
C1079  C     0.75743   0.13615   0.98062   0.00000  Uiso   1.00
C1080  C     0.95816   0.02073   0.76923   0.00000  Uiso   1.00
C1081  C     0.70898   0.31253   0.73034   0.00000  Uiso   1.00
C1082  C     0.95672   0.31132   0.77209   0.00000  Uiso   1.00
Cu1083 Cu    0.71355   0.16667   0.75000   0.00000  Uiso   1.00
Cu1084 Cu    0.95311   0.16666   0.75000   0.00000  Uiso   1.00
H1085  H     0.93598   0.17798   0.54171   0.00000  Uiso   1.00
H1086  H     0.81481   0.13444   0.92240   0.00000  Uiso   1.00
H1087  H     0.92637   0.03690   0.78595   0.00000  Uiso   1.00
H1088  H     0.74112   0.29646   0.71367   0.00000  Uiso   1.00
H1089  H     0.77042   0.12153   0.80083   0.00000  Uiso   1.00
H1090  H     0.89476   0.21605   0.70385   0.00000  Uiso   1.00
H1091  H     0.87224   0.31161   0.75010   0.00000  Uiso   1.00
H1092  H     0.79421   0.27667   0.79088   0.00000  Uiso   1.00
H1093  H     0.78722   0.23486   0.85992   0.00000  Uiso   1.00
H1094  H     0.85800   0.22915   0.88916   0.00000  Uiso   1.00
H1095  H     0.93656   0.26358   0.84872   0.00000  Uiso   1.00
H1096  H     0.73191   0.12561   0.96348   0.00000  Uiso   1.00
H1097  H     0.72618   0.06860   0.65022   0.00000  Uiso   1.00
H1098  H     0.80462   0.09860   0.60368   0.00000  Uiso   1.00
H1099  H     0.87868   0.09224   0.62777   0.00000  Uiso   1.00
H1100  H     0.87525   0.05260   0.69730   0.00000  Uiso   1.00
H1101  H     0.79748   0.02031   0.74336   0.00000  Uiso   1.00
H1102  H     0.79788   0.06388   0.82096   0.00000  Uiso   1.00
H1103  H     0.85283   0.05503   0.77740   0.00000  Uiso   1.00
H1104  H     0.84963   0.04624   0.83523   0.00000  Uiso   1.00
H1105  H     0.89482   0.10896   0.81158   0.00000  Uiso   1.00
H1106  H     0.83766   0.12229   0.84624   0.00000  Uiso   1.00
H1107  H     0.78137   0.18151   0.60979   0.00000  Uiso   1.00
H1108  H     0.87429   0.25663   0.65066   0.00000  Uiso   1.00
H1109  H     0.85923   0.20597   0.63581   0.00000  Uiso   1.00
H1110  H     0.82674   0.25003   0.62485   0.00000  Uiso   1.00
H1111  H     0.77193   0.22407   0.68851   0.00000  Uiso   1.00
H1112  H     0.80577   0.25773   0.71269   0.00000  Uiso   1.00
H1113  H     0.88360   0.15522   0.88774   0.00000  Uiso   1.00
H1114  H     0.97173   0.14129   0.61187   0.00000  Uiso   1.00
H1115  H     0.69529   0.18022   0.89120   0.00000  Uiso   1.00
H1116  H     0.66748   0.18338   0.97207   0.00000  Uiso   1.00
H1117  H     0.66671   0.12738   0.53271   0.00000  Uiso   1.00
H1118  H     0.85296   0.16641   0.58199   0.00000  Uiso   1.00
N1119  N     0.78403   0.16668   0.74999   0.00000  Uiso   1.00
N1120  N     0.88264   0.16666   0.75001   0.00000  Uiso   1.00
O1121  O     0.70625   0.10655   0.75000   0.00000  Uiso   1.00
O1122  O     0.96042   0.22678   0.75000   0.00000  Uiso   1.00
O1123  O     0.96039   0.10654   0.75000   0.00000  Uiso   1.00
O1124  O     0.70628   0.22679   0.75000   0.00000  Uiso   1.00
O1125  O     0.68519   0.16668   0.81492   0.00000  Uiso   1.00
O1126  O     0.98148   0.16666   0.68508   0.00000  Uiso   1.00
O1127  O     0.93933   0.16667   0.81492   0.00000  Uiso   1.00
O1128  O     0.72733   0.16667   0.68508   0.00000  Uiso   1.00
C1129  C     0.00027   0.42091   0.74838   0.00000  Uiso   1.00
C1130  C     0.04347   0.35529   0.72702   0.00000  Uiso   1.00
C1131  C     0.33293   0.62372   0.75240   0.00000  Uiso   1.00
C1132  C     0.00071   0.37624   0.74707   0.00000  Uiso   1.00
C1133  C     0.18065   0.47316   0.77802   0.00000  Uiso   1.00
C1134  C     0.15234   0.52756   0.72282   0.00000  Uiso   1.00
C1135  C     0.13145   0.47419   0.77789   0.00000  Uiso   1.00
C1136  C     0.20137   0.52727   0.72373   0.00000  Uiso   1.00
C1137  C     0.30579   0.50004   0.83578   0.00000  Uiso   1.00
C1138  C     0.02748   0.49939   0.66426   0.00000  Uiso   1.00
C1139  C     0.29040   0.50027   0.88451   0.00000  Uiso   1.00
C1140  C     0.33320   0.57909   0.75130   0.00000  Uiso   1.00
C1141  C     0.04250   0.49478   0.61598   0.00000  Uiso   1.00
C1142  C     0.30793   0.50980   0.95435   0.00000  Uiso   1.00
C1143  C     0.02584   0.47217   0.54905   0.00000  Uiso   1.00
C1144  C     0.32379   0.50805   0.90825   0.00000  Uiso   1.00
C1145  C     0.00966   0.48035   0.59408   0.00000  Uiso   1.00
C1146  C     0.24138   0.49339   0.90731   0.00000  Uiso   1.00
C1147  C     0.09122   0.50153   0.59235   0.00000  Uiso   1.00
C1148  C     0.22443   0.49437   0.95387   0.00000  Uiso   1.00
C1149  C     0.10894   0.49106   0.54762   0.00000  Uiso   1.00
C1150  C     0.25866   0.50328   0.97726   0.00000  Uiso   1.00
C1151  C     0.19483   0.50023   0.54641   0.00000  Uiso   1.00
C1152  C     0.07509   0.47764   0.52562   0.00000  Uiso   1.00
C1153  C     0.17444   0.48791   0.97769   0.00000  Uiso   1.00
C1154  C     0.15922   0.49363   0.52428   0.00000  Uiso   1.00
C1155  C     0.24343   0.62331   0.79638   0.00000  Uiso   1.00
C1156  C     0.20286   0.62697   0.78040   0.00000  Uiso   1.00
C1157  C     0.15871   0.60711   0.80329   0.00000  Uiso   1.00
C1158  C     0.15474   0.58358   0.84225   0.00000  Uiso   1.00
C1159  C     0.19479   0.58016   0.85860   0.00000  Uiso   1.00
C1160  C     0.23910   0.59982   0.83574   0.00000  Uiso   1.00
C1161  C     0.08937   0.37639   0.70070   0.00000  Uiso   1.00
C1162  C     0.13930   0.47514   0.95684   0.00000  Uiso   1.00
C1163  C     0.09166   0.39875   0.66115   0.00000  Uiso   1.00
C1164  C     0.13593   0.41604   0.63484   0.00000  Uiso   1.00
C1165  C     0.17787   0.41197   0.64818   0.00000  Uiso   1.00
C1166  C     0.17588   0.38967   0.68743   0.00000  Uiso   1.00
C1167  C     0.13188   0.37158   0.71344   0.00000  Uiso   1.00
C1168  C     0.19001   0.44406   0.81316   0.00000  Uiso   1.00
C1169  C     0.17134   0.39978   0.81130   0.00000  Uiso   1.00
C1170  C     0.14032   0.56218   0.69457   0.00000  Uiso   1.00
C1171  C     0.17741   0.56893   0.64867   0.00000  Uiso   1.00
C1172  C     0.24347   0.50543   0.52330   0.00000  Uiso   1.00
C1173  C     0.09076   0.46948   0.98062   0.00000  Uiso   1.00
C1174  C     0.29149   0.35406   0.76923   0.00000  Uiso   1.00
C1175  C     0.04231   0.64587   0.73034   0.00000  Uiso   1.00
C1176  C     0.29006   0.64465   0.77209   0.00000  Uiso   1.00
Cu1177 Cu    0.04689   0.50001   0.75000   0.00000  Uiso   1.00
Cu1178 Cu    0.28645   0.49999   0.75000   0.00000  Uiso   1.00
H1179  H     0.26931   0.51131   0.54171   0.00000  Uiso   1.00
H1180  H     0.14814   0.46777   0.92240   0.00000  Uiso   1.00
H1181  H     0.25970   0.37023   0.78595   0.00000  Uiso   1.00
H1182  H     0.07445   0.62979   0.71367   0.00000  Uiso   1.00
H1183  H     0.10375   0.45486   0.80083   0.00000  Uiso   1.00
H1184  H     0.22810   0.54939   0.70385   0.00000  Uiso   1.00
H1185  H     0.20558   0.64494   0.75010   0.00000  Uiso   1.00
H1186  H     0.12755   0.61000   0.79088   0.00000  Uiso   1.00
H1187  H     0.12055   0.56820   0.85992   0.00000  Uiso   1.00
H1188  H     0.19133   0.56248   0.88916   0.00000  Uiso   1.00
H1189  H     0.26989   0.59691   0.84872   0.00000  Uiso   1.00
H1190  H     0.06524   0.45894   0.96348   0.00000  Uiso   1.00
H1191  H     0.05951   0.40193   0.65022   0.00000  Uiso   1.00
H1192  H     0.13795   0.43193   0.60368   0.00000  Uiso   1.00
H1193  H     0.21201   0.42558   0.62777   0.00000  Uiso   1.00
H1194  H     0.20858   0.38593   0.69730   0.00000  Uiso   1.00
H1195  H     0.13081   0.35364   0.74336   0.00000  Uiso   1.00
H1196  H     0.13122   0.39721   0.82096   0.00000  Uiso   1.00
H1197  H     0.18616   0.38837   0.77740   0.00000  Uiso   1.00
H1198  H     0.18296   0.37957   0.83523   0.00000  Uiso   1.00
H1199  H     0.22815   0.44230   0.81158   0.00000  Uiso   1.00
H1200  H     0.17100   0.45563   0.84624   0.00000  Uiso   1.00
H1201  H     0.11470   0.51484   0.60979   0.00000  Uiso   1.00
H1202  H     0.20762   0.58996   0.65066   0.00000  Uiso   1.00
H1203  H     0.19257   0.53931   0.63581   0.00000  Uiso   1.00
H1204  H     0.16007   0.58336   0.62485   0.00000  Uiso   1.00
H1205  H     0.10526   0.55740   0.68851   0.00000  Uiso   1.00
H1206  H     0.13910   0.59106   0.71269   0.00000  Uiso   1.00
H1207  H     0.21693   0.48855   0.88774   0.00000  Uiso   1.00
H1208  H     0.30506   0.47463   0.61187   0.00000  Uiso   1.00
H1209  H     0.02862   0.51356   0.89120   0.00000  Uiso   1.00
H1210  H     0.00082   0.51672   0.97207   0.00000  Uiso   1.00
H1211  H     0.00004   0.46072   0.53271   0.00000  Uiso   1.00
H1212  H     0.18629   0.49975   0.58199   0.00000  Uiso   1.00
N1213  N     0.11736   0.50001   0.74999   0.00000  Uiso   1.00
N1214  N     0.21597   0.49999   0.75001   0.00000  Uiso   1.00
O1215  O     0.03958   0.43989   0.75000   0.00000  Uiso   1.00
O1216  O     0.29375   0.56011   0.75000   0.00000  Uiso   1.00
O1217  O     0.29372   0.43988   0.75000   0.00000  Uiso   1.00
O1218  O     0.03961   0.56012   0.75000   0.00000  Uiso   1.00
O1219  O     0.01852   0.50001   0.81492   0.00000  Uiso   1.00
O1220  O     0.31481   0.49999   0.68508   0.00000  Uiso   1.00
O1221  O     0.27267   0.50000   0.81492   0.00000  Uiso   1.00
O1222  O     0.06067   0.50000   0.68508   0.00000  Uiso   1.00
C1223  C     0.33360   0.42091   0.74838   0.00000  Uiso   1.00
C1224  C     0.37680   0.35529   0.72702   0.00000  Uiso   1.00
C1225  C     0.66627   0.62372   0.75240   0.00000  Uiso   1.00
C1226  C     0.33404   0.37624   0.74707   0.00000  Uiso   1.00
C1227  C     0.51398   0.47316   0.77802   0.00000  Uiso   1.00
C1228  C     0.48567   0.52756   0.72282   0.00000  Uiso   1.00
C1229  C     0.46478   0.47419   0.77789   0.00000  Uiso   1.00
C1230  C     0.53470   0.52727   0.72373   0.00000  Uiso   1.00
C1231  C     0.63912   0.50004   0.83578   0.00000  Uiso   1.00
C1232  C     0.36081   0.49939   0.66426   0.00000  Uiso   1.00
C1233  C     0.62374   0.50027   0.88451   0.00000  Uiso   1.00
C1234  C     0.66653   0.57909   0.75130   0.00000  Uiso   1.00
C1235  C     0.37583   0.49478   0.61598   0.00000  Uiso   1.00
C1236  C     0.64127   0.50980   0.95435   0.00000  Uiso   1.00
C1237  C     0.35918   0.47217   0.54905   0.00000  Uiso   1.00
C1238  C     0.65712   0.50805   0.90825   0.00000  Uiso   1.00
C1239  C     0.34299   0.48035   0.59408   0.00000  Uiso   1.00
C1240  C     0.57471   0.49339   0.90731   0.00000  Uiso   1.00
C1241  C     0.42456   0.50153   0.59235   0.00000  Uiso   1.00
C1242  C     0.55776   0.49437   0.95387   0.00000  Uiso   1.00
C1243  C     0.44227   0.49106   0.54762   0.00000  Uiso   1.00
C1244  C     0.59199   0.50328   0.97726   0.00000  Uiso   1.00
C1245  C     0.52816   0.50023   0.54641   0.00000  Uiso   1.00
C1246  C     0.40843   0.47764   0.52562   0.00000  Uiso   1.00
C1247  C     0.50777   0.48791   0.97769   0.00000  Uiso   1.00
C1248  C     0.49256   0.49363   0.52428   0.00000  Uiso   1.00
C1249  C     0.57677   0.62331   0.79638   0.00000  Uiso   1.00
C1250  C     0.53619   0.62697   0.78040   0.00000  Uiso   1.00
C1251  C     0.49204   0.60711   0.80329   0.00000  Uiso   1.00
C1252  C     0.48807   0.58358   0.84225   0.00000  Uiso   1.00
C1253  C     0.52812   0.58016   0.85860   0.00000  Uiso   1.00
C1254  C     0.57243   0.59982   0.83574   0.00000  Uiso   1.00
C1255  C     0.42271   0.37639   0.70070   0.00000  Uiso   1.00
C1256  C     0.47263   0.47514   0.95684   0.00000  Uiso   1.00
C1257  C     0.42500   0.39875   0.66115   0.00000  Uiso   1.00
C1258  C     0.46927   0.41604   0.63484   0.00000  Uiso   1.00
C1259  C     0.51120   0.41197   0.64818   0.00000  Uiso   1.00
C1260  C     0.50921   0.38967   0.68743   0.00000  Uiso   1.00
C1261  C     0.46521   0.37158   0.71344   0.00000  Uiso   1.00
C1262  C     0.52334   0.44406   0.81316   0.00000  Uiso   1.00
C1263  C     0.50467   0.39978   0.81130   0.00000  Uiso   1.00
C1264  C     0.47365   0.56218   0.69457   0.00000  Uiso   1.00
C1265  C     0.51075   0.56893   0.64867   0.00000  Uiso   1.00
C1266  C     0.57681   0.50543   0.52330   0.00000  Uiso   1.00
C1267  C     0.42410   0.46948   0.98062   0.00000  Uiso   1.00
C1268  C     0.62482   0.35406   0.76923   0.00000  Uiso   1.00
C1269  C     0.37565   0.64587   0.73034   0.00000  Uiso   1.00
C1270  C     0.62339   0.64465   0.77209   0.00000  Uiso   1.00
Cu1271 Cu    0.38022   0.50001   0.75000   0.00000  Uiso   1.00
Cu1272 Cu    0.61978   0.49999   0.75000   0.00000  Uiso   1.00
H1273  H     0.60264   0.51131   0.54171   0.00000  Uiso   1.00
H1274  H     0.48147   0.46777   0.92240   0.00000  Uiso   1.00
H1275  H     0.59303   0.37023   0.78595   0.00000  Uiso   1.00
H1276  H     0.40778   0.62979   0.71367   0.00000  Uiso   1.00
H1277  H     0.43709   0.45486   0.80083   0.00000  Uiso   1.00
H1278  H     0.56143   0.54939   0.70385   0.00000  Uiso   1.00
H1279  H     0.53891   0.64494   0.75010   0.00000  Uiso   1.00
H1280  H     0.46088   0.61000   0.79088   0.00000  Uiso   1.00
H1281  H     0.45388   0.56820   0.85992   0.00000  Uiso   1.00
H1282  H     0.52467   0.56248   0.88916   0.00000  Uiso   1.00
H1283  H     0.60322   0.59691   0.84872   0.00000  Uiso   1.00
H1284  H     0.39857   0.45894   0.96348   0.00000  Uiso   1.00
H1285  H     0.39284   0.40193   0.65022   0.00000  Uiso   1.00
H1286  H     0.47129   0.43193   0.60368   0.00000  Uiso   1.00
H1287  H     0.54534   0.42558   0.62777   0.00000  Uiso   1.00
H1288  H     0.54192   0.38593   0.69730   0.00000  Uiso   1.00
H1289  H     0.46414   0.35364   0.74336   0.00000  Uiso   1.00
H1290  H     0.46455   0.39721   0.82096   0.00000  Uiso   1.00
H1291  H     0.51949   0.38837   0.77740   0.00000  Uiso   1.00
H1292  H     0.51630   0.37957   0.83523   0.00000  Uiso   1.00
H1293  H     0.56148   0.44230   0.81158   0.00000  Uiso   1.00
H1294  H     0.50433   0.45563   0.84624   0.00000  Uiso   1.00
H1295  H     0.44804   0.51484   0.60979   0.00000  Uiso   1.00
H1296  H     0.54096   0.58996   0.65066   0.00000  Uiso   1.00
H1297  H     0.52590   0.53931   0.63581   0.00000  Uiso   1.00
H1298  H     0.49340   0.58336   0.62485   0.00000  Uiso   1.00
H1299  H     0.43859   0.55740   0.68851   0.00000  Uiso   1.00
H1300  H     0.47244   0.59106   0.71269   0.00000  Uiso   1.00
H1301  H     0.55026   0.48855   0.88774   0.00000  Uiso   1.00
H1302  H     0.63839   0.47463   0.61187   0.00000  Uiso   1.00
H1303  H     0.36195   0.51356   0.89120   0.00000  Uiso   1.00
H1304  H     0.33415   0.51672   0.97207   0.00000  Uiso   1.00
H1305  H     0.33337   0.46072   0.53271   0.00000  Uiso   1.00
H1306  H     0.51963   0.49975   0.58199   0.00000  Uiso   1.00
N1307  N     0.45069   0.50001   0.74999   0.00000  Uiso   1.00
N1308  N     0.54931   0.49999   0.75001   0.00000  Uiso   1.00
O1309  O     0.37291   0.43989   0.75000   0.00000  Uiso   1.00
O1310  O     0.62709   0.56011   0.75000   0.00000  Uiso   1.00
O1311  O     0.62706   0.43988   0.75000   0.00000  Uiso   1.00
O1312  O     0.37294   0.56012   0.75000   0.00000  Uiso   1.00
O1313  O     0.35186   0.50001   0.81492   0.00000  Uiso   1.00
O1314  O     0.64814   0.49999   0.68508   0.00000  Uiso   1.00
O1315  O     0.60600   0.50000   0.81492   0.00000  Uiso   1.00
O1316  O     0.39400   0.50000   0.68508   0.00000  Uiso   1.00
C1317  C     0.66694   0.42091   0.74838   0.00000  Uiso   1.00
C1318  C     0.71014   0.35529   0.72702   0.00000  Uiso   1.00
C1319  C     0.99960   0.62372   0.75240   0.00000  Uiso   1.00
C1320  C     0.66738   0.37624   0.74707   0.00000  Uiso   1.00
C1321  C     0.84731   0.47316   0.77802   0.00000  Uiso   1.00
C1322  C     0.81900   0.52756   0.72282   0.00000  Uiso   1.00
C1323  C     0.79811   0.47419   0.77789   0.00000  Uiso   1.00
C1324  C     0.86803   0.52727   0.72373   0.00000  Uiso   1.00
C1325  C     0.97246   0.50004   0.83578   0.00000  Uiso   1.00
C1326  C     0.69414   0.49939   0.66426   0.00000  Uiso   1.00
C1327  C     0.95707   0.50027   0.88451   0.00000  Uiso   1.00
C1328  C     0.99987   0.57909   0.75130   0.00000  Uiso   1.00
C1329  C     0.70917   0.49478   0.61598   0.00000  Uiso   1.00
C1330  C     0.97460   0.50980   0.95435   0.00000  Uiso   1.00
C1331  C     0.69251   0.47217   0.54905   0.00000  Uiso   1.00
C1332  C     0.99046   0.50805   0.90825   0.00000  Uiso   1.00
C1333  C     0.67633   0.48035   0.59408   0.00000  Uiso   1.00
C1334  C     0.90804   0.49339   0.90731   0.00000  Uiso   1.00
C1335  C     0.75789   0.50153   0.59235   0.00000  Uiso   1.00
C1336  C     0.89109   0.49437   0.95387   0.00000  Uiso   1.00
C1337  C     0.77561   0.49106   0.54762   0.00000  Uiso   1.00
C1338  C     0.92532   0.50328   0.97726   0.00000  Uiso   1.00
C1339  C     0.86150   0.50023   0.54641   0.00000  Uiso   1.00
C1340  C     0.74176   0.47764   0.52562   0.00000  Uiso   1.00
C1341  C     0.84110   0.48791   0.97769   0.00000  Uiso   1.00
C1342  C     0.82589   0.49363   0.52428   0.00000  Uiso   1.00
C1343  C     0.91010   0.62331   0.79638   0.00000  Uiso   1.00
C1344  C     0.86953   0.62697   0.78040   0.00000  Uiso   1.00
C1345  C     0.82538   0.60711   0.80329   0.00000  Uiso   1.00
C1346  C     0.82140   0.58358   0.84225   0.00000  Uiso   1.00
C1347  C     0.86145   0.58016   0.85860   0.00000  Uiso   1.00
C1348  C     0.90577   0.59982   0.83574   0.00000  Uiso   1.00
C1349  C     0.75604   0.37639   0.70070   0.00000  Uiso   1.00
C1350  C     0.80597   0.47514   0.95684   0.00000  Uiso   1.00
C1351  C     0.75833   0.39875   0.66115   0.00000  Uiso   1.00
C1352  C     0.80260   0.41604   0.63484   0.00000  Uiso   1.00
C1353  C     0.84453   0.41197   0.64818   0.00000  Uiso   1.00
C1354  C     0.84254   0.38967   0.68743   0.00000  Uiso   1.00
C1355  C     0.79855   0.37158   0.71344   0.00000  Uiso   1.00
C1356  C     0.85667   0.44406   0.81316   0.00000  Uiso   1.00
C1357  C     0.83801   0.39978   0.81130   0.00000  Uiso   1.00
C1358  C     0.80698   0.56218   0.69457   0.00000  Uiso   1.00
C1359  C     0.84408   0.56893   0.64867   0.00000  Uiso   1.00
C1360  C     0.91014   0.50543   0.52330   0.00000  Uiso   1.00
C1361  C     0.75743   0.46948   0.98062   0.00000  Uiso   1.00
C1362  C     0.95816   0.35406   0.76923   0.00000  Uiso   1.00
C1363  C     0.70898   0.64587   0.73034   0.00000  Uiso   1.00
C1364  C     0.95672   0.64465   0.77209   0.00000  Uiso   1.00
Cu1365 Cu    0.71355   0.50001   0.75000   0.00000  Uiso   1.00
Cu1366 Cu    0.95311   0.49999   0.75000   0.00000  Uiso   1.00
H1367  H     0.93598   0.51131   0.54171   0.00000  Uiso   1.00
H1368  H     0.81481   0.46777   0.92240   0.00000  Uiso   1.00
H1369  H     0.92637   0.37023   0.78595   0.00000  Uiso   1.00
H1370  H     0.74112   0.62979   0.71367   0.00000  Uiso   1.00
H1371  H     0.77042   0.45486   0.80083   0.00000  Uiso   1.00
H1372  H     0.89476   0.54939   0.70385   0.00000  Uiso   1.00
H1373  H     0.87224   0.64494   0.75010   0.00000  Uiso   1.00
H1374  H     0.79421   0.61000   0.79088   0.00000  Uiso   1.00
H1375  H     0.78722   0.56820   0.85992   0.00000  Uiso   1.00
H1376  H     0.85800   0.56248   0.88916   0.00000  Uiso   1.00
H1377  H     0.93656   0.59691   0.84872   0.00000  Uiso   1.00
H1378  H     0.73191   0.45894   0.96348   0.00000  Uiso   1.00
H1379  H     0.72618   0.40193   0.65022   0.00000  Uiso   1.00
H1380  H     0.80462   0.43193   0.60368   0.00000  Uiso   1.00
H1381  H     0.87868   0.42558   0.62777   0.00000  Uiso   1.00
H1382  H     0.87525   0.38593   0.69730   0.00000  Uiso   1.00
H1383  H     0.79748   0.35364   0.74336   0.00000  Uiso   1.00
H1384  H     0.79788   0.39721   0.82096   0.00000  Uiso   1.00
H1385  H     0.85283   0.38837   0.77740   0.00000  Uiso   1.00
H1386  H     0.84963   0.37957   0.83523   0.00000  Uiso   1.00
H1387  H     0.89482   0.44230   0.81158   0.00000  Uiso   1.00
H1388  H     0.83766   0.45563   0.84624   0.00000  Uiso   1.00
H1389  H     0.78137   0.51484   0.60979   0.00000  Uiso   1.00
H1390  H     0.87429   0.58996   0.65066   0.00000  Uiso   1.00
H1391  H     0.85923   0.53931   0.63581   0.00000  Uiso   1.00
H1392  H     0.82674   0.58336   0.62485   0.00000  Uiso   1.00
H1393  H     0.77193   0.55740   0.68851   0.00000  Uiso   1.00
H1394  H     0.80577   0.59106   0.71269   0.00000  Uiso   1.00
H1395  H     0.88360   0.48855   0.88774   0.00000  Uiso   1.00
H1396  H     0.97173   0.47463   0.61187   0.00000  Uiso   1.00
H1397  H     0.69529   0.51356   0.89120   0.00000  Uiso   1.00
H1398  H     0.66748   0.51672   0.97207   0.00000  Uiso   1.00
H1399  H     0.66671   0.46072   0.53271   0.00000  Uiso   1.00
H1400  H     0.85296   0.49975   0.58199   0.00000  Uiso   1.00
N1401  N     0.78403   0.50001   0.74999   0.00000  Uiso   1.00
N1402  N     0.88264   0.49999   0.75001   0.00000  Uiso   1.00
O1403  O     0.70625   0.43989   0.75000   0.00000  Uiso   1.00
O1404  O     0.96042   0.56011   0.75000   0.00000  Uiso   1.00
O1405  O     0.96039   0.43988   0.75000   0.00000  Uiso   1.00
O1406  O     0.70628   0.56012   0.75000   0.00000  Uiso   1.00
O1407  O     0.68519   0.50001   0.81492   0.00000  Uiso   1.00
O1408  O     0.98148   0.49999   0.68508   0.00000  Uiso   1.00
O1409  O     0.93933   0.50000   0.81492   0.00000  Uiso   1.00
O1410  O     0.72733   0.50000   0.68508   0.00000  Uiso   1.00
C1411  C     0.00027   0.75424   0.74838   0.00000  Uiso   1.00
C1412  C     0.04347   0.68863   0.72702   0.00000  Uiso   1.00
C1413  C     0.33293   0.95706   0.75240   0.00000  Uiso   1.00
C1414  C     0.00071   0.70957   0.74707   0.00000  Uiso   1.00
C1415  C     0.18065   0.80650   0.77802   0.00000  Uiso   1.00
C1416  C     0.15234   0.86090   0.72282   0.00000  Uiso   1.00
C1417  C     0.13145   0.80753   0.77789   0.00000  Uiso   1.00
C1418  C     0.20137   0.86060   0.72373   0.00000  Uiso   1.00
C1419  C     0.30579   0.83337   0.83578   0.00000  Uiso   1.00
C1420  C     0.02748   0.83273   0.66426   0.00000  Uiso   1.00
C1421  C     0.29040   0.83361   0.88451   0.00000  Uiso   1.00
C1422  C     0.33320   0.91243   0.75130   0.00000  Uiso   1.00
C1423  C     0.04250   0.82811   0.61598   0.00000  Uiso   1.00
C1424  C     0.30793   0.84313   0.95435   0.00000  Uiso   1.00
C1425  C     0.02584   0.80550   0.54905   0.00000  Uiso   1.00
C1426  C     0.32379   0.84139   0.90825   0.00000  Uiso   1.00
C1427  C     0.00966   0.81369   0.59408   0.00000  Uiso   1.00
C1428  C     0.24138   0.82672   0.90731   0.00000  Uiso   1.00
C1429  C     0.09122   0.83487   0.59235   0.00000  Uiso   1.00
C1430  C     0.22443   0.82771   0.95387   0.00000  Uiso   1.00
C1431  C     0.10894   0.82439   0.54762   0.00000  Uiso   1.00
C1432  C     0.25866   0.83662   0.97726   0.00000  Uiso   1.00
C1433  C     0.19483   0.83357   0.54641   0.00000  Uiso   1.00
C1434  C     0.07509   0.81097   0.52562   0.00000  Uiso   1.00
C1435  C     0.17444   0.82125   0.97769   0.00000  Uiso   1.00
C1436  C     0.15922   0.82697   0.52428   0.00000  Uiso   1.00
C1437  C     0.24343   0.95664   0.79638   0.00000  Uiso   1.00
C1438  C     0.20286   0.96031   0.78040   0.00000  Uiso   1.00
C1439  C     0.15871   0.94045   0.80329   0.00000  Uiso   1.00
C1440  C     0.15474   0.91691   0.84225   0.00000  Uiso   1.00
C1441  C     0.19479   0.91349   0.85860   0.00000  Uiso   1.00
C1442  C     0.23910   0.93316   0.83574   0.00000  Uiso   1.00
C1443  C     0.08937   0.70972   0.70070   0.00000  Uiso   1.00
C1444  C     0.13930   0.80847   0.95684   0.00000  Uiso   1.00
C1445  C     0.09166   0.73208   0.66115   0.00000  Uiso   1.00
C1446  C     0.13593   0.74938   0.63484   0.00000  Uiso   1.00
C1447  C     0.17787   0.74531   0.64818   0.00000  Uiso   1.00
C1448  C     0.17588   0.72300   0.68743   0.00000  Uiso   1.00
C1449  C     0.13188   0.70491   0.71344   0.00000  Uiso   1.00
C1450  C     0.19001   0.77739   0.81316   0.00000  Uiso   1.00
C1451  C     0.17134   0.73311   0.81130   0.00000  Uiso   1.00
C1452  C     0.14032   0.89551   0.69457   0.00000  Uiso   1.00
C1453  C     0.17741   0.90227   0.64867   0.00000  Uiso   1.00
C1454  C     0.24347   0.83876   0.52330   0.00000  Uiso   1.00
C1455  C     0.09076   0.80282   0.98062   0.00000  Uiso   1.00
C1456  C     0.29149   0.68740   0.76923   0.00000  Uiso   1.00
C1457  C     0.04231   0.97920   0.73034   0.00000  Uiso   1.00
C1458  C     0.29006   0.97799   0.77209   0.00000  Uiso   1.00
Cu1459 Cu    0.04689   0.83334   0.75000   0.00000  Uiso   1.00
Cu1460 Cu    0.28645   0.83333   0.75000   0.00000  Uiso   1.00
H1461  H     0.26931   0.84464   0.54171   0.00000  Uiso   1.00
H1462  H     0.14814   0.80110   0.92240   0.00000  Uiso   1.00
H1463  H     0.25970   0.70356   0.78595   0.00000  Uiso   1.00
H1464  H     0.07445   0.96313   0.71367   0.00000  Uiso   1.00
H1465  H     0.10375   0.78820   0.80083   0.00000  Uiso   1.00
H1466  H     0.22810   0.88272   0.70385   0.00000  Uiso   1.00
H1467  H     0.20558   0.97827   0.75010   0.00000  Uiso   1.00
H1468  H     0.12755   0.94334   0.79088   0.00000  Uiso   1.00
H1469  H     0.12055   0.90153   0.85992   0.00000  Uiso   1.00
H1470  H     0.19133   0.89582   0.88916   0.00000  Uiso   1.00
H1471  H     0.26989   0.93024   0.84872   0.00000  Uiso   1.00
H1472  H     0.06524   0.79227   0.96348   0.00000  Uiso   1.00
H1473  H     0.05951   0.73527   0.65022   0.00000  Uiso   1.00
H1474  H     0.13795   0.76527   0.60368   0.00000  Uiso   1.00
H1475  H     0.21201   0.75891   0.62777   0.00000  Uiso   1.00
H1476  H     0.20858   0.71926   0.69730   0.00000  Uiso   1.00
H1477  H     0.13081   0.68697   0.74336   0.00000  Uiso   1.00
H1478  H     0.13122   0.73055   0.82096   0.00000  Uiso   1.00
H1479  H     0.18616   0.72170   0.77740   0.00000  Uiso   1.00
H1480  H     0.18296   0.71290   0.83523   0.00000  Uiso   1.00
H1481  H     0.22815   0.77563   0.81158   0.00000  Uiso   1.00
H1482  H     0.17100   0.78896   0.84624   0.00000  Uiso   1.00
H1483  H     0.11470   0.84818   0.60979   0.00000  Uiso   1.00
H1484  H     0.20762   0.92330   0.65066   0.00000  Uiso   1.00
H1485  H     0.19257   0.87264   0.63581   0.00000  Uiso   1.00
H1486  H     0.16007   0.91670   0.62485   0.00000  Uiso   1.00
H1487  H     0.10526   0.89073   0.68851   0.00000  Uiso   1.00
H1488  H     0.13910   0.92439   0.71269   0.00000  Uiso   1.00
H1489  H     0.21693   0.82188   0.88774   0.00000  Uiso   1.00
H1490  H     0.30506   0.80796   0.61187   0.00000  Uiso   1.00
H1491  H     0.02862   0.84689   0.89120   0.00000  Uiso   1.00
H1492  H     0.00082   0.85005   0.97207   0.00000  Uiso   1.00
H1493  H     0.00004   0.79405   0.53271   0.00000  Uiso   1.00
H1494  H     0.18629   0.83308   0.58199   0.00000  Uiso   1.00
N1495  N     0.11736   0.83334   0.74999   0.00000  Uiso   1.00
N1496  N     0.21597   0.83332   0.75001   0.00000  Uiso   1.00
O1497  O     0.03958   0.77322   0.75000   0.00000  Uiso   1.00
O1498  O     0.29375   0.89345   0.75000   0.00000  Uiso   1.00
O1499  O     0.29372   0.77321   0.75000   0.00000  Uiso   1.00
O1500  O     0.03961   0.89346   0.75000   0.00000  Uiso   1.00
O1501  O     0.01852   0.83334   0.81492   0.00000  Uiso   1.00
O1502  O     0.31481   0.83332   0.68508   0.00000  Uiso   1.00
O1503  O     0.27267   0.83333   0.81492   0.00000  Uiso   1.00
O1504  O     0.06067   0.83333   0.68508   0.00000  Uiso   1.00
C1505  C     0.33360   0.75424   0.74838   0.00000  Uiso   1.00
C1506  C     0.37680   0.68863   0.72702   0.00000  Uiso   1.00
C1507  C     0.66627   0.95706   0.75240   0.00000  Uiso   1.00
C1508  C     0.33404   0.70957   0.74707   0.00000  Uiso   1.00
C1509  C     0.51398   0.80650   0.77802   0.00000  Uiso   1.00
C1510  C     0.48567   0.86090   0.72282   0.00000  Uiso   1.00
C1511  C     0.46478   0.80753   0.77789   0.00000  Uiso   1.00
C1512  C     0.53470   0.86060   0.72373   0.00000  Uiso   1.00
C1513  C     0.63912   0.83337   0.83578   0.00000  Uiso   1.00
C1514  C     0.36081   0.83273   0.66426   0.00000  Uiso   1.00
C1515  C     0.62374   0.83361   0.88451   0.00000  Uiso   1.00
C1516  C     0.66653   0.91243   0.75130   0.00000  Uiso   1.00
C1517  C     0.37583   0.82811   0.61598   0.00000  Uiso   1.00
C1518  C     0.64127   0.84313   0.95435   0.00000  Uiso   1.00
C1519  C     0.35918   0.80550   0.54905   0.00000  Uiso   1.00
C1520  C     0.65712   0.84139   0.90825   0.00000  Uiso   1.00
C1521  C     0.34299   0.81369   0.59408   0.00000  Uiso   1.00
C1522  C     0.57471   0.82672   0.90731   0.00000  Uiso   1.00
C1523  C     0.42456   0.83487   0.59235   0.00000  Uiso   1.00
C1524  C     0.55776   0.82771   0.95387   0.00000  Uiso   1.00
C1525  C     0.44227   0.82439   0.54762   0.00000  Uiso   1.00
C1526  C     0.59199   0.83662   0.97726   0.00000  Uiso   1.00
C1527  C     0.52816   0.83357   0.54641   0.00000  Uiso   1.00
C1528  C     0.40843   0.81097   0.52562   0.00000  Uiso   1.00
C1529  C     0.50777   0.82125   0.97769   0.00000  Uiso   1.00
C1530  C     0.49256   0.82697   0.52428   0.00000  Uiso   1.00
C1531  C     0.57677   0.95664   0.79638   0.00000  Uiso   1.00
C1532  C     0.53619   0.96031   0.78040   0.00000  Uiso   1.00
C1533  C     0.49204   0.94045   0.80329   0.00000  Uiso   1.00
C1534  C     0.48807   0.91691   0.84225   0.00000  Uiso   1.00
C1535  C     0.52812   0.91349   0.85860   0.00000  Uiso   1.00
C1536  C     0.57243   0.93316   0.83574   0.00000  Uiso   1.00
C1537  C     0.42271   0.70972   0.70070   0.00000  Uiso   1.00
C1538  C     0.47263   0.80847   0.95684   0.00000  Uiso   1.00
C1539  C     0.42500   0.73208   0.66115   0.00000  Uiso   1.00
C1540  C     0.46927   0.74938   0.63484   0.00000  Uiso   1.00
C1541  C     0.51120   0.74531   0.64818   0.00000  Uiso   1.00
C1542  C     0.50921   0.72300   0.68743   0.00000  Uiso   1.00
C1543  C     0.46521   0.70491   0.71344   0.00000  Uiso   1.00
C1544  C     0.52334   0.77739   0.81316   0.00000  Uiso   1.00
C1545  C     0.50467   0.73311   0.81130   0.00000  Uiso   1.00
C1546  C     0.47365   0.89551   0.69457   0.00000  Uiso   1.00
C1547  C     0.51075   0.90227   0.64867   0.00000  Uiso   1.00
C1548  C     0.57681   0.83876   0.52330   0.00000  Uiso   1.00
C1549  C     0.42410   0.80282   0.98062   0.00000  Uiso   1.00
C1550  C     0.62482   0.68740   0.76923   0.00000  Uiso   1.00
C1551  C     0.37565   0.97920   0.73034   0.00000  Uiso   1.00
C1552  C     0.62339   0.97799   0.77209   0.00000  Uiso   1.00
Cu1553 Cu    0.38022   0.83334   0.75000   0.00000  Uiso   1.00
Cu1554 Cu    0.61978   0.83333   0.75000   0.00000  Uiso   1.00
H1555  H     0.60264   0.84464   0.54171   0.00000  Uiso   1.00
H1556  H     0.48147   0.80110   0.92240   0.00000  Uiso   1.00
H1557  H     0.59303   0.70356   0.78595   0.00000  Uiso   1.00
H1558  H     0.40778   0.96313   0.71367   0.00000  Uiso   1.00
H1559  H     0.43709   0.78820   0.80083   0.00000  Uiso   1.00
H1560  H     0.56143   0.88272   0.70385   0.00000  Uiso   1.00
H1561  H     0.53891   0.97827   0.75010   0.00000  Uiso   1.00
H1562  H     0.46088   0.94334   0.79088   0.00000  Uiso   1.00
H1563  H     0.45388   0.90153   0.85992   0.00000  Uiso   1.00
H1564  H     0.52467   0.89582   0.88916   0.00000  Uiso   1.00
H1565  H     0.60322   0.93024   0.84872   0.00000  Uiso   1.00
H1566  H     0.39857   0.79227   0.96348   0.00000  Uiso   1.00
H1567  H     0.39284   0.73527   0.65022   0.00000  Uiso   1.00
H1568  H     0.47129   0.76527   0.60368   0.00000  Uiso   1.00
H1569  H     0.54534   0.75891   0.62777   0.00000  Uiso   1.00
H1570  H     0.54192   0.71926   0.69730   0.00000  Uiso   1.00
H1571  H     0.46414   0.68697   0.74336   0.00000  Uiso   1.00
H1572  H     0.46455   0.73055   0.82096   0.00000  Uiso   1.00
H1573  H     0.51949   0.72170   0.77740   0.00000  Uiso   1.00
H1574  H     0.51630   0.71290   0.83523   0.00000  Uiso   1.00
H1575  H     0.56148   0.77563   0.81158   0.00000  Uiso   1.00
H1576  H     0.50433   0.78896   0.84624   0.00000  Uiso   1.00
H1577  H     0.44804   0.84818   0.60979   0.00000  Uiso   1.00
H1578  H     0.54096   0.92330   0.65066   0.00000  Uiso   1.00
H1579  H     0.52590   0.87264   0.63581   0.00000  Uiso   1.00
H1580  H     0.49340   0.91670   0.62485   0.00000  Uiso   1.00
H1581  H     0.43859   0.89073   0.68851   0.00000  Uiso   1.00
H1582  H     0.47244   0.92439   0.71269   0.00000  Uiso   1.00
H1583  H     0.55026   0.82188   0.88774   0.00000  Uiso   1.00
H1584  H     0.63839   0.80796   0.61187   0.00000  Uiso   1.00
H1585  H     0.36195   0.84689   0.89120   0.00000  Uiso   1.00
H1586  H     0.33415   0.85005   0.97207   0.00000  Uiso   1.00
H1587  H     0.33337   0.79405   0.53271   0.00000  Uiso   1.00
H1588  H     0.51963   0.83308   0.58199   0.00000  Uiso   1.00
N1589  N     0.45069   0.83334   0.74999   0.00000  Uiso   1.00
N1590  N     0.54931   0.83332   0.75001   0.00000  Uiso   1.00
O1591  O     0.37291   0.77322   0.75000   0.00000  Uiso   1.00
O1592  O     0.62709   0.89345   0.75000   0.00000  Uiso   1.00
O1593  O     0.62706   0.77321   0.75000   0.00000  Uiso   1.00
O1594  O     0.37294   0.89346   0.75000   0.00000  Uiso   1.00
O1595  O     0.35186   0.83334   0.81492   0.00000  Uiso   1.00
O1596  O     0.64814   0.83332   0.68508   0.00000  Uiso   1.00
O1597  O     0.60600   0.83333   0.81492   0.00000  Uiso   1.00
O1598  O     0.39400   0.83333   0.68508   0.00000  Uiso   1.00
C1599  C     0.66694   0.75424   0.74838   0.00000  Uiso   1.00
C1600  C     0.71014   0.68863   0.72702   0.00000  Uiso   1.00
C1601  C     0.99960   0.95706   0.75240   0.00000  Uiso   1.00
C1602  C     0.66738   0.70957   0.74707   0.00000  Uiso   1.00
C1603  C     0.84731   0.80650   0.77802   0.00000  Uiso   1.00
C1604  C     0.81900   0.86090   0.72282   0.00000  Uiso   1.00
C1605  C     0.79811   0.80753   0.77789   0.00000  Uiso   1.00
C1606  C     0.86803   0.86060   0.72373   0.00000  Uiso   1.00
C1607  C     0.97246   0.83337   0.83578   0.00000  Uiso   1.00
C1608  C     0.69414   0.83273   0.66426   0.00000  Uiso   1.00
C1609  C     0.95707   0.83361   0.88451   0.00000  Uiso   1.00
C1610  C     0.99987   0.91243   0.75130   0.00000  Uiso   1.00
C1611  C     0.70917   0.82811   0.61598   0.00000  Uiso   1.00
C1612  C     0.97460   0.84313   0.95435   0.00000  Uiso   1.00
C1613  C     0.69251   0.80550   0.54905   0.00000  Uiso   1.00
C1614  C     0.99046   0.84139   0.90825   0.00000  Uiso   1.00
C1615  C     0.67633   0.81369   0.59408   0.00000  Uiso   1.00
C1616  C     0.90804   0.82672   0.90731   0.00000  Uiso   1.00
C1617  C     0.75789   0.83487   0.59235   0.00000  Uiso   1.00
C1618  C     0.89109   0.82771   0.95387   0.00000  Uiso   1.00
C1619  C     0.77561   0.82439   0.54762   0.00000  Uiso   1.00
C1620  C     0.92532   0.83662   0.97726   0.00000  Uiso   1.00
C1621  C     0.86150   0.83357   0.54641   0.00000  Uiso   1.00
C1622  C     0.74176   0.81097   0.52562   0.00000  Uiso   1.00
C1623  C     0.84110   0.82125   0.97769   0.00000  Uiso   1.00
C1624  C     0.82589   0.82697   0.52428   0.00000  Uiso   1.00
C1625  C     0.91010   0.95664   0.79638   0.00000  Uiso   1.00
C1626  C     0.86953   0.96031   0.78040   0.00000  Uiso   1.00
C1627  C     0.82538   0.94045   0.80329   0.00000  Uiso   1.00
C1628  C     0.82140   0.91691   0.84225   0.00000  Uiso   1.00
C1629  C     0.86145   0.91349   0.85860   0.00000  Uiso   1.00
C1630  C     0.90577   0.93316   0.83574   0.00000  Uiso   1.00
C1631  C     0.75604   0.70972   0.70070   0.00000  Uiso   1.00
C1632  C     0.80597   0.80847   0.95684   0.00000  Uiso   1.00
C1633  C     0.75833   0.73208   0.66115   0.00000  Uiso   1.00
C1634  C     0.80260   0.74938   0.63484   0.00000  Uiso   1.00
C1635  C     0.84453   0.74531   0.64818   0.00000  Uiso   1.00
C1636  C     0.84254   0.72300   0.68743   0.00000  Uiso   1.00
C1637  C     0.79855   0.70491   0.71344   0.00000  Uiso   1.00
C1638  C     0.85667   0.77739   0.81316   0.00000  Uiso   1.00
C1639  C     0.83801   0.73311   0.81130   0.00000  Uiso   1.00
C1640  C     0.80698   0.89551   0.69457   0.00000  Uiso   1.00
C1641  C     0.84408   0.90227   0.64867   0.00000  Uiso   1.00
C1642  C     0.91014   0.83876   0.52330   0.00000  Uiso   1.00
C1643  C     0.75743   0.80282   0.98062   0.00000  Uiso   1.00
C1644  C     0.95816   0.68740   0.76923   0.00000  Uiso   1.00
C1645  C     0.70898   0.97920   0.73034   0.00000  Uiso   1.00
C1646  C     0.95672   0.97799   0.77209   0.00000  Uiso   1.00
Cu1647 Cu    0.71355   0.83334   0.75000   0.00000  Uiso   1.00
Cu1648 Cu    0.95311   0.83333   0.75000   0.00000  Uiso   1.00
H1649  H     0.93598   0.84464   0.54171   0.00000  Uiso   1.00
H1650  H     0.81481   0.80110   0.92240   0.00000  Uiso   1.00
H1651  H     0.92637   0.70356   0.78595   0.00000  Uiso   1.00
H1652  H     0.74112   0.96313   0.71367   0.00000  Uiso   1.00
H1653  H     0.77042   0.78820   0.80083   0.00000  Uiso   1.00
H1654  H     0.89476   0.88272   0.70385   0.00000  Uiso   1.00
H1655  H     0.87224   0.97827   0.75010   0.00000  Uiso   1.00
H1656  H     0.79421   0.94334   0.79088   0.00000  Uiso   1.00
H1657  H     0.78722   0.90153   0.85992   0.00000  Uiso   1.00
H1658  H     0.85800   0.89582   0.88916   0.00000  Uiso   1.00
H1659  H     0.93656   0.93024   0.84872   0.00000  Uiso   1.00
H1660  H     0.73191   0.79227   0.96348   0.00000  Uiso   1.00
H1661  H     0.72618   0.73527   0.65022   0.00000  Uiso   1.00
H1662  H     0.80462   0.76527   0.60368   0.00000  Uiso   1.00
H1663  H     0.87868   0.75891   0.62777   0.00000  Uiso   1.00
H1664  H     0.87525   0.71926   0.69730   0.00000  Uiso   1.00
H1665  H     0.79748   0.68697   0.74336   0.00000  Uiso   1.00
H1666  H     0.79788   0.73055   0.82096   0.00000  Uiso   1.00
H1667  H     0.85283   0.72170   0.77740   0.00000  Uiso   1.00
H1668  H     0.84963   0.71290   0.83523   0.00000  Uiso   1.00
H1669  H     0.89482   0.77563   0.81158   0.00000  Uiso   1.00
H1670  H     0.83766   0.78896   0.84624   0.00000  Uiso   1.00
H1671  H     0.78137   0.84818   0.60979   0.00000  Uiso   1.00
H1672  H     0.87429   0.92330   0.65066   0.00000  Uiso   1.00
H1673  H     0.85923   0.87264   0.63581   0.00000  Uiso   1.00
H1674  H     0.82674   0.91670   0.62485   0.00000  Uiso   1.00
H1675  H     0.77193   0.89073   0.68851   0.00000  Uiso   1.00
H1676  H     0.80577   0.92439   0.71269   0.00000  Uiso   1.00
H1677  H     0.88360   0.82188   0.88774   0.00000  Uiso   1.00
H1678  H     0.97173   0.80796   0.61187   0.00000  Uiso   1.00
H1679  H     0.69529   0.84689   0.89120   0.00000  Uiso   1.00
H1680  H     0.66748   0.85005   0.97207   0.00000  Uiso   1.00
H1681  H     0.66671   0.79405   0.53271   0.00000  Uiso   1.00
H1682  H     0.85296   0.83308   0.58199   0.00000  Uiso   1.00
N1683  N     0.78403   0.83334   0.74999   0.00000  Uiso   1.00
N1684  N     0.88264   0.83332   0.75001   0.00000  Uiso   1.00
O1685  O     0.70625   0.77322   0.75000   0.00000  Uiso   1.00
O1686  O     0.96042   0.89345   0.75000   0.00000  Uiso   1.00
O1687  O     0.96039   0.77321   0.75000   0.00000  Uiso   1.00
O1688  O     0.70628   0.89346   0.75000   0.00000  Uiso   1.00
O1689  O     0.68519   0.83334   0.81492   0.00000  Uiso   1.00
O1690  O     0.98148   0.83332   0.68508   0.00000  Uiso   1.00
O1691  O     0.93933   0.83333   0.81492   0.00000  Uiso   1.00
O1692  O     0.72733   0.83333   0.68508   0.00000  Uiso   1.00
loop_
_geom_bond_atom_site_label_1
_geom_bond_atom_site_label_2
_geom_bond_distance
_geom_bond_site_symmetry_2
_ccdc_geom_bond_type
C1     O87     1.291   .     A
C1     C4      1.453   .     S
C1     O277    1.306   1_455 S
C2     C4      1.414   .     A
C2     C33     1.481   .     S
C2     C611    1.389   1_545 S
C3     C12     1.451   .     S
C3     C48     1.414   .     A
C3     C141    1.395   .     S
C4     C234    1.393   1_455 S
C5     C7      1.421   .     A
C5     N86     1.401   .     A
C5     C40     1.518   .     S
C6     N85     1.399   .     A
C6     C8      1.422   .     A
C6     C42     1.518   .     S
C7     H55     1.080   .     S
C7     N85     1.346   .     A
C8     H56     1.080   .     S
C8     N86     1.348   .     A
C9     C11     1.466   .     S
C9     O93     1.304   .     A
C9     O185    1.300   .     S
C10    O94     1.305   .     A
C10    C13     1.466   .     S
C10    O280    1.299   1_455 S
C11    C18     1.397   .     A
C11    C16     1.400   .     A
C12    O88     1.292   .     A
C12    O184    1.305   .     S
C13    C19     1.395   .     A
C13    C17     1.401   .     A
C14    C16     1.391   .     A
C14    C22     1.402   .     A
C14    H176    1.083   .     S
C15    C24     1.402   .     A
C15    C17     1.392   .     A
C15    H83     1.083   .     S
C16    H175    1.083   .     S
C17    H268    1.083   1_455 S
C18    H79     1.072   .     S
C18    C20     1.404   .     A
C19    C21     1.406   .     A
C19    H73     1.077   .     S
C20    C25     1.426   .     A
C20    C22     1.419   .     A
C21    C26     1.422   .     A
C21    C24     1.416   .     A
C22    C890    1.390   .     S
C23    C26     1.412   .     A
C23    H84     1.072   .     S
C23    C44     1.384   .     A
C24    C891    1.391   1_554 S
C25    C34     1.416   .     A
C25    C872    1.421   .     S
C26    C871    1.421   1_554 S
C27    C48     1.483   .     S
C27    C32     1.405   .     A
C27    C28     1.406   .     A
C28    H57     1.083   .     S
C28    C29     1.398   .     A
C29    C30     1.397   .     A
C29    H58     1.082   .     S
C30    C31     1.398   .     A
C30    H59     1.083   .     S
C31    H60     1.081   .     S
C31    C32     1.399   .     A
C32    H61     1.083   .     S
C33    C39     1.405   .     A
C33    C35     1.403   .     A
C34    C45     1.387   .     A
C34    H52     1.074   .     S
C35    C36     1.398   .     A
C35    H63     1.083   .     S
C36    C37     1.397   .     A
C36    H64     1.078   .     S
C37    H65     1.083   .     S
C37    C38     1.396   .     A
C38    H66     1.082   .     S
C38    C39     1.399   .     A
C39    H67     1.083   .     S
C40    H71     1.089   .     S
C40    C41     1.532   .     S
C40    H72     1.108   .     S
C41    H68     1.108   .     S
C41    H69     1.106   .     S
C41    H70     1.111   .     S
C42    H78     1.109   .     S
C42    C43     1.533   .     S
C42    H77     1.089   .     S
C43    H74     1.111   .     S
C43    H75     1.106   .     S
C43    H76     1.111   .     S
C44    H51     1.083   .     S
C44    C868    1.390   1_554 S
C45    H62     1.084   .     S
C45    C870    1.391   .     S
C46    H53     1.075   .     S
C46    C98     1.393   .     S
C46    C612    1.388   1_545 S
C47    H54     1.080   .     S
C47    C191    1.395   1_455 S
C47    C284    1.389   .     S
C48    C328    1.388   .     S
Cu49   O87     1.959   .     S
Cu49   O90     1.969   .     S
Cu49   O94     1.962   .     S
Cu49   O91     1.966   .     S
Cu49   N85     2.031   .     S
Cu49   Cu238   2.703   1_455 S
Cu50   O88     1.959   .     S
Cu50   O89     1.969   .     S
Cu50   O92     1.966   .     S
Cu50   O93     1.962   .     S
Cu50   N86     2.031   .     S
Cu50   Cu143   2.703   .     S
H80    C111    1.083   .     S
H81    C204    1.083   1_455 S
H82    C202    1.083   1_455 S
O89    C95     1.306   .     S
O90    C200    1.305   1_455 S
O91    C197    1.300   1_455 S
O92    C104    1.299   .     S
C95    O181    1.291   .     A
C95    C98     1.453   .     S
C96    C98     1.414   .     A
C96    C127    1.481   .     S
C96    C705    1.389   1_545 S
C97    C106    1.451   .     S
C97    C142    1.414   .     A
C97    C235    1.395   .     S
C99    C101    1.421   .     A
C99    N180    1.401   .     A
C99    C134    1.518   .     S
C100   N179    1.399   .     A
C100   C102    1.422   .     A
C100   C136    1.518   .     S
C101   H149    1.080   .     S
C101   N179    1.346   .     A
C102   H150    1.080   .     S
C102   N180    1.348   .     A
C103   C105    1.466   .     S
C103   O187    1.304   .     A
C103   O279    1.300   .     S
C104   O188    1.305   .     A
C104   C107    1.466   .     S
C105   C112    1.397   .     A
C105   C110    1.400   .     A
C106   O182    1.292   .     A
C106   O278    1.305   .     S
C107   C113    1.395   .     A
C107   C111    1.401   .     A
C108   C110    1.391   .     A
C108   C116    1.402   .     A
C108   H270    1.083   .     S
C109   C118    1.402   .     A
C109   C111    1.392   .     A
C109   H177    1.083   .     S
C110   H269    1.083   .     S
C112   H173    1.072   .     S
C112   C114    1.404   .     A
C113   C115    1.406   .     A
C113   H167    1.077   .     S
C114   C119    1.426   .     A
C114   C116    1.419   .     A
C115   C120    1.422   .     A
C115   C118    1.416   .     A
C116   C984    1.390   .     S
C117   C120    1.412   .     A
C117   H178    1.072   .     S
C117   C138    1.384   .     A
C118   C985    1.391   1_554 S
C119   C128    1.416   .     A
C119   C966    1.421   .     S
C120   C965    1.421   1_554 S
C121   C142    1.483   .     S
C121   C126    1.405   .     A
C121   C122    1.406   .     A
C122   H151    1.083   .     S
C122   C123    1.398   .     A
C123   C124    1.397   .     A
C123   H152    1.082   .     S
C124   C125    1.398   .     A
C124   H153    1.083   .     S
C125   H154    1.081   .     S
C125   C126    1.399   .     A
C126   H155    1.083   .     S
C127   C133    1.405   .     A
C127   C129    1.403   .     A
C128   C139    1.387   .     A
C128   H146    1.074   .     S
C129   C130    1.398   .     A
C129   H157    1.083   .     S
C130   C131    1.397   .     A
C130   H158    1.078   .     S
C131   H159    1.083   .     S
C131   C132    1.396   .     A
C132   H160    1.082   .     S
C132   C133    1.399   .     A
C133   H161    1.083   .     S
C134   H165    1.089   .     S
C134   C135    1.532   .     S
C134   H166    1.108   .     S
C135   H162    1.108   .     S
C135   H163    1.106   .     S
C135   H164    1.111   .     S
C136   H172    1.109   .     S
C136   C137    1.533   .     S
C136   H171    1.089   .     S
C137   H168    1.111   .     S
C137   H169    1.106   .     S
C137   H170    1.111   .     S
C138   H145    1.083   .     S
C138   C962    1.390   1_554 S
C139   H156    1.084   .     S
C139   C964    1.391   .     S
C140   H147    1.075   .     S
C140   C192    1.393   .     S
C140   C706    1.388   1_545 S
C141   H148    1.080   .     S
C141   C378    1.389   .     S
C142   C422    1.388   .     S
Cu143  O181    1.959   .     S
Cu143  O184    1.969   .     S
Cu143  O188    1.962   .     S
Cu143  O185    1.966   .     S
Cu143  N179    2.031   .     S
Cu144  O182    1.959   .     S
Cu144  O183    1.969   .     S
Cu144  O186    1.966   .     S
Cu144  O187    1.962   .     S
Cu144  N180    2.031   .     S
Cu144  Cu237   2.703   .     S
H174   C205    1.083   .     S
O183   C189    1.306   .     S
O186   C198    1.299   .     S
C189   O275    1.291   .     A
C189   C192    1.453   .     S
C190   C192    1.414   .     A
C190   C221    1.481   .     S
C190   C799    1.389   1_545 S
C191   C200    1.451   .     S
C191   C236    1.414   .     A
C191   C47     1.395   1_655 S
C193   C195    1.421   .     A
C193   N274    1.401   .     A
C193   C228    1.518   .     S
C194   N273    1.399   .     A
C194   C196    1.422   .     A
C194   C230    1.518   .     S
C195   H243    1.080   .     S
C195   N273    1.346   .     A
C196   H244    1.080   .     S
C196   N274    1.348   .     A
C197   C199    1.466   .     S
C197   O281    1.304   .     A
C197   O91     1.300   1_655 S
C198   O282    1.305   .     A
C198   C201    1.466   .     S
C199   C206    1.397   .     A
C199   C204    1.400   .     A
C200   O276    1.292   .     A
C200   O90     1.305   1_655 S
C201   C207    1.395   .     A
C201   C205    1.401   .     A
C202   C204    1.391   .     A
C202   C210    1.402   .     A
C202   H82     1.083   1_655 S
C203   C212    1.402   .     A
C203   C205    1.392   .     A
C203   H271    1.083   .     S
C204   H81     1.083   1_655 S
C206   H267    1.072   .     S
C206   C208    1.404   .     A
C207   C209    1.406   .     A
C207   H261    1.077   .     S
C208   C213    1.426   .     A
C208   C210    1.419   .     A
C209   C214    1.422   .     A
C209   C212    1.416   .     A
C210   C1078   1.390   .     S
C211   C214    1.412   .     A
C211   H272    1.072   .     S
C211   C232    1.384   .     A
C212   C1079   1.391   1_554 S
C213   C222    1.416   .     A
C213   C1060   1.421   .     S
C214   C1059   1.421   1_554 S
C215   C236    1.483   .     S
C215   C220    1.405   .     A
C215   C216    1.406   .     A
C216   H245    1.083   .     S
C216   C217    1.398   .     A
C217   C218    1.397   .     A
C217   H246    1.082   .     S
C218   C219    1.398   .     A
C218   H247    1.083   .     S
C219   H248    1.081   .     S
C219   C220    1.399   .     A
C220   H249    1.083   .     S
C221   C227    1.405   .     A
C221   C223    1.403   .     A
C222   C233    1.387   .     A
C222   H240    1.074   .     S
C223   C224    1.398   .     A
C223   H251    1.083   .     S
C224   C225    1.397   .     A
C224   H252    1.078   .     S
C225   H253    1.083   .     S
C225   C226    1.396   .     A
C226   H254    1.082   .     S
C226   C227    1.399   .     A
C227   H255    1.083   .     S
C228   H259    1.089   .     S
C228   C229    1.532   .     S
C228   H260    1.108   .     S
C229   H256    1.108   .     S
C229   H257    1.106   .     S
C229   H258    1.111   .     S
C230   H266    1.109   .     S
C230   C231    1.533   .     S
C230   H265    1.089   .     S
C231   H262    1.111   .     S
C231   H263    1.106   .     S
C231   H264    1.111   .     S
C232   H239    1.083   .     S
C232   C1056   1.390   1_554 S
C233   H250    1.084   .     S
C233   C1058   1.391   .     S
C234   H241    1.075   .     S
C234   C4      1.393   1_655 S
C234   C800    1.388   1_545 S
C235   H242    1.080   .     S
C235   C472    1.389   .     S
C236   C516    1.388   .     S
Cu237  O275    1.959   .     S
Cu237  O278    1.969   .     S
Cu237  O282    1.962   .     S
Cu237  O279    1.966   .     S
Cu237  N273    2.031   .     S
Cu238  O276    1.959   .     S
Cu238  O277    1.969   .     S
Cu238  O280    1.966   .     S
Cu238  O281    1.962   .     S
Cu238  N274    2.031   .     S
Cu238  Cu49    2.703   1_655 S
H268   C17     1.083   1_655 S
O277   C1      1.306   1_655 S
O280   C10     1.299   1_655 S
C283   O369    1.291   .     A
C283   C286    1.453   .     S
C283   O559    1.306   1_455 S
C284   C286    1.414   .     A
C284   C315    1.481   .     S
C285   C294    1.451   .     S
C285   C330    1.414   .     A
C285   C423    1.395   .     S
C286   C516    1.393   1_455 S
C287   C289    1.421   .     A
C287   N368    1.401   .     A
C287   C322    1.518   .     S
C288   N367    1.399   .     A
C288   C290    1.422   .     A
C288   C324    1.518   .     S
C289   H337    1.080   .     S
C289   N367    1.346   .     A
C290   H338    1.080   .     S
C290   N368    1.348   .     A
C291   C293    1.466   .     S
C291   O375    1.304   .     A
C291   O467    1.300   .     S
C292   O376    1.305   .     A
C292   C295    1.466   .     S
C292   O562    1.299   1_455 S
C293   C300    1.397   .     A
C293   C298    1.400   .     A
C294   O370    1.292   .     A
C294   O466    1.305   .     S
C295   C301    1.395   .     A
C295   C299    1.401   .     A
C296   C298    1.391   .     A
C296   C304    1.402   .     A
C296   H458    1.083   .     S
C297   C306    1.402   .     A
C297   C299    1.392   .     A
C297   H365    1.083   .     S
C298   H457    1.083   .     S
C299   H550    1.083   1_455 S
C300   H361    1.072   .     S
C300   C302    1.404   .     A
C301   C303    1.406   .     A
C301   H355    1.077   .     S
C302   C307    1.426   .     A
C302   C304    1.419   .     A
C303   C308    1.422   .     A
C303   C306    1.416   .     A
C304   C1172   1.390   .     S
C305   C308    1.412   .     A
C305   H366    1.072   .     S
C305   C326    1.384   .     A
C306   C1173   1.391   1_554 S
C307   C316    1.416   .     A
C307   C1154   1.421   .     S
C308   C1153   1.421   1_554 S
C309   C330    1.483   .     S
C309   C314    1.405   .     A
C309   C310    1.406   .     A
C310   H339    1.083   .     S
C310   C311    1.398   .     A
C311   C312    1.397   .     A
C311   H340    1.082   .     S
C312   C313    1.398   .     A
C312   H341    1.083   .     S
C313   H342    1.081   .     S
C313   C314    1.399   .     A
C314   H343    1.083   .     S
C315   C321    1.405   .     A
C315   C317    1.403   .     A
C316   C327    1.387   .     A
C316   H334    1.074   .     S
C317   C318    1.398   .     A
C317   H345    1.083   .     S
C318   C319    1.397   .     A
C318   H346    1.078   .     S
C319   H347    1.083   .     S
C319   C320    1.396   .     A
C320   H348    1.082   .     S
C320   C321    1.399   .     A
C321   H349    1.083   .     S
C322   H353    1.089   .     S
C322   C323    1.532   .     S
C322   H354    1.108   .     S
C323   H350    1.108   .     S
C323   H351    1.106   .     S
C323   H352    1.111   .     S
C324   H360    1.109   .     S
C324   C325    1.533   .     S
C324   H359    1.089   .     S
C325   H356    1.111   .     S
C325   H357    1.106   .     S
C325   H358    1.111   .     S
C326   H333    1.083   .     S
C326   C1150   1.390   1_554 S
C327   H344    1.084   .     S
C327   C1152   1.391   .     S
C328   H335    1.075   .     S
C328   C380    1.393   .     S
C329   H336    1.080   .     S
C329   C473    1.395   1_455 S
C329   C566    1.389   .     S
C330   C610    1.388   .     S
Cu331  O369    1.959   .     S
Cu331  O372    1.969   .     S
Cu331  O376    1.962   .     S
Cu331  O373    1.966   .     S
Cu331  N367    2.031   .     S
Cu331  Cu520   2.703   1_455 S
Cu332  O370    1.959   .     S
Cu332  O371    1.969   .     S
Cu332  O374    1.966   .     S
Cu332  O375    1.962   .     S
Cu332  N368    2.031   .     S
Cu332  Cu425   2.703   .     S
H362   C393    1.083   .     S
H363   C486    1.083   1_455 S
H364   C484    1.083   1_455 S
O371   C377    1.306   .     S
O372   C482    1.305   1_455 S
O373   C479    1.300   1_455 S
O374   C386    1.299   .     S
C377   O463    1.291   .     A
C377   C380    1.453   .     S
C378   C380    1.414   .     A
C378   C409    1.481   .     S
C379   C388    1.451   .     S
C379   C424    1.414   .     A
C379   C517    1.395   .     S
C381   C383    1.421   .     A
C381   N462    1.401   .     A
C381   C416    1.518   .     S
C382   N461    1.399   .     A
C382   C384    1.422   .     A
C382   C418    1.518   .     S
C383   H431    1.080   .     S
C383   N461    1.346   .     A
C384   H432    1.080   .     S
C384   N462    1.348   .     A
C385   C387    1.466   .     S
C385   O469    1.304   .     A
C385   O561    1.300   .     S
C386   O470    1.305   .     A
C386   C389    1.466   .     S
C387   C394    1.397   .     A
C387   C392    1.400   .     A
C388   O464    1.292   .     A
C388   O560    1.305   .     S
C389   C395    1.395   .     A
C389   C393    1.401   .     A
C390   C392    1.391   .     A
C390   C398    1.402   .     A
C390   H552    1.083   .     S
C391   C400    1.402   .     A
C391   C393    1.392   .     A
C391   H459    1.083   .     S
C392   H551    1.083   .     S
C394   H455    1.072   .     S
C394   C396    1.404   .     A
C395   C397    1.406   .     A
C395   H449    1.077   .     S
C396   C401    1.426   .     A
C396   C398    1.419   .     A
C397   C402    1.422   .     A
C397   C400    1.416   .     A
C398   C1266   1.390   .     S
C399   C402    1.412   .     A
C399   H460    1.072   .     S
C399   C420    1.384   .     A
C400   C1267   1.391   1_554 S
C401   C410    1.416   .     A
C401   C1248   1.421   .     S
C402   C1247   1.421   1_554 S
C403   C424    1.483   .     S
C403   C408    1.405   .     A
C403   C404    1.406   .     A
C404   H433    1.083   .     S
C404   C405    1.398   .     A
C405   C406    1.397   .     A
C405   H434    1.082   .     S
C406   C407    1.398   .     A
C406   H435    1.083   .     S
C407   H436    1.081   .     S
C407   C408    1.399   .     A
C408   H437    1.083   .     S
C409   C415    1.405   .     A
C409   C411    1.403   .     A
C410   C421    1.387   .     A
C410   H428    1.074   .     S
C411   C412    1.398   .     A
C411   H439    1.083   .     S
C412   C413    1.397   .     A
C412   H440    1.078   .     S
C413   H441    1.083   .     S
C413   C414    1.396   .     A
C414   H442    1.082   .     S
C414   C415    1.399   .     A
C415   H443    1.083   .     S
C416   H447    1.089   .     S
C416   C417    1.532   .     S
C416   H448    1.108   .     S
C417   H444    1.108   .     S
C417   H445    1.106   .     S
C417   H446    1.111   .     S
C418   H454    1.109   .     S
C418   C419    1.533   .     S
C418   H453    1.089   .     S
C419   H450    1.111   .     S
C419   H451    1.106   .     S
C419   H452    1.111   .     S
C420   H427    1.083   .     S
C420   C1244   1.390   1_554 S
C421   H438    1.084   .     S
C421   C1246   1.391   .     S
C422   H429    1.075   .     S
C422   C474    1.393   .     S
C423   H430    1.080   .     S
C423   C660    1.389   .     S
C424   C704    1.388   .     S
Cu425  O463    1.959   .     S
Cu425  O466    1.969   .     S
Cu425  O470    1.962   .     S
Cu425  O467    1.966   .     S
Cu425  N461    2.031   .     S
Cu426  O464    1.959   .     S
Cu426  O465    1.969   .     S
Cu426  O468    1.966   .     S
Cu426  O469    1.962   .     S
Cu426  N462    2.031   .     S
Cu426  Cu519   2.703   .     S
H456   C487    1.083   .     S
O465   C471    1.306   .     S
O468   C480    1.299   .     S
C471   O557    1.291   .     A
C471   C474    1.453   .     S
C472   C474    1.414   .     A
C472   C503    1.481   .     S
C473   C482    1.451   .     S
C473   C518    1.414   .     A
C473   C329    1.395   1_655 S
C475   C477    1.421   .     A
C475   N556    1.401   .     A
C475   C510    1.518   .     S
C476   N555    1.399   .     A
C476   C478    1.422   .     A
C476   C512    1.518   .     S
C477   H525    1.080   .     S
C477   N555    1.346   .     A
C478   H526    1.080   .     S
C478   N556    1.348   .     A
C479   C481    1.466   .     S
C479   O563    1.304   .     A
C479   O373    1.300   1_655 S
C480   O564    1.305   .     A
C480   C483    1.466   .     S
C481   C488    1.397   .     A
C481   C486    1.400   .     A
C482   O558    1.292   .     A
C482   O372    1.305   1_655 S
C483   C489    1.395   .     A
C483   C487    1.401   .     A
C484   C486    1.391   .     A
C484   C492    1.402   .     A
C484   H364    1.083   1_655 S
C485   C494    1.402   .     A
C485   C487    1.392   .     A
C485   H553    1.083   .     S
C486   H363    1.083   1_655 S
C488   H549    1.072   .     S
C488   C490    1.404   .     A
C489   C491    1.406   .     A
C489   H543    1.077   .     S
C490   C495    1.426   .     A
C490   C492    1.419   .     A
C491   C496    1.422   .     A
C491   C494    1.416   .     A
C492   C1360   1.390   .     S
C493   C496    1.412   .     A
C493   H554    1.072   .     S
C493   C514    1.384   .     A
C494   C1361   1.391   1_554 S
C495   C504    1.416   .     A
C495   C1342   1.421   .     S
C496   C1341   1.421   1_554 S
C497   C518    1.483   .     S
C497   C502    1.405   .     A
C497   C498    1.406   .     A
C498   H527    1.083   .     S
C498   C499    1.398   .     A
C499   C500    1.397   .     A
C499   H528    1.082   .     S
C500   C501    1.398   .     A
C500   H529    1.083   .     S
C501   H530    1.081   .     S
C501   C502    1.399   .     A
C502   H531    1.083   .     S
C503   C509    1.405   .     A
C503   C505    1.403   .     A
C504   C515    1.387   .     A
C504   H522    1.074   .     S
C505   C506    1.398   .     A
C505   H533    1.083   .     S
C506   C507    1.397   .     A
C506   H534    1.078   .     S
C507   H535    1.083   .     S
C507   C508    1.396   .     A
C508   H536    1.082   .     S
C508   C509    1.399   .     A
C509   H537    1.083   .     S
C510   H541    1.089   .     S
C510   C511    1.532   .     S
C510   H542    1.108   .     S
C511   H538    1.108   .     S
C511   H539    1.106   .     S
C511   H540    1.111   .     S
C512   H548    1.109   .     S
C512   C513    1.533   .     S
C512   H547    1.089   .     S
C513   H544    1.111   .     S
C513   H545    1.106   .     S
C513   H546    1.111   .     S
C514   H521    1.083   .     S
C514   C1338   1.390   1_554 S
C515   H532    1.084   .     S
C515   C1340   1.391   .     S
C516   H523    1.075   .     S
C516   C286    1.393   1_655 S
C517   H524    1.080   .     S
C517   C754    1.389   .     S
C518   C798    1.388   .     S
Cu519  O557    1.959   .     S
Cu519  O560    1.969   .     S
Cu519  O564    1.962   .     S
Cu519  O561    1.966   .     S
Cu519  N555    2.031   .     S
Cu520  O558    1.959   .     S
Cu520  O559    1.969   .     S
Cu520  O562    1.966   .     S
Cu520  O563    1.962   .     S
Cu520  N556    2.031   .     S
Cu520  Cu331   2.703   1_655 S
H550   C299    1.083   1_655 S
O559   C283    1.306   1_655 S
O562   C292    1.299   1_655 S
C565   O651    1.291   .     A
C565   C568    1.453   .     S
C565   O841    1.306   1_455 S
C566   C568    1.414   .     A
C566   C597    1.481   .     S
C567   C576    1.451   .     S
C567   C612    1.414   .     A
C567   C705    1.395   .     S
C568   C798    1.393   1_455 S
C569   C571    1.421   .     A
C569   N650    1.401   .     A
C569   C604    1.518   .     S
C570   N649    1.399   .     A
C570   C572    1.422   .     A
C570   C606    1.518   .     S
C571   H619    1.080   .     S
C571   N649    1.346   .     A
C572   H620    1.080   .     S
C572   N650    1.348   .     A
C573   C575    1.466   .     S
C573   O657    1.304   .     A
C573   O749    1.300   .     S
C574   O658    1.305   .     A
C574   C577    1.466   .     S
C574   O844    1.299   1_455 S
C575   C582    1.397   .     A
C575   C580    1.400   .     A
C576   O652    1.292   .     A
C576   O748    1.305   .     S
C577   C583    1.395   .     A
C577   C581    1.401   .     A
C578   C580    1.391   .     A
C578   C586    1.402   .     A
C578   H740    1.083   .     S
C579   C588    1.402   .     A
C579   C581    1.392   .     A
C579   H647    1.083   .     S
C580   H739    1.083   .     S
C581   H832    1.083   1_455 S
C582   H643    1.072   .     S
C582   C584    1.404   .     A
C583   C585    1.406   .     A
C583   H637    1.077   .     S
C584   C589    1.426   .     A
C584   C586    1.419   .     A
C585   C590    1.422   .     A
C585   C588    1.416   .     A
C586   C1454   1.390   .     S
C587   C590    1.412   .     A
C587   H648    1.072   .     S
C587   C608    1.384   .     A
C588   C1455   1.391   1_554 S
C589   C598    1.416   .     A
C589   C1436   1.421   .     S
C590   C1435   1.421   1_554 S
C591   C612    1.483   .     S
C591   C596    1.405   .     A
C591   C592    1.406   .     A
C592   H621    1.083   .     S
C592   C593    1.398   .     A
C593   C594    1.397   .     A
C593   H622    1.082   .     S
C594   C595    1.398   .     A
C594   H623    1.083   .     S
C595   H624    1.081   .     S
C595   C596    1.399   .     A
C596   H625    1.083   .     S
C597   C603    1.405   .     A
C597   C599    1.403   .     A
C598   C609    1.387   .     A
C598   H616    1.074   .     S
C599   C600    1.398   .     A
C599   H627    1.083   .     S
C600   C601    1.397   .     A
C600   H628    1.078   .     S
C601   H629    1.083   .     S
C601   C602    1.396   .     A
C602   H630    1.082   .     S
C602   C603    1.399   .     A
C603   H631    1.083   .     S
C604   H635    1.089   .     S
C604   C605    1.532   .     S
C604   H636    1.108   .     S
C605   H632    1.108   .     S
C605   H633    1.106   .     S
C605   H634    1.111   .     S
C606   H642    1.109   .     S
C606   C607    1.533   .     S
C606   H641    1.089   .     S
C607   H638    1.111   .     S
C607   H639    1.106   .     S
C607   H640    1.111   .     S
C608   H615    1.083   .     S
C608   C1432   1.390   1_554 S
C609   H626    1.084   .     S
C609   C1434   1.391   .     S
C610   H617    1.075   .     S
C610   C662    1.393   .     S
C611   H618    1.080   .     S
C611   C755    1.395   1_455 S
C611   C2      1.389   1_565 S
C612   C46     1.388   1_565 S
Cu613  O651    1.959   .     S
Cu613  O654    1.969   .     S
Cu613  O658    1.962   .     S
Cu613  O655    1.966   .     S
Cu613  N649    2.031   .     S
Cu613  Cu802   2.703   1_455 S
Cu614  O652    1.959   .     S
Cu614  O653    1.969   .     S
Cu614  O656    1.966   .     S
Cu614  O657    1.962   .     S
Cu614  N650    2.031   .     S
Cu614  Cu707   2.703   .     S
H644   C675    1.083   .     S
H645   C768    1.083   1_455 S
H646   C766    1.083   1_455 S
O653   C659    1.306   .     S
O654   C764    1.305   1_455 S
O655   C761    1.300   1_455 S
O656   C668    1.299   .     S
C659   O745    1.291   .     A
C659   C662    1.453   .     S
C660   C662    1.414   .     A
C660   C691    1.481   .     S
C661   C670    1.451   .     S
C661   C706    1.414   .     A
C661   C799    1.395   .     S
C663   C665    1.421   .     A
C663   N744    1.401   .     A
C663   C698    1.518   .     S
C664   N743    1.399   .     A
C664   C666    1.422   .     A
C664   C700    1.518   .     S
C665   H713    1.080   .     S
C665   N743    1.346   .     A
C666   H714    1.080   .     S
C666   N744    1.348   .     A
C667   C669    1.466   .     S
C667   O751    1.304   .     A
C667   O843    1.300   .     S
C668   O752    1.305   .     A
C668   C671    1.466   .     S
C669   C676    1.397   .     A
C669   C674    1.400   .     A
C670   O746    1.292   .     A
C670   O842    1.305   .     S
C671   C677    1.395   .     A
C671   C675    1.401   .     A
C672   C674    1.391   .     A
C672   C680    1.402   .     A
C672   H834    1.083   .     S
C673   C682    1.402   .     A
C673   C675    1.392   .     A
C673   H741    1.083   .     S
C674   H833    1.083   .     S
C676   H737    1.072   .     S
C676   C678    1.404   .     A
C677   C679    1.406   .     A
C677   H731    1.077   .     S
C678   C683    1.426   .     A
C678   C680    1.419   .     A
C679   C684    1.422   .     A
C679   C682    1.416   .     A
C680   C1548   1.390   .     S
C681   C684    1.412   .     A
C681   H742    1.072   .     S
C681   C702    1.384   .     A
C682   C1549   1.391   1_554 S
C683   C692    1.416   .     A
C683   C1530   1.421   .     S
C684   C1529   1.421   1_554 S
C685   C706    1.483   .     S
C685   C690    1.405   .     A
C685   C686    1.406   .     A
C686   H715    1.083   .     S
C686   C687    1.398   .     A
C687   C688    1.397   .     A
C687   H716    1.082   .     S
C688   C689    1.398   .     A
C688   H717    1.083   .     S
C689   H718    1.081   .     S
C689   C690    1.399   .     A
C690   H719    1.083   .     S
C691   C697    1.405   .     A
C691   C693    1.403   .     A
C692   C703    1.387   .     A
C692   H710    1.074   .     S
C693   C694    1.398   .     A
C693   H721    1.083   .     S
C694   C695    1.397   .     A
C694   H722    1.078   .     S
C695   H723    1.083   .     S
C695   C696    1.396   .     A
C696   H724    1.082   .     S
C696   C697    1.399   .     A
C697   H725    1.083   .     S
C698   H729    1.089   .     S
C698   C699    1.532   .     S
C698   H730    1.108   .     S
C699   H726    1.108   .     S
C699   H727    1.106   .     S
C699   H728    1.111   .     S
C700   H736    1.109   .     S
C700   C701    1.533   .     S
C700   H735    1.089   .     S
C701   H732    1.111   .     S
C701   H733    1.106   .     S
C701   H734    1.111   .     S
C702   H709    1.083   .     S
C702   C1526   1.390   1_554 S
C703   H720    1.084   .     S
C703   C1528   1.391   .     S
C704   H711    1.075   .     S
C704   C756    1.393   .     S
C705   H712    1.080   .     S
C705   C96     1.389   1_565 S
C706   C140    1.388   1_565 S
Cu707  O745    1.959   .     S
Cu707  O748    1.969   .     S
Cu707  O752    1.962   .     S
Cu707  O749    1.966   .     S
Cu707  N743    2.031   .     S
Cu708  O746    1.959   .     S
Cu708  O747    1.969   .     S
Cu708  O750    1.966   .     S
Cu708  O751    1.962   .     S
Cu708  N744    2.031   .     S
Cu708  Cu801   2.703   .     S
H738   C769    1.083   .     S
O747   C753    1.306   .     S
O750   C762    1.299   .     S
C753   O839    1.291   .     A
C753   C756    1.453   .     S
C754   C756    1.414   .     A
C754   C785    1.481   .     S
C755   C764    1.451   .     S
C755   C800    1.414   .     A
C755   C611    1.395   1_655 S
C757   C759    1.421   .     A
C757   N838    1.401   .     A
C757   C792    1.518   .     S
C758   N837    1.399   .     A
C758   C760    1.422   .     A
C758   C794    1.518   .     S
C759   H807    1.080   .     S
C759   N837    1.346   .     A
C760   H808    1.080   .     S
C760   N838    1.348   .     A
C761   C763    1.466   .     S
C761   O845    1.304   .     A
C761   O655    1.300   1_655 S
C762   O846    1.305   .     A
C762   C765    1.466   .     S
C763   C770    1.397   .     A
C763   C768    1.400   .     A
C764   O840    1.292   .     A
C764   O654    1.305   1_655 S
C765   C771    1.395   .     A
C765   C769    1.401   .     A
C766   C768    1.391   .     A
C766   C774    1.402   .     A
C766   H646    1.083   1_655 S
C767   C776    1.402   .     A
C767   C769    1.392   .     A
C767   H835    1.083   .     S
C768   H645    1.083   1_655 S
C770   H831    1.072   .     S
C770   C772    1.404   .     A
C771   C773    1.406   .     A
C771   H825    1.077   .     S
C772   C777    1.426   .     A
C772   C774    1.419   .     A
C773   C778    1.422   .     A
C773   C776    1.416   .     A
C774   C1642   1.390   .     S
C775   C778    1.412   .     A
C775   H836    1.072   .     S
C775   C796    1.384   .     A
C776   C1643   1.391   1_554 S
C777   C786    1.416   .     A
C777   C1624   1.421   .     S
C778   C1623   1.421   1_554 S
C779   C800    1.483   .     S
C779   C784    1.405   .     A
C779   C780    1.406   .     A
C780   H809    1.083   .     S
C780   C781    1.398   .     A
C781   C782    1.397   .     A
C781   H810    1.082   .     S
C782   C783    1.398   .     A
C782   H811    1.083   .     S
C783   H812    1.081   .     S
C783   C784    1.399   .     A
C784   H813    1.083   .     S
C785   C791    1.405   .     A
C785   C787    1.403   .     A
C786   C797    1.387   .     A
C786   H804    1.074   .     S
C787   C788    1.398   .     A
C787   H815    1.083   .     S
C788   C789    1.397   .     A
C788   H816    1.078   .     S
C789   H817    1.083   .     S
C789   C790    1.396   .     A
C790   H818    1.082   .     S
C790   C791    1.399   .     A
C791   H819    1.083   .     S
C792   H823    1.089   .     S
C792   C793    1.532   .     S
C792   H824    1.108   .     S
C793   H820    1.108   .     S
C793   H821    1.106   .     S
C793   H822    1.111   .     S
C794   H830    1.109   .     S
C794   C795    1.533   .     S
C794   H829    1.089   .     S
C795   H826    1.111   .     S
C795   H827    1.106   .     S
C795   H828    1.111   .     S
C796   H803    1.083   .     S
C796   C1620   1.390   1_554 S
C797   H814    1.084   .     S
C797   C1622   1.391   .     S
C798   H805    1.075   .     S
C798   C568    1.393   1_655 S
C799   H806    1.080   .     S
C799   C190    1.389   1_565 S
C800   C234    1.388   1_565 S
Cu801  O839    1.959   .     S
Cu801  O842    1.969   .     S
Cu801  O846    1.962   .     S
Cu801  O843    1.966   .     S
Cu801  N837    2.031   .     S
Cu802  O840    1.959   .     S
Cu802  O841    1.969   .     S
Cu802  O844    1.966   .     S
Cu802  O845    1.962   .     S
Cu802  N838    2.031   .     S
Cu802  Cu613   2.703   1_655 S
H832   C581    1.083   1_655 S
O841   C565    1.306   1_655 S
O844   C574    1.299   1_655 S
C847   O933    1.291   .     A
C847   C850    1.453   .     S
C847   O1123   1.306   1_455 S
C848   C850    1.414   .     A
C848   C879    1.481   .     S
C848   C1457   1.389   1_545 S
C849   C858    1.451   .     S
C849   C894    1.414   .     A
C849   C987    1.395   .     S
C850   C1080   1.393   1_455 S
C851   C853    1.421   .     A
C851   N932    1.401   .     A
C851   C886    1.518   .     S
C852   N931    1.399   .     A
C852   C854    1.422   .     A
C852   C888    1.518   .     S
C853   H901    1.080   .     S
C853   N931    1.346   .     A
C854   H902    1.080   .     S
C854   N932    1.348   .     A
C855   C857    1.466   .     S
C855   O939    1.304   .     A
C855   O1031   1.300   .     S
C856   O940    1.305   .     A
C856   C859    1.466   .     S
C856   O1126   1.299   1_455 S
C857   C864    1.397   .     A
C857   C862    1.400   .     A
C858   O934    1.292   .     A
C858   O1030   1.305   .     S
C859   C865    1.395   .     A
C859   C863    1.401   .     A
C860   C862    1.391   .     A
C860   C868    1.402   .     A
C860   H1022   1.083   .     S
C861   C870    1.402   .     A
C861   C863    1.392   .     A
C861   H929    1.083   .     S
C862   H1021   1.083   .     S
C863   H1114   1.083   1_455 S
C864   H925    1.072   .     S
C864   C866    1.404   .     A
C865   C867    1.406   .     A
C865   H919    1.077   .     S
C866   C871    1.426   .     A
C866   C868    1.419   .     A
C867   C872    1.422   .     A
C867   C870    1.416   .     A
C868   C44     1.390   1_556 S
C869   C872    1.412   .     A
C869   H930    1.072   .     S
C869   C890    1.384   .     A
C871   C880    1.416   .     A
C871   C26     1.421   1_556 S
C873   C894    1.483   .     S
C873   C878    1.405   .     A
C873   C874    1.406   .     A
C874   H903    1.083   .     S
C874   C875    1.398   .     A
C875   C876    1.397   .     A
C875   H904    1.082   .     S
C876   C877    1.398   .     A
C876   H905    1.083   .     S
C877   H906    1.081   .     S
C877   C878    1.399   .     A
C878   H907    1.083   .     S
C879   C885    1.405   .     A
C879   C881    1.403   .     A
C880   C891    1.387   .     A
C880   H898    1.074   .     S
C881   C882    1.398   .     A
C881   H909    1.083   .     S
C882   C883    1.397   .     A
C882   H910    1.078   .     S
C883   H911    1.083   .     S
C883   C884    1.396   .     A
C884   H912    1.082   .     S
C884   C885    1.399   .     A
C885   H913    1.083   .     S
C886   H917    1.089   .     S
C886   C887    1.532   .     S
C886   H918    1.108   .     S
C887   H914    1.108   .     S
C887   H915    1.106   .     S
C887   H916    1.111   .     S
C888   H924    1.109   .     S
C888   C889    1.533   .     S
C888   H923    1.089   .     S
C889   H920    1.111   .     S
C889   H921    1.106   .     S
C889   H922    1.111   .     S
C890   H897    1.083   .     S
C891   H908    1.084   .     S
C891   C24     1.391   1_556 S
C892   H899    1.075   .     S
C892   C944    1.393   .     S
C892   C1458   1.388   1_545 S
C893   H900    1.080   .     S
C893   C1037   1.395   1_455 S
C893   C1130   1.389   .     S
C894   C1174   1.388   .     S
Cu895  O933    1.959   .     S
Cu895  O936    1.969   .     S
Cu895  O940    1.962   .     S
Cu895  O937    1.966   .     S
Cu895  N931    2.031   .     S
Cu895  Cu1084  2.703   1_455 S
Cu896  O934    1.959   .     S
Cu896  O935    1.969   .     S
Cu896  O938    1.966   .     S
Cu896  O939    1.962   .     S
Cu896  N932    2.031   .     S
Cu896  Cu989   2.703   .     S
H926   C957    1.083   .     S
H927   C1050   1.083   1_455 S
H928   C1048   1.083   1_455 S
O935   C941    1.306   .     S
O936   C1046   1.305   1_455 S
O937   C1043   1.300   1_455 S
O938   C950    1.299   .     S
C941   O1027   1.291   .     A
C941   C944    1.453   .     S
C942   C944    1.414   .     A
C942   C973    1.481   .     S
C942   C1551   1.389   1_545 S
C943   C952    1.451   .     S
C943   C988    1.414   .     A
C943   C1081   1.395   .     S
C945   C947    1.421   .     A
C945   N1026   1.401   .     A
C945   C980    1.518   .     S
C946   N1025   1.399   .     A
C946   C948    1.422   .     A
C946   C982    1.518   .     S
C947   H995    1.080   .     S
C947   N1025   1.346   .     A
C948   H996    1.080   .     S
C948   N1026   1.348   .     A
C949   C951    1.466   .     S
C949   O1033   1.304   .     A
C949   O1125   1.300   .     S
C950   O1034   1.305   .     A
C950   C953    1.466   .     S
C951   C958    1.397   .     A
C951   C956    1.400   .     A
C952   O1028   1.292   .     A
C952   O1124   1.305   .     S
C953   C959    1.395   .     A
C953   C957    1.401   .     A
C954   C956    1.391   .     A
C954   C962    1.402   .     A
C954   H1116   1.083   .     S
C955   C964    1.402   .     A
C955   C957    1.392   .     A
C955   H1023   1.083   .     S
C956   H1115   1.083   .     S
C958   H1019   1.072   .     S
C958   C960    1.404   .     A
C959   C961    1.406   .     A
C959   H1013   1.077   .     S
C960   C965    1.426   .     A
C960   C962    1.419   .     A
C961   C966    1.422   .     A
C961   C964    1.416   .     A
C962   C138    1.390   1_556 S
C963   C966    1.412   .     A
C963   H1024   1.072   .     S
C963   C984    1.384   .     A
C965   C974    1.416   .     A
C965   C120    1.421   1_556 S
C967   C988    1.483   .     S
C967   C972    1.405   .     A
C967   C968    1.406   .     A
C968   H997    1.083   .     S
C968   C969    1.398   .     A
C969   C970    1.397   .     A
C969   H998    1.082   .     S
C970   C971    1.398   .     A
C970   H999    1.083   .     S
C971   H1000   1.081   .     S
C971   C972    1.399   .     A
C972   H1001   1.083   .     S
C973   C979    1.405   .     A
C973   C975    1.403   .     A
C974   C985    1.387   .     A
C974   H992    1.074   .     S
C975   C976    1.398   .     A
C975   H1003   1.083   .     S
C976   C977    1.397   .     A
C976   H1004   1.078   .     S
C977   H1005   1.083   .     S
C977   C978    1.396   .     A
C978   H1006   1.082   .     S
C978   C979    1.399   .     A
C979   H1007   1.083   .     S
C980   H1011   1.089   .     S
C980   C981    1.532   .     S
C980   H1012   1.108   .     S
C981   H1008   1.108   .     S
C981   H1009   1.106   .     S
C981   H1010   1.111   .     S
C982   H1018   1.109   .     S
C982   C983    1.533   .     S
C982   H1017   1.089   .     S
C983   H1014   1.111   .     S
C983   H1015   1.106   .     S
C983   H1016   1.111   .     S
C984   H991    1.083   .     S
C985   H1002   1.084   .     S
C985   C118    1.391   1_556 S
C986   H993    1.075   .     S
C986   C1038   1.393   .     S
C986   C1552   1.388   1_545 S
C987   H994    1.080   .     S
C987   C1224   1.389   .     S
C988   C1268   1.388   .     S
Cu989  O1027   1.959   .     S
Cu989  O1030   1.969   .     S
Cu989  O1034   1.962   .     S
Cu989  O1031   1.966   .     S
Cu989  N1025   2.031   .     S
Cu990  O1028   1.959   .     S
Cu990  O1029   1.969   .     S
Cu990  O1032   1.966   .     S
Cu990  O1033   1.962   .     S
Cu990  N1026   2.031   .     S
Cu990  Cu1083  2.703   .     S
H1020  C1051   1.083   .     S
O1029  C1035   1.306   .     S
O1032  C1044   1.299   .     S
C1035  O1121   1.291   .     A
C1035  C1038   1.453   .     S
C1036  C1038   1.414   .     A
C1036  C1067   1.481   .     S
C1036  C1645   1.389   1_545 S
C1037  C1046   1.451   .     S
C1037  C1082   1.414   .     A
C1037  C893    1.395   1_655 S
C1039  C1041   1.421   .     A
C1039  N1120   1.401   .     A
C1039  C1074   1.518   .     S
C1040  N1119   1.399   .     A
C1040  C1042   1.422   .     A
C1040  C1076   1.518   .     S
C1041  H1089   1.080   .     S
C1041  N1119   1.346   .     A
C1042  H1090   1.080   .     S
C1042  N1120   1.348   .     A
C1043  C1045   1.466   .     S
C1043  O1127   1.304   .     A
C1043  O937    1.300   1_655 S
C1044  O1128   1.305   .     A
C1044  C1047   1.466   .     S
C1045  C1052   1.397   .     A
C1045  C1050   1.400   .     A
C1046  O1122   1.292   .     A
C1046  O936    1.305   1_655 S
C1047  C1053   1.395   .     A
C1047  C1051   1.401   .     A
C1048  C1050   1.391   .     A
C1048  C1056   1.402   .     A
C1048  H928    1.083   1_655 S
C1049  C1058   1.402   .     A
C1049  C1051   1.392   .     A
C1049  H1117   1.083   .     S
C1050  H927    1.083   1_655 S
C1052  H1113   1.072   .     S
C1052  C1054   1.404   .     A
C1053  C1055   1.406   .     A
C1053  H1107   1.077   .     S
C1054  C1059   1.426   .     A
C1054  C1056   1.419   .     A
C1055  C1060   1.422   .     A
C1055  C1058   1.416   .     A
C1056  C232    1.390   1_556 S
C1057  C1060   1.412   .     A
C1057  H1118   1.072   .     S
C1057  C1078   1.384   .     A
C1059  C1068   1.416   .     A
C1059  C214    1.421   1_556 S
C1061  C1082   1.483   .     S
C1061  C1066   1.405   .     A
C1061  C1062   1.406   .     A
C1062  H1091   1.083   .     S
C1062  C1063   1.398   .     A
C1063  C1064   1.397   .     A
C1063  H1092   1.082   .     S
C1064  C1065   1.398   .     A
C1064  H1093   1.083   .     S
C1065  H1094   1.081   .     S
C1065  C1066   1.399   .     A
C1066  H1095   1.083   .     S
C1067  C1073   1.405   .     A
C1067  C1069   1.403   .     A
C1068  C1079   1.387   .     A
C1068  H1086   1.074   .     S
C1069  C1070   1.398   .     A
C1069  H1097   1.083   .     S
C1070  C1071   1.397   .     A
C1070  H1098   1.078   .     S
C1071  H1099   1.083   .     S
C1071  C1072   1.396   .     A
C1072  H1100   1.082   .     S
C1072  C1073   1.399   .     A
C1073  H1101   1.083   .     S
C1074  H1105   1.089   .     S
C1074  C1075   1.532   .     S
C1074  H1106   1.108   .     S
C1075  H1102   1.108   .     S
C1075  H1103   1.106   .     S
C1075  H1104   1.111   .     S
C1076  H1112   1.109   .     S
C1076  C1077   1.533   .     S
C1076  H1111   1.089   .     S
C1077  H1108   1.111   .     S
C1077  H1109   1.106   .     S
C1077  H1110   1.111   .     S
C1078  H1085   1.083   .     S
C1079  H1096   1.084   .     S
C1079  C212    1.391   1_556 S
C1080  H1087   1.075   .     S
C1080  C850    1.393   1_655 S
C1080  C1646   1.388   1_545 S
C1081  H1088   1.080   .     S
C1081  C1318   1.389   .     S
C1082  C1362   1.388   .     S
Cu1083 O1121   1.959   .     S
Cu1083 O1124   1.969   .     S
Cu1083 O1128   1.962   .     S
Cu1083 O1125   1.966   .     S
Cu1083 N1119   2.031   .     S
Cu1084 O1122   1.959   .     S
Cu1084 O1123   1.969   .     S
Cu1084 O1126   1.966   .     S
Cu1084 O1127   1.962   .     S
Cu1084 N1120   2.031   .     S
Cu1084 Cu895   2.703   1_655 S
H1114  C863    1.083   1_655 S
O1123  C847    1.306   1_655 S
O1126  C856    1.299   1_655 S
C1129  O1215   1.291   .     A
C1129  C1132   1.453   .     S
C1129  O1405   1.306   1_455 S
C1130  C1132   1.414   .     A
C1130  C1161   1.481   .     S
C1131  C1140   1.451   .     S
C1131  C1176   1.414   .     A
C1131  C1269   1.395   .     S
C1132  C1362   1.393   1_455 S
C1133  C1135   1.421   .     A
C1133  N1214   1.401   .     A
C1133  C1168   1.518   .     S
C1134  N1213   1.399   .     A
C1134  C1136   1.422   .     A
C1134  C1170   1.518   .     S
C1135  H1183   1.080   .     S
C1135  N1213   1.346   .     A
C1136  H1184   1.080   .     S
C1136  N1214   1.348   .     A
C1137  C1139   1.466   .     S
C1137  O1221   1.304   .     A
C1137  O1313   1.300   .     S
C1138  O1222   1.305   .     A
C1138  C1141   1.466   .     S
C1138  O1408   1.299   1_455 S
C1139  C1146   1.397   .     A
C1139  C1144   1.400   .     A
C1140  O1216   1.292   .     A
C1140  O1312   1.305   .     S
C1141  C1147   1.395   .     A
C1141  C1145   1.401   .     A
C1142  C1144   1.391   .     A
C1142  C1150   1.402   .     A
C1142  H1304   1.083   .     S
C1143  C1152   1.402   .     A
C1143  C1145   1.392   .     A
C1143  H1211   1.083   .     S
C1144  H1303   1.083   .     S
C1145  H1396   1.083   1_455 S
C1146  H1207   1.072   .     S
C1146  C1148   1.404   .     A
C1147  C1149   1.406   .     A
C1147  H1201   1.077   .     S
C1148  C1153   1.426   .     A
C1148  C1150   1.419   .     A
C1149  C1154   1.422   .     A
C1149  C1152   1.416   .     A
C1150  C326    1.390   1_556 S
C1151  C1154   1.412   .     A
C1151  H1212   1.072   .     S
C1151  C1172   1.384   .     A
C1153  C1162   1.416   .     A
C1153  C308    1.421   1_556 S
C1155  C1176   1.483   .     S
C1155  C1160   1.405   .     A
C1155  C1156   1.406   .     A
C1156  H1185   1.083   .     S
C1156  C1157   1.398   .     A
C1157  C1158   1.397   .     A
C1157  H1186   1.082   .     S
C1158  C1159   1.398   .     A
C1158  H1187   1.083   .     S
C1159  H1188   1.081   .     S
C1159  C1160   1.399   .     A
C1160  H1189   1.083   .     S
C1161  C1167   1.405   .     A
C1161  C1163   1.403   .     A
C1162  C1173   1.387   .     A
C1162  H1180   1.074   .     S
C1163  C1164   1.398   .     A
C1163  H1191   1.083   .     S
C1164  C1165   1.397   .     A
C1164  H1192   1.078   .     S
C1165  H1193   1.083   .     S
C1165  C1166   1.396   .     A
C1166  H1194   1.082   .     S
C1166  C1167   1.399   .     A
C1167  H1195   1.083   .     S
C1168  H1199   1.089   .     S
C1168  C1169   1.532   .     S
C1168  H1200   1.108   .     S
C1169  H1196   1.108   .     S
C1169  H1197   1.106   .     S
C1169  H1198   1.111   .     S
C1170  H1206   1.109   .     S
C1170  C1171   1.533   .     S
C1170  H1205   1.089   .     S
C1171  H1202   1.111   .     S
C1171  H1203   1.106   .     S
C1171  H1204   1.111   .     S
C1172  H1179   1.083   .     S
C1173  H1190   1.084   .     S
C1173  C306    1.391   1_556 S
C1174  H1181   1.075   .     S
C1174  C1226   1.393   .     S
C1175  H1182   1.080   .     S
C1175  C1319   1.395   1_455 S
C1175  C1412   1.389   .     S
C1176  C1456   1.388   .     S
Cu1177 O1215   1.959   .     S
Cu1177 O1218   1.969   .     S
Cu1177 O1222   1.962   .     S
Cu1177 O1219   1.966   .     S
Cu1177 N1213   2.031   .     S
Cu1177 Cu1366  2.703   1_455 S
Cu1178 O1216   1.959   .     S
Cu1178 O1217   1.969   .     S
Cu1178 O1220   1.966   .     S
Cu1178 O1221   1.962   .     S
Cu1178 N1214   2.031   .     S
Cu1178 Cu1271  2.703   .     S
H1208  C1239   1.083   .     S
H1209  C1332   1.083   1_455 S
H1210  C1330   1.083   1_455 S
O1217  C1223   1.306   .     S
O1218  C1328   1.305   1_455 S
O1219  C1325   1.300   1_455 S
O1220  C1232   1.299   .     S
C1223  O1309   1.291   .     A
C1223  C1226   1.453   .     S
C1224  C1226   1.414   .     A
C1224  C1255   1.481   .     S
C1225  C1234   1.451   .     S
C1225  C1270   1.414   .     A
C1225  C1363   1.395   .     S
C1227  C1229   1.421   .     A
C1227  N1308   1.401   .     A
C1227  C1262   1.518   .     S
C1228  N1307   1.399   .     A
C1228  C1230   1.422   .     A
C1228  C1264   1.518   .     S
C1229  H1277   1.080   .     S
C1229  N1307   1.346   .     A
C1230  H1278   1.080   .     S
C1230  N1308   1.348   .     A
C1231  C1233   1.466   .     S
C1231  O1315   1.304   .     A
C1231  O1407   1.300   .     S
C1232  O1316   1.305   .     A
C1232  C1235   1.466   .     S
C1233  C1240   1.397   .     A
C1233  C1238   1.400   .     A
C1234  O1310   1.292   .     A
C1234  O1406   1.305   .     S
C1235  C1241   1.395   .     A
C1235  C1239   1.401   .     A
C1236  C1238   1.391   .     A
C1236  C1244   1.402   .     A
C1236  H1398   1.083   .     S
C1237  C1246   1.402   .     A
C1237  C1239   1.392   .     A
C1237  H1305   1.083   .     S
C1238  H1397   1.083   .     S
C1240  H1301   1.072   .     S
C1240  C1242   1.404   .     A
C1241  C1243   1.406   .     A
C1241  H1295   1.077   .     S
C1242  C1247   1.426   .     A
C1242  C1244   1.419   .     A
C1243  C1248   1.422   .     A
C1243  C1246   1.416   .     A
C1244  C420    1.390   1_556 S
C1245  C1248   1.412   .     A
C1245  H1306   1.072   .     S
C1245  C1266   1.384   .     A
C1247  C1256   1.416   .     A
C1247  C402    1.421   1_556 S
C1249  C1270   1.483   .     S
C1249  C1254   1.405   .     A
C1249  C1250   1.406   .     A
C1250  H1279   1.083   .     S
C1250  C1251   1.398   .     A
C1251  C1252   1.397   .     A
C1251  H1280   1.082   .     S
C1252  C1253   1.398   .     A
C1252  H1281   1.083   .     S
C1253  H1282   1.081   .     S
C1253  C1254   1.399   .     A
C1254  H1283   1.083   .     S
C1255  C1261   1.405   .     A
C1255  C1257   1.403   .     A
C1256  C1267   1.387   .     A
C1256  H1274   1.074   .     S
C1257  C1258   1.398   .     A
C1257  H1285   1.083   .     S
C1258  C1259   1.397   .     A
C1258  H1286   1.078   .     S
C1259  H1287   1.083   .     S
C1259  C1260   1.396   .     A
C1260  H1288   1.082   .     S
C1260  C1261   1.399   .     A
C1261  H1289   1.083   .     S
C1262  H1293   1.089   .     S
C1262  C1263   1.532   .     S
C1262  H1294   1.108   .     S
C1263  H1290   1.108   .     S
C1263  H1291   1.106   .     S
C1263  H1292   1.111   .     S
C1264  H1300   1.109   .     S
C1264  C1265   1.533   .     S
C1264  H1299   1.089   .     S
C1265  H1296   1.111   .     S
C1265  H1297   1.106   .     S
C1265  H1298   1.111   .     S
C1266  H1273   1.083   .     S
C1267  H1284   1.084   .     S
C1267  C400    1.391   1_556 S
C1268  H1275   1.075   .     S
C1268  C1320   1.393   .     S
C1269  H1276   1.080   .     S
C1269  C1506   1.389   .     S
C1270  C1550   1.388   .     S
Cu1271 O1309   1.959   .     S
Cu1271 O1312   1.969   .     S
Cu1271 O1316   1.962   .     S
Cu1271 O1313   1.966   .     S
Cu1271 N1307   2.031   .     S
Cu1272 O1310   1.959   .     S
Cu1272 O1311   1.969   .     S
Cu1272 O1314   1.966   .     S
Cu1272 O1315   1.962   .     S
Cu1272 N1308   2.031   .     S
Cu1272 Cu1365  2.703   .     S
H1302  C1333   1.083   .     S
O1311  C1317   1.306   .     S
O1314  C1326   1.299   .     S
C1317  O1403   1.291   .     A
C1317  C1320   1.453   .     S
C1318  C1320   1.414   .     A
C1318  C1349   1.481   .     S
C1319  C1328   1.451   .     S
C1319  C1364   1.414   .     A
C1319  C1175   1.395   1_655 S
C1321  C1323   1.421   .     A
C1321  N1402   1.401   .     A
C1321  C1356   1.518   .     S
C1322  N1401   1.399   .     A
C1322  C1324   1.422   .     A
C1322  C1358   1.518   .     S
C1323  H1371   1.080   .     S
C1323  N1401   1.346   .     A
C1324  H1372   1.080   .     S
C1324  N1402   1.348   .     A
C1325  C1327   1.466   .     S
C1325  O1409   1.304   .     A
C1325  O1219   1.300   1_655 S
C1326  O1410   1.305   .     A
C1326  C1329   1.466   .     S
C1327  C1334   1.397   .     A
C1327  C1332   1.400   .     A
C1328  O1404   1.292   .     A
C1328  O1218   1.305   1_655 S
C1329  C1335   1.395   .     A
C1329  C1333   1.401   .     A
C1330  C1332   1.391   .     A
C1330  C1338   1.402   .     A
C1330  H1210   1.083   1_655 S
C1331  C1340   1.402   .     A
C1331  C1333   1.392   .     A
C1331  H1399   1.083   .     S
C1332  H1209   1.083   1_655 S
C1334  H1395   1.072   .     S
C1334  C1336   1.404   .     A
C1335  C1337   1.406   .     A
C1335  H1389   1.077   .     S
C1336  C1341   1.426   .     A
C1336  C1338   1.419   .     A
C1337  C1342   1.422   .     A
C1337  C1340   1.416   .     A
C1338  C514    1.390   1_556 S
C1339  C1342   1.412   .     A
C1339  H1400   1.072   .     S
C1339  C1360   1.384   .     A
C1341  C1350   1.416   .     A
C1341  C496    1.421   1_556 S
C1343  C1364   1.483   .     S
C1343  C1348   1.405   .     A
C1343  C1344   1.406   .     A
C1344  H1373   1.083   .     S
C1344  C1345   1.398   .     A
C1345  C1346   1.397   .     A
C1345  H1374   1.082   .     S
C1346  C1347   1.398   .     A
C1346  H1375   1.083   .     S
C1347  H1376   1.081   .     S
C1347  C1348   1.399   .     A
C1348  H1377   1.083   .     S
C1349  C1355   1.405   .     A
C1349  C1351   1.403   .     A
C1350  C1361   1.387   .     A
C1350  H1368   1.074   .     S
C1351  C1352   1.398   .     A
C1351  H1379   1.083   .     S
C1352  C1353   1.397   .     A
C1352  H1380   1.078   .     S
C1353  H1381   1.083   .     S
C1353  C1354   1.396   .     A
C1354  H1382   1.082   .     S
C1354  C1355   1.399   .     A
C1355  H1383   1.083   .     S
C1356  H1387   1.089   .     S
C1356  C1357   1.532   .     S
C1356  H1388   1.108   .     S
C1357  H1384   1.108   .     S
C1357  H1385   1.106   .     S
C1357  H1386   1.111   .     S
C1358  H1394   1.109   .     S
C1358  C1359   1.533   .     S
C1358  H1393   1.089   .     S
C1359  H1390   1.111   .     S
C1359  H1391   1.106   .     S
C1359  H1392   1.111   .     S
C1360  H1367   1.083   .     S
C1361  H1378   1.084   .     S
C1361  C494    1.391   1_556 S
C1362  H1369   1.075   .     S
C1362  C1132   1.393   1_655 S
C1363  H1370   1.080   .     S
C1363  C1600   1.389   .     S
C1364  C1644   1.388   .     S
Cu1365 O1403   1.959   .     S
Cu1365 O1406   1.969   .     S
Cu1365 O1410   1.962   .     S
Cu1365 O1407   1.966   .     S
Cu1365 N1401   2.031   .     S
Cu1366 O1404   1.959   .     S
Cu1366 O1405   1.969   .     S
Cu1366 O1408   1.966   .     S
Cu1366 O1409   1.962   .     S
Cu1366 N1402   2.031   .     S
Cu1366 Cu1177  2.703   1_655 S
H1396  C1145   1.083   1_655 S
O1405  C1129   1.306   1_655 S
O1408  C1138   1.299   1_655 S
C1411  O1497   1.291   .     A
C1411  C1414   1.453   .     S
C1411  O1687   1.306   1_455 S
C1412  C1414   1.414   .     A
C1412  C1443   1.481   .     S
C1413  C1422   1.451   .     S
C1413  C1458   1.414   .     A
C1413  C1551   1.395   .     S
C1414  C1644   1.393   1_455 S
C1415  C1417   1.421   .     A
C1415  N1496   1.401   .     A
C1415  C1450   1.518   .     S
C1416  N1495   1.399   .     A
C1416  C1418   1.422   .     A
C1416  C1452   1.518   .     S
C1417  H1465   1.080   .     S
C1417  N1495   1.346   .     A
C1418  H1466   1.080   .     S
C1418  N1496   1.348   .     A
C1419  C1421   1.466   .     S
C1419  O1503   1.304   .     A
C1419  O1595   1.300   .     S
C1420  O1504   1.305   .     A
C1420  C1423   1.466   .     S
C1420  O1690   1.299   1_455 S
C1421  C1428   1.397   .     A
C1421  C1426   1.400   .     A
C1422  O1498   1.292   .     A
C1422  O1594   1.305   .     S
C1423  C1429   1.395   .     A
C1423  C1427   1.401   .     A
C1424  C1426   1.391   .     A
C1424  C1432   1.402   .     A
C1424  H1586   1.083   .     S
C1425  C1434   1.402   .     A
C1425  C1427   1.392   .     A
C1425  H1493   1.083   .     S
C1426  H1585   1.083   .     S
C1427  H1678   1.083   1_455 S
C1428  H1489   1.072   .     S
C1428  C1430   1.404   .     A
C1429  C1431   1.406   .     A
C1429  H1483   1.077   .     S
C1430  C1435   1.426   .     A
C1430  C1432   1.419   .     A
C1431  C1436   1.422   .     A
C1431  C1434   1.416   .     A
C1432  C608    1.390   1_556 S
C1433  C1436   1.412   .     A
C1433  H1494   1.072   .     S
C1433  C1454   1.384   .     A
C1435  C1444   1.416   .     A
C1435  C590    1.421   1_556 S
C1437  C1458   1.483   .     S
C1437  C1442   1.405   .     A
C1437  C1438   1.406   .     A
C1438  H1467   1.083   .     S
C1438  C1439   1.398   .     A
C1439  C1440   1.397   .     A
C1439  H1468   1.082   .     S
C1440  C1441   1.398   .     A
C1440  H1469   1.083   .     S
C1441  H1470   1.081   .     S
C1441  C1442   1.399   .     A
C1442  H1471   1.083   .     S
C1443  C1449   1.405   .     A
C1443  C1445   1.403   .     A
C1444  C1455   1.387   .     A
C1444  H1462   1.074   .     S
C1445  C1446   1.398   .     A
C1445  H1473   1.083   .     S
C1446  C1447   1.397   .     A
C1446  H1474   1.078   .     S
C1447  H1475   1.083   .     S
C1447  C1448   1.396   .     A
C1448  H1476   1.082   .     S
C1448  C1449   1.399   .     A
C1449  H1477   1.083   .     S
C1450  H1481   1.089   .     S
C1450  C1451   1.532   .     S
C1450  H1482   1.108   .     S
C1451  H1478   1.108   .     S
C1451  H1479   1.106   .     S
C1451  H1480   1.111   .     S
C1452  H1488   1.109   .     S
C1452  C1453   1.533   .     S
C1452  H1487   1.089   .     S
C1453  H1484   1.111   .     S
C1453  H1485   1.106   .     S
C1453  H1486   1.111   .     S
C1454  H1461   1.083   .     S
C1455  H1472   1.084   .     S
C1455  C588    1.391   1_556 S
C1456  H1463   1.075   .     S
C1456  C1508   1.393   .     S
C1457  H1464   1.080   .     S
C1457  C1601   1.395   1_455 S
C1457  C848    1.389   1_565 S
C1458  C892    1.388   1_565 S
Cu1459 O1497   1.959   .     S
Cu1459 O1500   1.969   .     S
Cu1459 O1504   1.962   .     S
Cu1459 O1501   1.966   .     S
Cu1459 N1495   2.031   .     S
Cu1459 Cu1648  2.703   1_455 S
Cu1460 O1498   1.959   .     S
Cu1460 O1499   1.969   .     S
Cu1460 O1502   1.966   .     S
Cu1460 O1503   1.962   .     S
Cu1460 N1496   2.031   .     S
Cu1460 Cu1553  2.703   .     S
H1490  C1521   1.083   .     S
H1491  C1614   1.083   1_455 S
H1492  C1612   1.083   1_455 S
O1499  C1505   1.306   .     S
O1500  C1610   1.305   1_455 S
O1501  C1607   1.300   1_455 S
O1502  C1514   1.299   .     S
C1505  O1591   1.291   .     A
C1505  C1508   1.453   .     S
C1506  C1508   1.414   .     A
C1506  C1537   1.481   .     S
C1507  C1516   1.451   .     S
C1507  C1552   1.414   .     A
C1507  C1645   1.395   .     S
C1509  C1511   1.421   .     A
C1509  N1590   1.401   .     A
C1509  C1544   1.518   .     S
C1510  N1589   1.399   .     A
C1510  C1512   1.422   .     A
C1510  C1546   1.518   .     S
C1511  H1559   1.080   .     S
C1511  N1589   1.346   .     A
C1512  H1560   1.080   .     S
C1512  N1590   1.348   .     A
C1513  C1515   1.466   .     S
C1513  O1597   1.304   .     A
C1513  O1689   1.300   .     S
C1514  O1598   1.305   .     A
C1514  C1517   1.466   .     S
C1515  C1522   1.397   .     A
C1515  C1520   1.400   .     A
C1516  O1592   1.292   .     A
C1516  O1688   1.305   .     S
C1517  C1523   1.395   .     A
C1517  C1521   1.401   .     A
C1518  C1520   1.391   .     A
C1518  C1526   1.402   .     A
C1518  H1680   1.083   .     S
C1519  C1528   1.402   .     A
C1519  C1521   1.392   .     A
C1519  H1587   1.083   .     S
C1520  H1679   1.083   .     S
C1522  H1583   1.072   .     S
C1522  C1524   1.404   .     A
C1523  C1525   1.406   .     A
C1523  H1577   1.077   .     S
C1524  C1529   1.426   .     A
C1524  C1526   1.419   .     A
C1525  C1530   1.422   .     A
C1525  C1528   1.416   .     A
C1526  C702    1.390   1_556 S
C1527  C1530   1.412   .     A
C1527  H1588   1.072   .     S
C1527  C1548   1.384   .     A
C1529  C1538   1.416   .     A
C1529  C684    1.421   1_556 S
C1531  C1552   1.483   .     S
C1531  C1536   1.405   .     A
C1531  C1532   1.406   .     A
C1532  H1561   1.083   .     S
C1532  C1533   1.398   .     A
C1533  C1534   1.397   .     A
C1533  H1562   1.082   .     S
C1534  C1535   1.398   .     A
C1534  H1563   1.083   .     S
C1535  H1564   1.081   .     S
C1535  C1536   1.399   .     A
C1536  H1565   1.083   .     S
C1537  C1543   1.405   .     A
C1537  C1539   1.403   .     A
C1538  C1549   1.387   .     A
C1538  H1556   1.074   .     S
C1539  C1540   1.398   .     A
C1539  H1567   1.083   .     S
C1540  C1541   1.397   .     A
C1540  H1568   1.078   .     S
C1541  H1569   1.083   .     S
C1541  C1542   1.396   .     A
C1542  H1570   1.082   .     S
C1542  C1543   1.399   .     A
C1543  H1571   1.083   .     S
C1544  H1575   1.089   .     S
C1544  C1545   1.532   .     S
C1544  H1576   1.108   .     S
C1545  H1572   1.108   .     S
C1545  H1573   1.106   .     S
C1545  H1574   1.111   .     S
C1546  H1582   1.109   .     S
C1546  C1547   1.533   .     S
C1546  H1581   1.089   .     S
C1547  H1578   1.111   .     S
C1547  H1579   1.106   .     S
C1547  H1580   1.111   .     S
C1548  H1555   1.083   .     S
C1549  H1566   1.084   .     S
C1549  C682    1.391   1_556 S
C1550  H1557   1.075   .     S
C1550  C1602   1.393   .     S
C1551  H1558   1.080   .     S
C1551  C942    1.389   1_565 S
C1552  C986    1.388   1_565 S
Cu1553 O1591   1.959   .     S
Cu1553 O1594   1.969   .     S
Cu1553 O1598   1.962   .     S
Cu1553 O1595   1.966   .     S
Cu1553 N1589   2.031   .     S
Cu1554 O1592   1.959   .     S
Cu1554 O1593   1.969   .     S
Cu1554 O1596   1.966   .     S
Cu1554 O1597   1.962   .     S
Cu1554 N1590   2.031   .     S
Cu1554 Cu1647  2.703   .     S
H1584  C1615   1.083   .     S
O1593  C1599   1.306   .     S
O1596  C1608   1.299   .     S
C1599  O1685   1.291   .     A
C1599  C1602   1.453   .     S
C1600  C1602   1.414   .     A
C1600  C1631   1.481   .     S
C1601  C1610   1.451   .     S
C1601  C1646   1.414   .     A
C1601  C1457   1.395   1_655 S
C1603  C1605   1.421   .     A
C1603  N1684   1.401   .     A
C1603  C1638   1.518   .     S
C1604  N1683   1.399   .     A
C1604  C1606   1.422   .     A
C1604  C1640   1.518   .     S
C1605  H1653   1.080   .     S
C1605  N1683   1.346   .     A
C1606  H1654   1.080   .     S
C1606  N1684   1.348   .     A
C1607  C1609   1.466   .     S
C1607  O1691   1.304   .     A
C1607  O1501   1.300   1_655 S
C1608  O1692   1.305   .     A
C1608  C1611   1.466   .     S
C1609  C1616   1.397   .     A
C1609  C1614   1.400   .     A
C1610  O1686   1.292   .     A
C1610  O1500   1.305   1_655 S
C1611  C1617   1.395   .     A
C1611  C1615   1.401   .     A
C1612  C1614   1.391   .     A
C1612  C1620   1.402   .     A
C1612  H1492   1.083   1_655 S
C1613  C1622   1.402   .     A
C1613  C1615   1.392   .     A
C1613  H1681   1.083   .     S
C1614  H1491   1.083   1_655 S
C1616  H1677   1.072   .     S
C1616  C1618   1.404   .     A
C1617  C1619   1.406   .     A
C1617  H1671   1.077   .     S
C1618  C1623   1.426   .     A
C1618  C1620   1.419   .     A
C1619  C1624   1.422   .     A
C1619  C1622   1.416   .     A
C1620  C796    1.390   1_556 S
C1621  C1624   1.412   .     A
C1621  H1682   1.072   .     S
C1621  C1642   1.384   .     A
C1623  C1632   1.416   .     A
C1623  C778    1.421   1_556 S
C1625  C1646   1.483   .     S
C1625  C1630   1.405   .     A
C1625  C1626   1.406   .     A
C1626  H1655   1.083   .     S
C1626  C1627   1.398   .     A
C1627  C1628   1.397   .     A
C1627  H1656   1.082   .     S
C1628  C1629   1.398   .     A
C1628  H1657   1.083   .     S
C1629  H1658   1.081   .     S
C1629  C1630   1.399   .     A
C1630  H1659   1.083   .     S
C1631  C1637   1.405   .     A
C1631  C1633   1.403   .     A
C1632  C1643   1.387   .     A
C1632  H1650   1.074   .     S
C1633  C1634   1.398   .     A
C1633  H1661   1.083   .     S
C1634  C1635   1.397   .     A
C1634  H1662   1.078   .     S
C1635  H1663   1.083   .     S
C1635  C1636   1.396   .     A
C1636  H1664   1.082   .     S
C1636  C1637   1.399   .     A
C1637  H1665   1.083   .     S
C1638  H1669   1.089   .     S
C1638  C1639   1.532   .     S
C1638  H1670   1.108   .     S
C1639  H1666   1.108   .     S
C1639  H1667   1.106   .     S
C1639  H1668   1.111   .     S
C1640  H1676   1.109   .     S
C1640  C1641   1.533   .     S
C1640  H1675   1.089   .     S
C1641  H1672   1.111   .     S
C1641  H1673   1.106   .     S
C1641  H1674   1.111   .     S
C1642  H1649   1.083   .     S
C1643  H1660   1.084   .     S
C1643  C776    1.391   1_556 S
C1644  H1651   1.075   .     S
C1644  C1414   1.393   1_655 S
C1645  H1652   1.080   .     S
C1645  C1036   1.389   1_565 S
C1646  C1080   1.388   1_565 S
Cu1647 O1685   1.959   .     S
Cu1647 O1688   1.969   .     S
Cu1647 O1692   1.962   .     S
Cu1647 O1689   1.966   .     S
Cu1647 N1683   2.031   .     S
Cu1648 O1686   1.959   .     S
Cu1648 O1687   1.969   .     S
Cu1648 O1690   1.966   .     S
Cu1648 O1691   1.962   .     S
Cu1648 N1684   2.031   .     S
Cu1648 Cu1459  2.703   1_655 S
H1678  C1427   1.083   1_655 S
O1687  C1411   1.306   1_655 S
O1690  C1420   1.299   1_655 S
