data_str_m2_o1_o16_pcu_sym.154
_audit_creation_date              2020-01-03
_audit_creation_method            'Materials Studio'
_symmetry_space_group_name_H-M    'P1'
_symmetry_Int_Tables_number       1
_symmetry_cell_setting            triclinic
loop_
_symmetry_equiv_pos_as_xyz
  x,y,z
_cell_length_a                    28.5863
_cell_length_b                    32.4661
_cell_length_c                    26.8706
_cell_angle_alpha                 90.8805
_cell_angle_beta                  72.5063
_cell_angle_gamma                 90.7610
loop_
_atom_site_label
_atom_site_type_symbol
_atom_site_fract_x
_atom_site_fract_y
_atom_site_fract_z
_atom_site_U_iso_or_equiv
_atom_site_adp_type
_atom_site_occupancy
C1     C     0.16724   0.24599   0.24916   0.00000  Uiso   1.00
C2     C     0.14177   0.16876   0.49124   0.00000  Uiso   1.00
C3     C     0.15143   0.15514   0.43837   0.00000  Uiso   1.00
C4     C     0.17639   0.15765   0.01794   0.00000  Uiso   1.00
C5     C     0.21448   0.12926   0.49412   0.00000  Uiso   1.00
C6     C     0.21850   0.11253   0.44515   0.00000  Uiso   1.00
C7     C     0.18761   0.12523   0.41768   0.00000  Uiso   1.00
C8     C     0.17597   0.17441   0.06664   0.00000  Uiso   1.00
C9     C     0.24409   0.13203   0.06964   0.00000  Uiso   1.00
C10    C     0.12429   0.17126   0.40709   0.00000  Uiso   1.00
C11    C     0.21248   0.31294   0.22805   0.00000  Uiso   1.00
C12    C     0.14038   0.16662   0.35005   0.00000  Uiso   1.00
C13    C     0.21121   0.02241   0.22789   0.00000  Uiso   1.00
C14    C     0.16670   0.04296   0.24789   0.00000  Uiso   1.00
C15    C     0.12278   0.02092   0.26663   0.00000  Uiso   1.00
C16    C     0.12348   0.31166   0.26668   0.00000  Uiso   1.00
C17    C     0.16810   0.29073   0.24797   0.00000  Uiso   1.00
C18    C     0.30145   0.19618   0.27682   0.00000  Uiso   1.00
C19    C     0.01774   0.19635   0.27656   0.00000  Uiso   1.00
C20    C     0.03145   0.13638   0.22390   0.00000  Uiso   1.00
C21    C     0.31508   0.13664   0.22413   0.00000  Uiso   1.00
C22    C     0.16658   0.08744   0.24937   0.00000  Uiso   1.00
C23    C     0.19280   0.16627   0.15004   0.00000  Uiso   1.00
C24    C     0.24837   0.11745   0.01962   0.00000  Uiso   1.00
C25    C     0.20688   0.15957   0.09374   0.00000  Uiso   1.00
C26    C     0.08441   0.19681   0.42929   0.00000  Uiso   1.00
C27    C     0.07122   0.20676   0.48175   0.00000  Uiso   1.00
C28    C     0.09808   0.19241   0.01370   0.00000  Uiso   1.00
Cu29   Cu    0.11978   0.16666   0.25000   0.00000  Uiso   1.00
Cu30   Cu    0.21355   0.16667   0.25000   0.00000  Uiso   1.00
H31    H     0.08910   0.29510   0.28207   0.00000  Uiso   1.00
H32    H     0.30142   0.11254   0.20380   0.00000  Uiso   1.00
H33    H     0.24638   0.08996   0.42743   0.00000  Uiso   1.00
H34    H     0.27715   0.09572   0.00156   0.00000  Uiso   1.00
H35    H     0.06365   0.20984   0.40568   0.00000  Uiso   1.00
H36    H     0.19211   0.11076   0.38004   0.00000  Uiso   1.00
N37    N     0.04931   0.16666   0.24998   0.00000  Uiso   1.00
N38    N     0.28402   0.16669   0.24999   0.00000  Uiso   1.00
O39    O     0.12708   0.22678   0.25000   0.00000  Uiso   1.00
O40    O     0.20627   0.22679   0.25000   0.00000  Uiso   1.00
O41    O     0.10775   0.16665   0.32549   0.00000  Uiso   1.00
O42    O     0.18694   0.16666   0.32549   0.00000  Uiso   1.00
O43    O     0.12706   0.10654   0.24999   0.00000  Uiso   1.00
O44    O     0.20625   0.10655   0.24999   0.00000  Uiso   1.00
O45    O     0.14640   0.16667   0.17451   0.00000  Uiso   1.00
O46    O     0.22559   0.16668   0.17451   0.00000  Uiso   1.00
H47    H     0.26811   0.12021   0.09040   0.00000  Uiso   1.00
H48    H     0.24504   0.03958   0.21178   0.00000  Uiso   1.00
H49    H     0.08809   0.03658   0.28208   0.00000  Uiso   1.00
H50    H     0.27695   0.21954   0.29886   0.00000  Uiso   1.00
H51    H     0.03061   0.22006   0.29810   0.00000  Uiso   1.00
N52    N     0.06152   0.10272   0.20016   0.00000  Uiso   1.00
H53    H     0.04795   0.07502   0.21713   0.00000  Uiso   1.00
C54    C     0.07446   0.10022   0.14393   0.00000  Uiso   1.00
H55    H     0.04162   0.09258   0.13151   0.00000  Uiso   1.00
H56    H     0.10198   0.07560   0.12941   0.00000  Uiso   1.00
H57    H     0.09095   0.12966   0.12639   0.00000  Uiso   1.00
H58    H     0.15211   0.19895   0.08533   0.00000  Uiso   1.00
N59    N     0.07892   0.20057   0.06817   0.00000  Uiso   1.00
H60    H     0.08136   0.23138   0.07715   0.00000  Uiso   1.00
C61    C     0.03031   0.18404   0.09314   0.00000  Uiso   1.00
H62    H     0.02229   0.18669   0.13606   0.00000  Uiso   1.00
H63    H     0.02800   0.15113   0.08222   0.00000  Uiso   1.00
H64    H     0.00205   0.20165   0.08197   0.00000  Uiso   1.00
H65    H     0.03956   0.22612   0.49781   0.00000  Uiso   1.00
N66    N     0.25780   0.29249   0.20558   0.00000  Uiso   1.00
H67    H     0.27274   0.29843   0.16636   0.00000  Uiso   1.00
C68    C     0.29328   0.29816   0.23387   0.00000  Uiso   1.00
H69    H     0.32460   0.27712   0.21746   0.00000  Uiso   1.00
H70    H     0.27640   0.29101   0.27579   0.00000  Uiso   1.00
H71    H     0.30744   0.33037   0.23023   0.00000  Uiso   1.00
C72    C     0.50057   0.24599   0.24916   0.00000  Uiso   1.00
C73    C     0.47511   0.16876   0.49124   0.00000  Uiso   1.00
C74    C     0.48476   0.15514   0.43837   0.00000  Uiso   1.00
C75    C     0.50972   0.15765   0.01794   0.00000  Uiso   1.00
C76    C     0.54781   0.12926   0.49412   0.00000  Uiso   1.00
C77    C     0.55183   0.11253   0.44515   0.00000  Uiso   1.00
C78    C     0.52095   0.12523   0.41768   0.00000  Uiso   1.00
C79    C     0.50930   0.17441   0.06664   0.00000  Uiso   1.00
C80    C     0.57742   0.13203   0.06964   0.00000  Uiso   1.00
C81    C     0.45762   0.17126   0.40709   0.00000  Uiso   1.00
C82    C     0.54581   0.31294   0.22805   0.00000  Uiso   1.00
C83    C     0.47371   0.16662   0.35005   0.00000  Uiso   1.00
C84    C     0.54454   0.02241   0.22789   0.00000  Uiso   1.00
C85    C     0.50004   0.04296   0.24789   0.00000  Uiso   1.00
C86    C     0.45611   0.02092   0.26663   0.00000  Uiso   1.00
C87    C     0.45682   0.31166   0.26668   0.00000  Uiso   1.00
C88    C     0.50144   0.29073   0.24797   0.00000  Uiso   1.00
C89    C     0.63479   0.19618   0.27682   0.00000  Uiso   1.00
C90    C     0.35107   0.19635   0.27656   0.00000  Uiso   1.00
C91    C     0.36479   0.13638   0.22390   0.00000  Uiso   1.00
C92    C     0.64841   0.13664   0.22413   0.00000  Uiso   1.00
C93    C     0.49991   0.08744   0.24937   0.00000  Uiso   1.00
C94    C     0.52614   0.16627   0.15004   0.00000  Uiso   1.00
C95    C     0.58171   0.11745   0.01962   0.00000  Uiso   1.00
C96    C     0.54021   0.15957   0.09374   0.00000  Uiso   1.00
C97    C     0.41775   0.19681   0.42929   0.00000  Uiso   1.00
C98    C     0.40455   0.20676   0.48175   0.00000  Uiso   1.00
C99    C     0.43141   0.19241   0.01370   0.00000  Uiso   1.00
Cu100  Cu    0.45311   0.16666   0.25000   0.00000  Uiso   1.00
Cu101  Cu    0.54689   0.16667   0.25000   0.00000  Uiso   1.00
H102   H     0.42244   0.29510   0.28207   0.00000  Uiso   1.00
H103   H     0.63475   0.11254   0.20380   0.00000  Uiso   1.00
H104   H     0.57972   0.08996   0.42743   0.00000  Uiso   1.00
H105   H     0.61048   0.09572   0.00156   0.00000  Uiso   1.00
H106   H     0.39698   0.20984   0.40568   0.00000  Uiso   1.00
H107   H     0.52545   0.11076   0.38004   0.00000  Uiso   1.00
N108   N     0.38265   0.16666   0.24998   0.00000  Uiso   1.00
N109   N     0.61735   0.16669   0.24999   0.00000  Uiso   1.00
O110   O     0.46042   0.22678   0.25000   0.00000  Uiso   1.00
O111   O     0.53961   0.22679   0.25000   0.00000  Uiso   1.00
O112   O     0.44108   0.16665   0.32549   0.00000  Uiso   1.00
O113   O     0.52027   0.16666   0.32549   0.00000  Uiso   1.00
O114   O     0.46039   0.10654   0.24999   0.00000  Uiso   1.00
O115   O     0.53958   0.10655   0.24999   0.00000  Uiso   1.00
O116   O     0.47973   0.16667   0.17451   0.00000  Uiso   1.00
O117   O     0.55892   0.16668   0.17451   0.00000  Uiso   1.00
H118   H     0.60145   0.12021   0.09040   0.00000  Uiso   1.00
H119   H     0.57837   0.03958   0.21178   0.00000  Uiso   1.00
H120   H     0.42142   0.03658   0.28208   0.00000  Uiso   1.00
H121   H     0.61028   0.21954   0.29886   0.00000  Uiso   1.00
H122   H     0.36394   0.22006   0.29810   0.00000  Uiso   1.00
N123   N     0.39485   0.10272   0.20016   0.00000  Uiso   1.00
H124   H     0.38128   0.07502   0.21713   0.00000  Uiso   1.00
C125   C     0.40779   0.10022   0.14393   0.00000  Uiso   1.00
H126   H     0.37496   0.09258   0.13151   0.00000  Uiso   1.00
H127   H     0.43532   0.07560   0.12941   0.00000  Uiso   1.00
H128   H     0.42428   0.12966   0.12639   0.00000  Uiso   1.00
H129   H     0.48544   0.19895   0.08533   0.00000  Uiso   1.00
N130   N     0.41226   0.20057   0.06817   0.00000  Uiso   1.00
H131   H     0.41469   0.23138   0.07715   0.00000  Uiso   1.00
C132   C     0.36365   0.18404   0.09314   0.00000  Uiso   1.00
H133   H     0.35562   0.18669   0.13606   0.00000  Uiso   1.00
H134   H     0.36133   0.15113   0.08222   0.00000  Uiso   1.00
H135   H     0.33538   0.20165   0.08197   0.00000  Uiso   1.00
H136   H     0.37289   0.22612   0.49781   0.00000  Uiso   1.00
N137   N     0.59113   0.29249   0.20558   0.00000  Uiso   1.00
H138   H     0.60607   0.29843   0.16636   0.00000  Uiso   1.00
C139   C     0.62661   0.29816   0.23387   0.00000  Uiso   1.00
H140   H     0.65794   0.27712   0.21746   0.00000  Uiso   1.00
H141   H     0.60974   0.29101   0.27579   0.00000  Uiso   1.00
H142   H     0.64078   0.33037   0.23023   0.00000  Uiso   1.00
C143   C     0.83390   0.24599   0.24916   0.00000  Uiso   1.00
C144   C     0.80844   0.16876   0.49124   0.00000  Uiso   1.00
C145   C     0.81810   0.15514   0.43837   0.00000  Uiso   1.00
C146   C     0.84306   0.15765   0.01794   0.00000  Uiso   1.00
C147   C     0.88115   0.12926   0.49412   0.00000  Uiso   1.00
C148   C     0.88516   0.11253   0.44515   0.00000  Uiso   1.00
C149   C     0.85428   0.12523   0.41768   0.00000  Uiso   1.00
C150   C     0.84264   0.17441   0.06664   0.00000  Uiso   1.00
C151   C     0.91076   0.13203   0.06964   0.00000  Uiso   1.00
C152   C     0.79095   0.17126   0.40709   0.00000  Uiso   1.00
C153   C     0.87914   0.31294   0.22805   0.00000  Uiso   1.00
C154   C     0.80704   0.16662   0.35005   0.00000  Uiso   1.00
C155   C     0.87787   0.02241   0.22789   0.00000  Uiso   1.00
C156   C     0.83337   0.04296   0.24789   0.00000  Uiso   1.00
C157   C     0.78944   0.02092   0.26663   0.00000  Uiso   1.00
C158   C     0.79015   0.31166   0.26668   0.00000  Uiso   1.00
C159   C     0.83477   0.29073   0.24797   0.00000  Uiso   1.00
C160   C     0.96812   0.19618   0.27682   0.00000  Uiso   1.00
C161   C     0.68441   0.19635   0.27656   0.00000  Uiso   1.00
C162   C     0.69812   0.13638   0.22390   0.00000  Uiso   1.00
C163   C     0.98175   0.13664   0.22413   0.00000  Uiso   1.00
C164   C     0.83324   0.08744   0.24937   0.00000  Uiso   1.00
C165   C     0.85947   0.16627   0.15004   0.00000  Uiso   1.00
C166   C     0.91504   0.11745   0.01962   0.00000  Uiso   1.00
C167   C     0.87354   0.15957   0.09374   0.00000  Uiso   1.00
C168   C     0.75108   0.19681   0.42929   0.00000  Uiso   1.00
C169   C     0.73788   0.20676   0.48175   0.00000  Uiso   1.00
C170   C     0.76474   0.19241   0.01370   0.00000  Uiso   1.00
Cu171  Cu    0.78645   0.16666   0.25000   0.00000  Uiso   1.00
Cu172  Cu    0.88022   0.16667   0.25000   0.00000  Uiso   1.00
H173   H     0.75577   0.29510   0.28207   0.00000  Uiso   1.00
H174   H     0.96808   0.11254   0.20380   0.00000  Uiso   1.00
H175   H     0.91305   0.08996   0.42743   0.00000  Uiso   1.00
H176   H     0.94382   0.09572   0.00156   0.00000  Uiso   1.00
H177   H     0.73032   0.20984   0.40568   0.00000  Uiso   1.00
H178   H     0.85878   0.11076   0.38004   0.00000  Uiso   1.00
N179   N     0.71598   0.16666   0.24998   0.00000  Uiso   1.00
N180   N     0.95069   0.16669   0.24999   0.00000  Uiso   1.00
O181   O     0.79375   0.22678   0.25000   0.00000  Uiso   1.00
O182   O     0.87294   0.22679   0.25000   0.00000  Uiso   1.00
O183   O     0.77441   0.16665   0.32549   0.00000  Uiso   1.00
O184   O     0.85360   0.16666   0.32549   0.00000  Uiso   1.00
O185   O     0.79373   0.10654   0.24999   0.00000  Uiso   1.00
O186   O     0.87292   0.10655   0.24999   0.00000  Uiso   1.00
O187   O     0.81306   0.16667   0.17451   0.00000  Uiso   1.00
O188   O     0.89225   0.16668   0.17451   0.00000  Uiso   1.00
H189   H     0.93478   0.12021   0.09040   0.00000  Uiso   1.00
H190   H     0.91170   0.03958   0.21178   0.00000  Uiso   1.00
H191   H     0.75475   0.03658   0.28208   0.00000  Uiso   1.00
H192   H     0.94361   0.21954   0.29886   0.00000  Uiso   1.00
H193   H     0.69727   0.22006   0.29810   0.00000  Uiso   1.00
N194   N     0.72819   0.10272   0.20016   0.00000  Uiso   1.00
H195   H     0.71462   0.07502   0.21713   0.00000  Uiso   1.00
C196   C     0.74112   0.10022   0.14393   0.00000  Uiso   1.00
H197   H     0.70829   0.09258   0.13151   0.00000  Uiso   1.00
H198   H     0.76865   0.07560   0.12941   0.00000  Uiso   1.00
H199   H     0.75761   0.12966   0.12639   0.00000  Uiso   1.00
H200   H     0.81877   0.19895   0.08533   0.00000  Uiso   1.00
N201   N     0.74559   0.20057   0.06817   0.00000  Uiso   1.00
H202   H     0.74802   0.23138   0.07715   0.00000  Uiso   1.00
C203   C     0.69698   0.18404   0.09314   0.00000  Uiso   1.00
H204   H     0.68896   0.18669   0.13606   0.00000  Uiso   1.00
H205   H     0.69467   0.15113   0.08222   0.00000  Uiso   1.00
H206   H     0.66872   0.20165   0.08197   0.00000  Uiso   1.00
H207   H     0.70623   0.22612   0.49781   0.00000  Uiso   1.00
N208   N     0.92447   0.29249   0.20558   0.00000  Uiso   1.00
H209   H     0.93941   0.29843   0.16636   0.00000  Uiso   1.00
C210   C     0.95994   0.29816   0.23387   0.00000  Uiso   1.00
H211   H     0.99127   0.27712   0.21746   0.00000  Uiso   1.00
H212   H     0.94307   0.29101   0.27579   0.00000  Uiso   1.00
H213   H     0.97411   0.33037   0.23023   0.00000  Uiso   1.00
C214   C     0.16724   0.57932   0.24916   0.00000  Uiso   1.00
C215   C     0.14177   0.50209   0.49124   0.00000  Uiso   1.00
C216   C     0.15143   0.48847   0.43837   0.00000  Uiso   1.00
C217   C     0.17639   0.49099   0.01794   0.00000  Uiso   1.00
C218   C     0.21448   0.46260   0.49412   0.00000  Uiso   1.00
C219   C     0.21850   0.44586   0.44515   0.00000  Uiso   1.00
C220   C     0.18761   0.45857   0.41768   0.00000  Uiso   1.00
C221   C     0.17597   0.50774   0.06664   0.00000  Uiso   1.00
C222   C     0.24409   0.46536   0.06964   0.00000  Uiso   1.00
C223   C     0.12429   0.50459   0.40709   0.00000  Uiso   1.00
C224   C     0.21248   0.64628   0.22805   0.00000  Uiso   1.00
C225   C     0.14038   0.49996   0.35005   0.00000  Uiso   1.00
C226   C     0.21121   0.35574   0.22789   0.00000  Uiso   1.00
C227   C     0.16670   0.37629   0.24789   0.00000  Uiso   1.00
C228   C     0.12278   0.35425   0.26663   0.00000  Uiso   1.00
C229   C     0.12348   0.64499   0.26668   0.00000  Uiso   1.00
C230   C     0.16810   0.62406   0.24797   0.00000  Uiso   1.00
C231   C     0.30145   0.52951   0.27682   0.00000  Uiso   1.00
C232   C     0.01774   0.52968   0.27656   0.00000  Uiso   1.00
C233   C     0.03145   0.46972   0.22390   0.00000  Uiso   1.00
C234   C     0.31508   0.46997   0.22413   0.00000  Uiso   1.00
C235   C     0.16658   0.42078   0.24937   0.00000  Uiso   1.00
C236   C     0.19280   0.49960   0.15004   0.00000  Uiso   1.00
C237   C     0.24837   0.45079   0.01962   0.00000  Uiso   1.00
C238   C     0.20688   0.49291   0.09374   0.00000  Uiso   1.00
C239   C     0.08441   0.53014   0.42929   0.00000  Uiso   1.00
C240   C     0.07122   0.54009   0.48175   0.00000  Uiso   1.00
C241   C     0.09808   0.52575   0.01370   0.00000  Uiso   1.00
Cu242  Cu    0.11978   0.49999   0.25000   0.00000  Uiso   1.00
Cu243  Cu    0.21355   0.50001   0.25000   0.00000  Uiso   1.00
H244   H     0.08910   0.62843   0.28207   0.00000  Uiso   1.00
H245   H     0.30142   0.44588   0.20380   0.00000  Uiso   1.00
H246   H     0.24638   0.42329   0.42743   0.00000  Uiso   1.00
H247   H     0.27715   0.42905   0.00156   0.00000  Uiso   1.00
H248   H     0.06365   0.54317   0.40568   0.00000  Uiso   1.00
H249   H     0.19211   0.44409   0.38004   0.00000  Uiso   1.00
N250   N     0.04931   0.49999   0.24998   0.00000  Uiso   1.00
N251   N     0.28402   0.50002   0.24999   0.00000  Uiso   1.00
O252   O     0.12708   0.56011   0.25000   0.00000  Uiso   1.00
O253   O     0.20627   0.56012   0.25000   0.00000  Uiso   1.00
O254   O     0.10775   0.49998   0.32549   0.00000  Uiso   1.00
O255   O     0.18694   0.49999   0.32549   0.00000  Uiso   1.00
O256   O     0.12706   0.43988   0.24999   0.00000  Uiso   1.00
O257   O     0.20625   0.43989   0.24999   0.00000  Uiso   1.00
O258   O     0.14640   0.50001   0.17451   0.00000  Uiso   1.00
O259   O     0.22559   0.50002   0.17451   0.00000  Uiso   1.00
H260   H     0.26811   0.45354   0.09040   0.00000  Uiso   1.00
H261   H     0.24504   0.37291   0.21178   0.00000  Uiso   1.00
H262   H     0.08809   0.36991   0.28208   0.00000  Uiso   1.00
H263   H     0.27695   0.55287   0.29886   0.00000  Uiso   1.00
H264   H     0.03061   0.55339   0.29810   0.00000  Uiso   1.00
N265   N     0.06152   0.43606   0.20016   0.00000  Uiso   1.00
H266   H     0.04795   0.40836   0.21713   0.00000  Uiso   1.00
C267   C     0.07446   0.43355   0.14393   0.00000  Uiso   1.00
H268   H     0.04162   0.42591   0.13151   0.00000  Uiso   1.00
H269   H     0.10198   0.40894   0.12941   0.00000  Uiso   1.00
H270   H     0.09095   0.46299   0.12639   0.00000  Uiso   1.00
H271   H     0.15211   0.53228   0.08533   0.00000  Uiso   1.00
N272   N     0.07892   0.53390   0.06817   0.00000  Uiso   1.00
H273   H     0.08136   0.56472   0.07715   0.00000  Uiso   1.00
C274   C     0.03031   0.51738   0.09314   0.00000  Uiso   1.00
H275   H     0.02229   0.52003   0.13606   0.00000  Uiso   1.00
H276   H     0.02800   0.48446   0.08222   0.00000  Uiso   1.00
H277   H     0.00205   0.53499   0.08197   0.00000  Uiso   1.00
H278   H     0.03956   0.55945   0.49781   0.00000  Uiso   1.00
N279   N     0.25780   0.62582   0.20558   0.00000  Uiso   1.00
H280   H     0.27274   0.63176   0.16636   0.00000  Uiso   1.00
C281   C     0.29328   0.63150   0.23387   0.00000  Uiso   1.00
H282   H     0.32460   0.61045   0.21746   0.00000  Uiso   1.00
H283   H     0.27640   0.62434   0.27579   0.00000  Uiso   1.00
H284   H     0.30744   0.66370   0.23023   0.00000  Uiso   1.00
C285   C     0.50057   0.57932   0.24916   0.00000  Uiso   1.00
C286   C     0.47511   0.50209   0.49124   0.00000  Uiso   1.00
C287   C     0.48476   0.48847   0.43837   0.00000  Uiso   1.00
C288   C     0.50972   0.49099   0.01794   0.00000  Uiso   1.00
C289   C     0.54781   0.46260   0.49412   0.00000  Uiso   1.00
C290   C     0.55183   0.44586   0.44515   0.00000  Uiso   1.00
C291   C     0.52095   0.45857   0.41768   0.00000  Uiso   1.00
C292   C     0.50930   0.50774   0.06664   0.00000  Uiso   1.00
C293   C     0.57742   0.46536   0.06964   0.00000  Uiso   1.00
C294   C     0.45762   0.50459   0.40709   0.00000  Uiso   1.00
C295   C     0.54581   0.64628   0.22805   0.00000  Uiso   1.00
C296   C     0.47371   0.49996   0.35005   0.00000  Uiso   1.00
C297   C     0.54454   0.35574   0.22789   0.00000  Uiso   1.00
C298   C     0.50004   0.37629   0.24789   0.00000  Uiso   1.00
C299   C     0.45611   0.35425   0.26663   0.00000  Uiso   1.00
C300   C     0.45682   0.64499   0.26668   0.00000  Uiso   1.00
C301   C     0.50144   0.62406   0.24797   0.00000  Uiso   1.00
C302   C     0.63479   0.52951   0.27682   0.00000  Uiso   1.00
C303   C     0.35107   0.52968   0.27656   0.00000  Uiso   1.00
C304   C     0.36479   0.46972   0.22390   0.00000  Uiso   1.00
C305   C     0.64841   0.46997   0.22413   0.00000  Uiso   1.00
C306   C     0.49991   0.42078   0.24937   0.00000  Uiso   1.00
C307   C     0.52614   0.49960   0.15004   0.00000  Uiso   1.00
C308   C     0.58171   0.45079   0.01962   0.00000  Uiso   1.00
C309   C     0.54021   0.49291   0.09374   0.00000  Uiso   1.00
C310   C     0.41775   0.53014   0.42929   0.00000  Uiso   1.00
C311   C     0.40455   0.54009   0.48175   0.00000  Uiso   1.00
C312   C     0.43141   0.52575   0.01370   0.00000  Uiso   1.00
Cu313  Cu    0.45311   0.49999   0.25000   0.00000  Uiso   1.00
Cu314  Cu    0.54689   0.50001   0.25000   0.00000  Uiso   1.00
H315   H     0.42244   0.62843   0.28207   0.00000  Uiso   1.00
H316   H     0.63475   0.44588   0.20380   0.00000  Uiso   1.00
H317   H     0.57972   0.42329   0.42743   0.00000  Uiso   1.00
H318   H     0.61048   0.42905   0.00156   0.00000  Uiso   1.00
H319   H     0.39698   0.54317   0.40568   0.00000  Uiso   1.00
H320   H     0.52545   0.44409   0.38004   0.00000  Uiso   1.00
N321   N     0.38265   0.49999   0.24998   0.00000  Uiso   1.00
N322   N     0.61735   0.50002   0.24999   0.00000  Uiso   1.00
O323   O     0.46042   0.56011   0.25000   0.00000  Uiso   1.00
O324   O     0.53961   0.56012   0.25000   0.00000  Uiso   1.00
O325   O     0.44108   0.49998   0.32549   0.00000  Uiso   1.00
O326   O     0.52027   0.49999   0.32549   0.00000  Uiso   1.00
O327   O     0.46039   0.43988   0.24999   0.00000  Uiso   1.00
O328   O     0.53958   0.43989   0.24999   0.00000  Uiso   1.00
O329   O     0.47973   0.50001   0.17451   0.00000  Uiso   1.00
O330   O     0.55892   0.50002   0.17451   0.00000  Uiso   1.00
H331   H     0.60145   0.45354   0.09040   0.00000  Uiso   1.00
H332   H     0.57837   0.37291   0.21178   0.00000  Uiso   1.00
H333   H     0.42142   0.36991   0.28208   0.00000  Uiso   1.00
H334   H     0.61028   0.55287   0.29886   0.00000  Uiso   1.00
H335   H     0.36394   0.55339   0.29810   0.00000  Uiso   1.00
N336   N     0.39485   0.43606   0.20016   0.00000  Uiso   1.00
H337   H     0.38128   0.40836   0.21713   0.00000  Uiso   1.00
C338   C     0.40779   0.43355   0.14393   0.00000  Uiso   1.00
H339   H     0.37496   0.42591   0.13151   0.00000  Uiso   1.00
H340   H     0.43532   0.40894   0.12941   0.00000  Uiso   1.00
H341   H     0.42428   0.46299   0.12639   0.00000  Uiso   1.00
H342   H     0.48544   0.53228   0.08533   0.00000  Uiso   1.00
N343   N     0.41226   0.53390   0.06817   0.00000  Uiso   1.00
H344   H     0.41469   0.56472   0.07715   0.00000  Uiso   1.00
C345   C     0.36365   0.51738   0.09314   0.00000  Uiso   1.00
H346   H     0.35562   0.52003   0.13606   0.00000  Uiso   1.00
H347   H     0.36133   0.48446   0.08222   0.00000  Uiso   1.00
H348   H     0.33538   0.53499   0.08197   0.00000  Uiso   1.00
H349   H     0.37289   0.55945   0.49781   0.00000  Uiso   1.00
N350   N     0.59113   0.62582   0.20558   0.00000  Uiso   1.00
H351   H     0.60607   0.63176   0.16636   0.00000  Uiso   1.00
C352   C     0.62661   0.63150   0.23387   0.00000  Uiso   1.00
H353   H     0.65794   0.61045   0.21746   0.00000  Uiso   1.00
H354   H     0.60974   0.62434   0.27579   0.00000  Uiso   1.00
H355   H     0.64078   0.66370   0.23023   0.00000  Uiso   1.00
C356   C     0.83390   0.57932   0.24916   0.00000  Uiso   1.00
C357   C     0.80844   0.50209   0.49124   0.00000  Uiso   1.00
C358   C     0.81810   0.48847   0.43837   0.00000  Uiso   1.00
C359   C     0.84306   0.49099   0.01794   0.00000  Uiso   1.00
C360   C     0.88115   0.46260   0.49412   0.00000  Uiso   1.00
C361   C     0.88516   0.44586   0.44515   0.00000  Uiso   1.00
C362   C     0.85428   0.45857   0.41768   0.00000  Uiso   1.00
C363   C     0.84264   0.50774   0.06664   0.00000  Uiso   1.00
C364   C     0.91076   0.46536   0.06964   0.00000  Uiso   1.00
C365   C     0.79095   0.50459   0.40709   0.00000  Uiso   1.00
C366   C     0.87914   0.64628   0.22805   0.00000  Uiso   1.00
C367   C     0.80704   0.49996   0.35005   0.00000  Uiso   1.00
C368   C     0.87787   0.35574   0.22789   0.00000  Uiso   1.00
C369   C     0.83337   0.37629   0.24789   0.00000  Uiso   1.00
C370   C     0.78944   0.35425   0.26663   0.00000  Uiso   1.00
C371   C     0.79015   0.64499   0.26668   0.00000  Uiso   1.00
C372   C     0.83477   0.62406   0.24797   0.00000  Uiso   1.00
C373   C     0.96812   0.52951   0.27682   0.00000  Uiso   1.00
C374   C     0.68441   0.52968   0.27656   0.00000  Uiso   1.00
C375   C     0.69812   0.46972   0.22390   0.00000  Uiso   1.00
C376   C     0.98175   0.46997   0.22413   0.00000  Uiso   1.00
C377   C     0.83324   0.42078   0.24937   0.00000  Uiso   1.00
C378   C     0.85947   0.49960   0.15004   0.00000  Uiso   1.00
C379   C     0.91504   0.45079   0.01962   0.00000  Uiso   1.00
C380   C     0.87354   0.49291   0.09374   0.00000  Uiso   1.00
C381   C     0.75108   0.53014   0.42929   0.00000  Uiso   1.00
C382   C     0.73788   0.54009   0.48175   0.00000  Uiso   1.00
C383   C     0.76474   0.52575   0.01370   0.00000  Uiso   1.00
Cu384  Cu    0.78645   0.49999   0.25000   0.00000  Uiso   1.00
Cu385  Cu    0.88022   0.50001   0.25000   0.00000  Uiso   1.00
H386   H     0.75577   0.62843   0.28207   0.00000  Uiso   1.00
H387   H     0.96808   0.44588   0.20380   0.00000  Uiso   1.00
H388   H     0.91305   0.42329   0.42743   0.00000  Uiso   1.00
H389   H     0.94382   0.42905   0.00156   0.00000  Uiso   1.00
H390   H     0.73032   0.54317   0.40568   0.00000  Uiso   1.00
H391   H     0.85878   0.44409   0.38004   0.00000  Uiso   1.00
N392   N     0.71598   0.49999   0.24998   0.00000  Uiso   1.00
N393   N     0.95069   0.50002   0.24999   0.00000  Uiso   1.00
O394   O     0.79375   0.56011   0.25000   0.00000  Uiso   1.00
O395   O     0.87294   0.56012   0.25000   0.00000  Uiso   1.00
O396   O     0.77441   0.49998   0.32549   0.00000  Uiso   1.00
O397   O     0.85360   0.49999   0.32549   0.00000  Uiso   1.00
O398   O     0.79373   0.43988   0.24999   0.00000  Uiso   1.00
O399   O     0.87292   0.43989   0.24999   0.00000  Uiso   1.00
O400   O     0.81306   0.50001   0.17451   0.00000  Uiso   1.00
O401   O     0.89225   0.50002   0.17451   0.00000  Uiso   1.00
H402   H     0.93478   0.45354   0.09040   0.00000  Uiso   1.00
H403   H     0.91170   0.37291   0.21178   0.00000  Uiso   1.00
H404   H     0.75475   0.36991   0.28208   0.00000  Uiso   1.00
H405   H     0.94361   0.55287   0.29886   0.00000  Uiso   1.00
H406   H     0.69727   0.55339   0.29810   0.00000  Uiso   1.00
N407   N     0.72819   0.43606   0.20016   0.00000  Uiso   1.00
H408   H     0.71462   0.40836   0.21713   0.00000  Uiso   1.00
C409   C     0.74112   0.43355   0.14393   0.00000  Uiso   1.00
H410   H     0.70829   0.42591   0.13151   0.00000  Uiso   1.00
H411   H     0.76865   0.40894   0.12941   0.00000  Uiso   1.00
H412   H     0.75761   0.46299   0.12639   0.00000  Uiso   1.00
H413   H     0.81877   0.53228   0.08533   0.00000  Uiso   1.00
N414   N     0.74559   0.53390   0.06817   0.00000  Uiso   1.00
H415   H     0.74802   0.56472   0.07715   0.00000  Uiso   1.00
C416   C     0.69698   0.51738   0.09314   0.00000  Uiso   1.00
H417   H     0.68896   0.52003   0.13606   0.00000  Uiso   1.00
H418   H     0.69467   0.48446   0.08222   0.00000  Uiso   1.00
H419   H     0.66872   0.53499   0.08197   0.00000  Uiso   1.00
H420   H     0.70623   0.55945   0.49781   0.00000  Uiso   1.00
N421   N     0.92447   0.62582   0.20558   0.00000  Uiso   1.00
H422   H     0.93941   0.63176   0.16636   0.00000  Uiso   1.00
C423   C     0.95994   0.63150   0.23387   0.00000  Uiso   1.00
H424   H     0.99127   0.61045   0.21746   0.00000  Uiso   1.00
H425   H     0.94307   0.62434   0.27579   0.00000  Uiso   1.00
H426   H     0.97411   0.66370   0.23023   0.00000  Uiso   1.00
C427   C     0.16724   0.91265   0.24916   0.00000  Uiso   1.00
C428   C     0.14177   0.83543   0.49124   0.00000  Uiso   1.00
C429   C     0.15143   0.82180   0.43837   0.00000  Uiso   1.00
C430   C     0.17639   0.82432   0.01794   0.00000  Uiso   1.00
C431   C     0.21448   0.79593   0.49412   0.00000  Uiso   1.00
C432   C     0.21850   0.77920   0.44515   0.00000  Uiso   1.00
C433   C     0.18761   0.79190   0.41768   0.00000  Uiso   1.00
C434   C     0.17597   0.84108   0.06664   0.00000  Uiso   1.00
C435   C     0.24409   0.79870   0.06964   0.00000  Uiso   1.00
C436   C     0.12429   0.83792   0.40709   0.00000  Uiso   1.00
C437   C     0.21248   0.97961   0.22805   0.00000  Uiso   1.00
C438   C     0.14038   0.83329   0.35005   0.00000  Uiso   1.00
C439   C     0.21121   0.68907   0.22789   0.00000  Uiso   1.00
C440   C     0.16670   0.70962   0.24789   0.00000  Uiso   1.00
C441   C     0.12278   0.68758   0.26663   0.00000  Uiso   1.00
C442   C     0.12348   0.97833   0.26668   0.00000  Uiso   1.00
C443   C     0.16810   0.95740   0.24797   0.00000  Uiso   1.00
C444   C     0.30145   0.86285   0.27682   0.00000  Uiso   1.00
C445   C     0.01774   0.86301   0.27656   0.00000  Uiso   1.00
C446   C     0.03145   0.80305   0.22390   0.00000  Uiso   1.00
C447   C     0.31508   0.80331   0.22413   0.00000  Uiso   1.00
C448   C     0.16658   0.75411   0.24937   0.00000  Uiso   1.00
C449   C     0.19280   0.83293   0.15004   0.00000  Uiso   1.00
C450   C     0.24837   0.78412   0.01962   0.00000  Uiso   1.00
C451   C     0.20688   0.82624   0.09374   0.00000  Uiso   1.00
C452   C     0.08441   0.86348   0.42929   0.00000  Uiso   1.00
C453   C     0.07122   0.87343   0.48175   0.00000  Uiso   1.00
C454   C     0.09808   0.85908   0.01370   0.00000  Uiso   1.00
Cu455  Cu    0.11978   0.83333   0.25000   0.00000  Uiso   1.00
Cu456  Cu    0.21355   0.83334   0.25000   0.00000  Uiso   1.00
H457   H     0.08910   0.96177   0.28207   0.00000  Uiso   1.00
H458   H     0.30142   0.77921   0.20380   0.00000  Uiso   1.00
H459   H     0.24638   0.75662   0.42743   0.00000  Uiso   1.00
H460   H     0.27715   0.76239   0.00156   0.00000  Uiso   1.00
H461   H     0.06365   0.87651   0.40568   0.00000  Uiso   1.00
H462   H     0.19211   0.77742   0.38004   0.00000  Uiso   1.00
N463   N     0.04931   0.83332   0.24998   0.00000  Uiso   1.00
N464   N     0.28402   0.83335   0.24999   0.00000  Uiso   1.00
O465   O     0.12708   0.89345   0.25000   0.00000  Uiso   1.00
O466   O     0.20627   0.89346   0.25000   0.00000  Uiso   1.00
O467   O     0.10775   0.83332   0.32549   0.00000  Uiso   1.00
O468   O     0.18694   0.83333   0.32549   0.00000  Uiso   1.00
O469   O     0.12706   0.77321   0.24999   0.00000  Uiso   1.00
O470   O     0.20625   0.77322   0.24999   0.00000  Uiso   1.00
O471   O     0.14640   0.83334   0.17451   0.00000  Uiso   1.00
O472   O     0.22559   0.83335   0.17451   0.00000  Uiso   1.00
H473   H     0.26811   0.78688   0.09040   0.00000  Uiso   1.00
H474   H     0.24504   0.70625   0.21178   0.00000  Uiso   1.00
H475   H     0.08809   0.70325   0.28208   0.00000  Uiso   1.00
H476   H     0.27695   0.88620   0.29886   0.00000  Uiso   1.00
H477   H     0.03061   0.88672   0.29810   0.00000  Uiso   1.00
N478   N     0.06152   0.76939   0.20016   0.00000  Uiso   1.00
H479   H     0.04795   0.74169   0.21713   0.00000  Uiso   1.00
C480   C     0.07446   0.76689   0.14393   0.00000  Uiso   1.00
H481   H     0.04162   0.75925   0.13151   0.00000  Uiso   1.00
H482   H     0.10198   0.74227   0.12941   0.00000  Uiso   1.00
H483   H     0.09095   0.79632   0.12639   0.00000  Uiso   1.00
H484   H     0.15211   0.86561   0.08533   0.00000  Uiso   1.00
N485   N     0.07892   0.86724   0.06817   0.00000  Uiso   1.00
H486   H     0.08136   0.89805   0.07715   0.00000  Uiso   1.00
C487   C     0.03031   0.85071   0.09314   0.00000  Uiso   1.00
H488   H     0.02229   0.85336   0.13606   0.00000  Uiso   1.00
H489   H     0.02800   0.81779   0.08222   0.00000  Uiso   1.00
H490   H     0.00205   0.86832   0.08197   0.00000  Uiso   1.00
H491   H     0.03956   0.89279   0.49781   0.00000  Uiso   1.00
N492   N     0.25780   0.95915   0.20558   0.00000  Uiso   1.00
H493   H     0.27274   0.96510   0.16636   0.00000  Uiso   1.00
C494   C     0.29328   0.96483   0.23387   0.00000  Uiso   1.00
H495   H     0.32460   0.94379   0.21746   0.00000  Uiso   1.00
H496   H     0.27640   0.95768   0.27579   0.00000  Uiso   1.00
H497   H     0.30744   0.99704   0.23023   0.00000  Uiso   1.00
C498   C     0.50057   0.91265   0.24916   0.00000  Uiso   1.00
C499   C     0.47511   0.83543   0.49124   0.00000  Uiso   1.00
C500   C     0.48476   0.82180   0.43837   0.00000  Uiso   1.00
C501   C     0.50972   0.82432   0.01794   0.00000  Uiso   1.00
C502   C     0.54781   0.79593   0.49412   0.00000  Uiso   1.00
C503   C     0.55183   0.77920   0.44515   0.00000  Uiso   1.00
C504   C     0.52095   0.79190   0.41768   0.00000  Uiso   1.00
C505   C     0.50930   0.84108   0.06664   0.00000  Uiso   1.00
C506   C     0.57742   0.79870   0.06964   0.00000  Uiso   1.00
C507   C     0.45762   0.83792   0.40709   0.00000  Uiso   1.00
C508   C     0.54581   0.97961   0.22805   0.00000  Uiso   1.00
C509   C     0.47371   0.83329   0.35005   0.00000  Uiso   1.00
C510   C     0.54454   0.68907   0.22789   0.00000  Uiso   1.00
C511   C     0.50004   0.70962   0.24789   0.00000  Uiso   1.00
C512   C     0.45611   0.68758   0.26663   0.00000  Uiso   1.00
C513   C     0.45682   0.97833   0.26668   0.00000  Uiso   1.00
C514   C     0.50144   0.95740   0.24797   0.00000  Uiso   1.00
C515   C     0.63479   0.86285   0.27682   0.00000  Uiso   1.00
C516   C     0.35107   0.86301   0.27656   0.00000  Uiso   1.00
C517   C     0.36479   0.80305   0.22390   0.00000  Uiso   1.00
C518   C     0.64841   0.80331   0.22413   0.00000  Uiso   1.00
C519   C     0.49991   0.75411   0.24937   0.00000  Uiso   1.00
C520   C     0.52614   0.83293   0.15004   0.00000  Uiso   1.00
C521   C     0.58171   0.78412   0.01962   0.00000  Uiso   1.00
C522   C     0.54021   0.82624   0.09374   0.00000  Uiso   1.00
C523   C     0.41775   0.86348   0.42929   0.00000  Uiso   1.00
C524   C     0.40455   0.87343   0.48175   0.00000  Uiso   1.00
C525   C     0.43141   0.85908   0.01370   0.00000  Uiso   1.00
Cu526  Cu    0.45311   0.83333   0.25000   0.00000  Uiso   1.00
Cu527  Cu    0.54689   0.83334   0.25000   0.00000  Uiso   1.00
H528   H     0.42244   0.96177   0.28207   0.00000  Uiso   1.00
H529   H     0.63475   0.77921   0.20380   0.00000  Uiso   1.00
H530   H     0.57972   0.75662   0.42743   0.00000  Uiso   1.00
H531   H     0.61048   0.76239   0.00156   0.00000  Uiso   1.00
H532   H     0.39698   0.87651   0.40568   0.00000  Uiso   1.00
H533   H     0.52545   0.77742   0.38004   0.00000  Uiso   1.00
N534   N     0.38265   0.83332   0.24998   0.00000  Uiso   1.00
N535   N     0.61735   0.83335   0.24999   0.00000  Uiso   1.00
O536   O     0.46042   0.89345   0.25000   0.00000  Uiso   1.00
O537   O     0.53961   0.89346   0.25000   0.00000  Uiso   1.00
O538   O     0.44108   0.83332   0.32549   0.00000  Uiso   1.00
O539   O     0.52027   0.83333   0.32549   0.00000  Uiso   1.00
O540   O     0.46039   0.77321   0.24999   0.00000  Uiso   1.00
O541   O     0.53958   0.77322   0.24999   0.00000  Uiso   1.00
O542   O     0.47973   0.83334   0.17451   0.00000  Uiso   1.00
O543   O     0.55892   0.83335   0.17451   0.00000  Uiso   1.00
H544   H     0.60145   0.78688   0.09040   0.00000  Uiso   1.00
H545   H     0.57837   0.70625   0.21178   0.00000  Uiso   1.00
H546   H     0.42142   0.70325   0.28208   0.00000  Uiso   1.00
H547   H     0.61028   0.88620   0.29886   0.00000  Uiso   1.00
H548   H     0.36394   0.88672   0.29810   0.00000  Uiso   1.00
N549   N     0.39485   0.76939   0.20016   0.00000  Uiso   1.00
H550   H     0.38128   0.74169   0.21713   0.00000  Uiso   1.00
C551   C     0.40779   0.76689   0.14393   0.00000  Uiso   1.00
H552   H     0.37496   0.75925   0.13151   0.00000  Uiso   1.00
H553   H     0.43532   0.74227   0.12941   0.00000  Uiso   1.00
H554   H     0.42428   0.79632   0.12639   0.00000  Uiso   1.00
H555   H     0.48544   0.86561   0.08533   0.00000  Uiso   1.00
N556   N     0.41226   0.86724   0.06817   0.00000  Uiso   1.00
H557   H     0.41469   0.89805   0.07715   0.00000  Uiso   1.00
C558   C     0.36365   0.85071   0.09314   0.00000  Uiso   1.00
H559   H     0.35562   0.85336   0.13606   0.00000  Uiso   1.00
H560   H     0.36133   0.81779   0.08222   0.00000  Uiso   1.00
H561   H     0.33538   0.86832   0.08197   0.00000  Uiso   1.00
H562   H     0.37289   0.89279   0.49781   0.00000  Uiso   1.00
N563   N     0.59113   0.95915   0.20558   0.00000  Uiso   1.00
H564   H     0.60607   0.96510   0.16636   0.00000  Uiso   1.00
C565   C     0.62661   0.96483   0.23387   0.00000  Uiso   1.00
H566   H     0.65794   0.94379   0.21746   0.00000  Uiso   1.00
H567   H     0.60974   0.95768   0.27579   0.00000  Uiso   1.00
H568   H     0.64078   0.99704   0.23023   0.00000  Uiso   1.00
C569   C     0.83390   0.91265   0.24916   0.00000  Uiso   1.00
C570   C     0.80844   0.83543   0.49124   0.00000  Uiso   1.00
C571   C     0.81810   0.82180   0.43837   0.00000  Uiso   1.00
C572   C     0.84306   0.82432   0.01794   0.00000  Uiso   1.00
C573   C     0.88115   0.79593   0.49412   0.00000  Uiso   1.00
C574   C     0.88516   0.77920   0.44515   0.00000  Uiso   1.00
C575   C     0.85428   0.79190   0.41768   0.00000  Uiso   1.00
C576   C     0.84264   0.84108   0.06664   0.00000  Uiso   1.00
C577   C     0.91076   0.79870   0.06964   0.00000  Uiso   1.00
C578   C     0.79095   0.83792   0.40709   0.00000  Uiso   1.00
C579   C     0.87914   0.97961   0.22805   0.00000  Uiso   1.00
C580   C     0.80704   0.83329   0.35005   0.00000  Uiso   1.00
C581   C     0.87787   0.68907   0.22789   0.00000  Uiso   1.00
C582   C     0.83337   0.70962   0.24789   0.00000  Uiso   1.00
C583   C     0.78944   0.68758   0.26663   0.00000  Uiso   1.00
C584   C     0.79015   0.97833   0.26668   0.00000  Uiso   1.00
C585   C     0.83477   0.95740   0.24797   0.00000  Uiso   1.00
C586   C     0.96812   0.86285   0.27682   0.00000  Uiso   1.00
C587   C     0.68441   0.86301   0.27656   0.00000  Uiso   1.00
C588   C     0.69812   0.80305   0.22390   0.00000  Uiso   1.00
C589   C     0.98175   0.80331   0.22413   0.00000  Uiso   1.00
C590   C     0.83324   0.75411   0.24937   0.00000  Uiso   1.00
C591   C     0.85947   0.83293   0.15004   0.00000  Uiso   1.00
C592   C     0.91504   0.78412   0.01962   0.00000  Uiso   1.00
C593   C     0.87354   0.82624   0.09374   0.00000  Uiso   1.00
C594   C     0.75108   0.86348   0.42929   0.00000  Uiso   1.00
C595   C     0.73788   0.87343   0.48175   0.00000  Uiso   1.00
C596   C     0.76474   0.85908   0.01370   0.00000  Uiso   1.00
Cu597  Cu    0.78645   0.83333   0.25000   0.00000  Uiso   1.00
Cu598  Cu    0.88022   0.83334   0.25000   0.00000  Uiso   1.00
H599   H     0.75577   0.96177   0.28207   0.00000  Uiso   1.00
H600   H     0.96808   0.77921   0.20380   0.00000  Uiso   1.00
H601   H     0.91305   0.75662   0.42743   0.00000  Uiso   1.00
H602   H     0.94382   0.76239   0.00156   0.00000  Uiso   1.00
H603   H     0.73032   0.87651   0.40568   0.00000  Uiso   1.00
H604   H     0.85878   0.77742   0.38004   0.00000  Uiso   1.00
N605   N     0.71598   0.83332   0.24998   0.00000  Uiso   1.00
N606   N     0.95069   0.83335   0.24999   0.00000  Uiso   1.00
O607   O     0.79375   0.89345   0.25000   0.00000  Uiso   1.00
O608   O     0.87294   0.89346   0.25000   0.00000  Uiso   1.00
O609   O     0.77441   0.83332   0.32549   0.00000  Uiso   1.00
O610   O     0.85360   0.83333   0.32549   0.00000  Uiso   1.00
O611   O     0.79373   0.77321   0.24999   0.00000  Uiso   1.00
O612   O     0.87292   0.77322   0.24999   0.00000  Uiso   1.00
O613   O     0.81306   0.83334   0.17451   0.00000  Uiso   1.00
O614   O     0.89225   0.83335   0.17451   0.00000  Uiso   1.00
H615   H     0.93478   0.78688   0.09040   0.00000  Uiso   1.00
H616   H     0.91170   0.70625   0.21178   0.00000  Uiso   1.00
H617   H     0.75475   0.70325   0.28208   0.00000  Uiso   1.00
H618   H     0.94361   0.88620   0.29886   0.00000  Uiso   1.00
H619   H     0.69727   0.88672   0.29810   0.00000  Uiso   1.00
N620   N     0.72819   0.76939   0.20016   0.00000  Uiso   1.00
H621   H     0.71462   0.74169   0.21713   0.00000  Uiso   1.00
C622   C     0.74112   0.76689   0.14393   0.00000  Uiso   1.00
H623   H     0.70829   0.75925   0.13151   0.00000  Uiso   1.00
H624   H     0.76865   0.74227   0.12941   0.00000  Uiso   1.00
H625   H     0.75761   0.79632   0.12639   0.00000  Uiso   1.00
H626   H     0.81877   0.86561   0.08533   0.00000  Uiso   1.00
N627   N     0.74559   0.86724   0.06817   0.00000  Uiso   1.00
H628   H     0.74802   0.89805   0.07715   0.00000  Uiso   1.00
C629   C     0.69698   0.85071   0.09314   0.00000  Uiso   1.00
H630   H     0.68896   0.85336   0.13606   0.00000  Uiso   1.00
H631   H     0.69467   0.81779   0.08222   0.00000  Uiso   1.00
H632   H     0.66872   0.86832   0.08197   0.00000  Uiso   1.00
H633   H     0.70623   0.89279   0.49781   0.00000  Uiso   1.00
N634   N     0.92447   0.95915   0.20558   0.00000  Uiso   1.00
H635   H     0.93941   0.96510   0.16636   0.00000  Uiso   1.00
C636   C     0.95994   0.96483   0.23387   0.00000  Uiso   1.00
H637   H     0.99127   0.94379   0.21746   0.00000  Uiso   1.00
H638   H     0.94307   0.95768   0.27579   0.00000  Uiso   1.00
H639   H     0.97411   0.99704   0.23023   0.00000  Uiso   1.00
C640   C     0.16724   0.24599   0.74916   0.00000  Uiso   1.00
C641   C     0.14177   0.16876   0.99124   0.00000  Uiso   1.00
C642   C     0.15143   0.15514   0.93837   0.00000  Uiso   1.00
C643   C     0.17639   0.15765   0.51794   0.00000  Uiso   1.00
C644   C     0.21448   0.12926   0.99412   0.00000  Uiso   1.00
C645   C     0.21850   0.11253   0.94515   0.00000  Uiso   1.00
C646   C     0.18761   0.12523   0.91768   0.00000  Uiso   1.00
C647   C     0.17597   0.17441   0.56664   0.00000  Uiso   1.00
C648   C     0.24409   0.13203   0.56964   0.00000  Uiso   1.00
C649   C     0.12429   0.17126   0.90709   0.00000  Uiso   1.00
C650   C     0.21248   0.31294   0.72805   0.00000  Uiso   1.00
C651   C     0.14038   0.16662   0.85005   0.00000  Uiso   1.00
C652   C     0.21121   0.02241   0.72789   0.00000  Uiso   1.00
C653   C     0.16670   0.04296   0.74789   0.00000  Uiso   1.00
C654   C     0.12278   0.02092   0.76663   0.00000  Uiso   1.00
C655   C     0.12348   0.31166   0.76668   0.00000  Uiso   1.00
C656   C     0.16810   0.29073   0.74797   0.00000  Uiso   1.00
C657   C     0.30145   0.19618   0.77682   0.00000  Uiso   1.00
C658   C     0.01774   0.19635   0.77656   0.00000  Uiso   1.00
C659   C     0.03145   0.13638   0.72390   0.00000  Uiso   1.00
C660   C     0.31508   0.13664   0.72413   0.00000  Uiso   1.00
C661   C     0.16658   0.08744   0.74937   0.00000  Uiso   1.00
C662   C     0.19280   0.16627   0.65004   0.00000  Uiso   1.00
C663   C     0.24837   0.11745   0.51962   0.00000  Uiso   1.00
C664   C     0.20688   0.15957   0.59374   0.00000  Uiso   1.00
C665   C     0.08441   0.19681   0.92929   0.00000  Uiso   1.00
C666   C     0.07122   0.20676   0.98175   0.00000  Uiso   1.00
C667   C     0.09808   0.19241   0.51370   0.00000  Uiso   1.00
Cu668  Cu    0.11978   0.16666   0.75000   0.00000  Uiso   1.00
Cu669  Cu    0.21355   0.16667   0.75000   0.00000  Uiso   1.00
H670   H     0.08910   0.29510   0.78207   0.00000  Uiso   1.00
H671   H     0.30142   0.11254   0.70380   0.00000  Uiso   1.00
H672   H     0.24638   0.08996   0.92743   0.00000  Uiso   1.00
H673   H     0.27715   0.09572   0.50156   0.00000  Uiso   1.00
H674   H     0.06365   0.20984   0.90568   0.00000  Uiso   1.00
H675   H     0.19211   0.11076   0.88004   0.00000  Uiso   1.00
N676   N     0.04931   0.16666   0.74998   0.00000  Uiso   1.00
N677   N     0.28402   0.16669   0.74999   0.00000  Uiso   1.00
O678   O     0.12708   0.22678   0.75000   0.00000  Uiso   1.00
O679   O     0.20627   0.22679   0.75000   0.00000  Uiso   1.00
O680   O     0.10775   0.16665   0.82549   0.00000  Uiso   1.00
O681   O     0.18694   0.16666   0.82549   0.00000  Uiso   1.00
O682   O     0.12706   0.10654   0.74999   0.00000  Uiso   1.00
O683   O     0.20625   0.10655   0.74999   0.00000  Uiso   1.00
O684   O     0.14640   0.16667   0.67451   0.00000  Uiso   1.00
O685   O     0.22559   0.16668   0.67451   0.00000  Uiso   1.00
H686   H     0.26811   0.12021   0.59040   0.00000  Uiso   1.00
H687   H     0.24504   0.03958   0.71178   0.00000  Uiso   1.00
H688   H     0.08809   0.03658   0.78208   0.00000  Uiso   1.00
H689   H     0.27695   0.21954   0.79886   0.00000  Uiso   1.00
H690   H     0.03061   0.22006   0.79810   0.00000  Uiso   1.00
N691   N     0.06152   0.10272   0.70016   0.00000  Uiso   1.00
H692   H     0.04795   0.07502   0.71713   0.00000  Uiso   1.00
C693   C     0.07446   0.10022   0.64393   0.00000  Uiso   1.00
H694   H     0.04162   0.09258   0.63151   0.00000  Uiso   1.00
H695   H     0.10198   0.07560   0.62941   0.00000  Uiso   1.00
H696   H     0.09095   0.12966   0.62639   0.00000  Uiso   1.00
H697   H     0.15211   0.19895   0.58533   0.00000  Uiso   1.00
N698   N     0.07892   0.20057   0.56817   0.00000  Uiso   1.00
H699   H     0.08136   0.23138   0.57715   0.00000  Uiso   1.00
C700   C     0.03031   0.18404   0.59314   0.00000  Uiso   1.00
H701   H     0.02229   0.18669   0.63606   0.00000  Uiso   1.00
H702   H     0.02800   0.15113   0.58222   0.00000  Uiso   1.00
H703   H     0.00205   0.20165   0.58197   0.00000  Uiso   1.00
H704   H     0.03956   0.22612   0.99781   0.00000  Uiso   1.00
N705   N     0.25780   0.29249   0.70558   0.00000  Uiso   1.00
H706   H     0.27274   0.29843   0.66636   0.00000  Uiso   1.00
C707   C     0.29328   0.29816   0.73387   0.00000  Uiso   1.00
H708   H     0.32460   0.27712   0.71746   0.00000  Uiso   1.00
H709   H     0.27640   0.29101   0.77579   0.00000  Uiso   1.00
H710   H     0.30744   0.33037   0.73023   0.00000  Uiso   1.00
C711   C     0.50057   0.24599   0.74916   0.00000  Uiso   1.00
C712   C     0.47511   0.16876   0.99124   0.00000  Uiso   1.00
C713   C     0.48476   0.15514   0.93837   0.00000  Uiso   1.00
C714   C     0.50972   0.15765   0.51794   0.00000  Uiso   1.00
C715   C     0.54781   0.12926   0.99412   0.00000  Uiso   1.00
C716   C     0.55183   0.11253   0.94515   0.00000  Uiso   1.00
C717   C     0.52095   0.12523   0.91768   0.00000  Uiso   1.00
C718   C     0.50930   0.17441   0.56664   0.00000  Uiso   1.00
C719   C     0.57742   0.13203   0.56964   0.00000  Uiso   1.00
C720   C     0.45762   0.17126   0.90709   0.00000  Uiso   1.00
C721   C     0.54581   0.31294   0.72805   0.00000  Uiso   1.00
C722   C     0.47371   0.16662   0.85005   0.00000  Uiso   1.00
C723   C     0.54454   0.02241   0.72789   0.00000  Uiso   1.00
C724   C     0.50004   0.04296   0.74789   0.00000  Uiso   1.00
C725   C     0.45611   0.02092   0.76663   0.00000  Uiso   1.00
C726   C     0.45682   0.31166   0.76668   0.00000  Uiso   1.00
C727   C     0.50144   0.29073   0.74797   0.00000  Uiso   1.00
C728   C     0.63479   0.19618   0.77682   0.00000  Uiso   1.00
C729   C     0.35107   0.19635   0.77656   0.00000  Uiso   1.00
C730   C     0.36479   0.13638   0.72390   0.00000  Uiso   1.00
C731   C     0.64841   0.13664   0.72413   0.00000  Uiso   1.00
C732   C     0.49991   0.08744   0.74937   0.00000  Uiso   1.00
C733   C     0.52614   0.16627   0.65004   0.00000  Uiso   1.00
C734   C     0.58171   0.11745   0.51962   0.00000  Uiso   1.00
C735   C     0.54021   0.15957   0.59374   0.00000  Uiso   1.00
C736   C     0.41775   0.19681   0.92929   0.00000  Uiso   1.00
C737   C     0.40455   0.20676   0.98175   0.00000  Uiso   1.00
C738   C     0.43141   0.19241   0.51370   0.00000  Uiso   1.00
Cu739  Cu    0.45311   0.16666   0.75000   0.00000  Uiso   1.00
Cu740  Cu    0.54689   0.16667   0.75000   0.00000  Uiso   1.00
H741   H     0.42244   0.29510   0.78207   0.00000  Uiso   1.00
H742   H     0.63475   0.11254   0.70380   0.00000  Uiso   1.00
H743   H     0.57972   0.08996   0.92743   0.00000  Uiso   1.00
H744   H     0.61048   0.09572   0.50156   0.00000  Uiso   1.00
H745   H     0.39698   0.20984   0.90568   0.00000  Uiso   1.00
H746   H     0.52545   0.11076   0.88004   0.00000  Uiso   1.00
N747   N     0.38265   0.16666   0.74998   0.00000  Uiso   1.00
N748   N     0.61735   0.16669   0.74999   0.00000  Uiso   1.00
O749   O     0.46042   0.22678   0.75000   0.00000  Uiso   1.00
O750   O     0.53961   0.22679   0.75000   0.00000  Uiso   1.00
O751   O     0.44108   0.16665   0.82549   0.00000  Uiso   1.00
O752   O     0.52027   0.16666   0.82549   0.00000  Uiso   1.00
O753   O     0.46039   0.10654   0.74999   0.00000  Uiso   1.00
O754   O     0.53958   0.10655   0.74999   0.00000  Uiso   1.00
O755   O     0.47973   0.16667   0.67451   0.00000  Uiso   1.00
O756   O     0.55892   0.16668   0.67451   0.00000  Uiso   1.00
H757   H     0.60145   0.12021   0.59040   0.00000  Uiso   1.00
H758   H     0.57837   0.03958   0.71178   0.00000  Uiso   1.00
H759   H     0.42142   0.03658   0.78208   0.00000  Uiso   1.00
H760   H     0.61028   0.21954   0.79886   0.00000  Uiso   1.00
H761   H     0.36394   0.22006   0.79810   0.00000  Uiso   1.00
N762   N     0.39485   0.10272   0.70016   0.00000  Uiso   1.00
H763   H     0.38128   0.07502   0.71713   0.00000  Uiso   1.00
C764   C     0.40779   0.10022   0.64393   0.00000  Uiso   1.00
H765   H     0.37496   0.09258   0.63151   0.00000  Uiso   1.00
H766   H     0.43532   0.07560   0.62941   0.00000  Uiso   1.00
H767   H     0.42428   0.12966   0.62639   0.00000  Uiso   1.00
H768   H     0.48544   0.19895   0.58533   0.00000  Uiso   1.00
N769   N     0.41226   0.20057   0.56817   0.00000  Uiso   1.00
H770   H     0.41469   0.23138   0.57715   0.00000  Uiso   1.00
C771   C     0.36365   0.18404   0.59314   0.00000  Uiso   1.00
H772   H     0.35562   0.18669   0.63606   0.00000  Uiso   1.00
H773   H     0.36133   0.15113   0.58222   0.00000  Uiso   1.00
H774   H     0.33538   0.20165   0.58197   0.00000  Uiso   1.00
H775   H     0.37289   0.22612   0.99781   0.00000  Uiso   1.00
N776   N     0.59113   0.29249   0.70558   0.00000  Uiso   1.00
H777   H     0.60607   0.29843   0.66636   0.00000  Uiso   1.00
C778   C     0.62661   0.29816   0.73387   0.00000  Uiso   1.00
H779   H     0.65794   0.27712   0.71746   0.00000  Uiso   1.00
H780   H     0.60974   0.29101   0.77579   0.00000  Uiso   1.00
H781   H     0.64078   0.33037   0.73023   0.00000  Uiso   1.00
C782   C     0.83390   0.24599   0.74916   0.00000  Uiso   1.00
C783   C     0.80844   0.16876   0.99124   0.00000  Uiso   1.00
C784   C     0.81810   0.15514   0.93837   0.00000  Uiso   1.00
C785   C     0.84306   0.15765   0.51794   0.00000  Uiso   1.00
C786   C     0.88115   0.12926   0.99412   0.00000  Uiso   1.00
C787   C     0.88516   0.11253   0.94515   0.00000  Uiso   1.00
C788   C     0.85428   0.12523   0.91768   0.00000  Uiso   1.00
C789   C     0.84264   0.17441   0.56664   0.00000  Uiso   1.00
C790   C     0.91076   0.13203   0.56964   0.00000  Uiso   1.00
C791   C     0.79095   0.17126   0.90709   0.00000  Uiso   1.00
C792   C     0.87914   0.31294   0.72805   0.00000  Uiso   1.00
C793   C     0.80704   0.16662   0.85005   0.00000  Uiso   1.00
C794   C     0.87787   0.02241   0.72789   0.00000  Uiso   1.00
C795   C     0.83337   0.04296   0.74789   0.00000  Uiso   1.00
C796   C     0.78944   0.02092   0.76663   0.00000  Uiso   1.00
C797   C     0.79015   0.31166   0.76668   0.00000  Uiso   1.00
C798   C     0.83477   0.29073   0.74797   0.00000  Uiso   1.00
C799   C     0.96812   0.19618   0.77682   0.00000  Uiso   1.00
C800   C     0.68441   0.19635   0.77656   0.00000  Uiso   1.00
C801   C     0.69812   0.13638   0.72390   0.00000  Uiso   1.00
C802   C     0.98175   0.13664   0.72413   0.00000  Uiso   1.00
C803   C     0.83324   0.08744   0.74937   0.00000  Uiso   1.00
C804   C     0.85947   0.16627   0.65004   0.00000  Uiso   1.00
C805   C     0.91504   0.11745   0.51962   0.00000  Uiso   1.00
C806   C     0.87354   0.15957   0.59374   0.00000  Uiso   1.00
C807   C     0.75108   0.19681   0.92929   0.00000  Uiso   1.00
C808   C     0.73788   0.20676   0.98175   0.00000  Uiso   1.00
C809   C     0.76474   0.19241   0.51370   0.00000  Uiso   1.00
Cu810  Cu    0.78645   0.16666   0.75000   0.00000  Uiso   1.00
Cu811  Cu    0.88022   0.16667   0.75000   0.00000  Uiso   1.00
H812   H     0.75577   0.29510   0.78207   0.00000  Uiso   1.00
H813   H     0.96808   0.11254   0.70380   0.00000  Uiso   1.00
H814   H     0.91305   0.08996   0.92743   0.00000  Uiso   1.00
H815   H     0.94382   0.09572   0.50156   0.00000  Uiso   1.00
H816   H     0.73032   0.20984   0.90568   0.00000  Uiso   1.00
H817   H     0.85878   0.11076   0.88004   0.00000  Uiso   1.00
N818   N     0.71598   0.16666   0.74998   0.00000  Uiso   1.00
N819   N     0.95069   0.16669   0.74999   0.00000  Uiso   1.00
O820   O     0.79375   0.22678   0.75000   0.00000  Uiso   1.00
O821   O     0.87294   0.22679   0.75000   0.00000  Uiso   1.00
O822   O     0.77441   0.16665   0.82549   0.00000  Uiso   1.00
O823   O     0.85360   0.16666   0.82549   0.00000  Uiso   1.00
O824   O     0.79373   0.10654   0.74999   0.00000  Uiso   1.00
O825   O     0.87292   0.10655   0.74999   0.00000  Uiso   1.00
O826   O     0.81306   0.16667   0.67451   0.00000  Uiso   1.00
O827   O     0.89225   0.16668   0.67451   0.00000  Uiso   1.00
H828   H     0.93478   0.12021   0.59040   0.00000  Uiso   1.00
H829   H     0.91170   0.03958   0.71178   0.00000  Uiso   1.00
H830   H     0.75475   0.03658   0.78208   0.00000  Uiso   1.00
H831   H     0.94361   0.21954   0.79886   0.00000  Uiso   1.00
H832   H     0.69727   0.22006   0.79810   0.00000  Uiso   1.00
N833   N     0.72819   0.10272   0.70016   0.00000  Uiso   1.00
H834   H     0.71462   0.07502   0.71713   0.00000  Uiso   1.00
C835   C     0.74112   0.10022   0.64393   0.00000  Uiso   1.00
H836   H     0.70829   0.09258   0.63151   0.00000  Uiso   1.00
H837   H     0.76865   0.07560   0.62941   0.00000  Uiso   1.00
H838   H     0.75761   0.12966   0.62639   0.00000  Uiso   1.00
H839   H     0.81877   0.19895   0.58533   0.00000  Uiso   1.00
N840   N     0.74559   0.20057   0.56817   0.00000  Uiso   1.00
H841   H     0.74802   0.23138   0.57715   0.00000  Uiso   1.00
C842   C     0.69698   0.18404   0.59314   0.00000  Uiso   1.00
H843   H     0.68896   0.18669   0.63606   0.00000  Uiso   1.00
H844   H     0.69467   0.15113   0.58222   0.00000  Uiso   1.00
H845   H     0.66872   0.20165   0.58197   0.00000  Uiso   1.00
H846   H     0.70623   0.22612   0.99781   0.00000  Uiso   1.00
N847   N     0.92447   0.29249   0.70558   0.00000  Uiso   1.00
H848   H     0.93941   0.29843   0.66636   0.00000  Uiso   1.00
C849   C     0.95994   0.29816   0.73387   0.00000  Uiso   1.00
H850   H     0.99127   0.27712   0.71746   0.00000  Uiso   1.00
H851   H     0.94307   0.29101   0.77579   0.00000  Uiso   1.00
H852   H     0.97411   0.33037   0.73023   0.00000  Uiso   1.00
C853   C     0.16724   0.57932   0.74916   0.00000  Uiso   1.00
C854   C     0.14177   0.50209   0.99124   0.00000  Uiso   1.00
C855   C     0.15143   0.48847   0.93837   0.00000  Uiso   1.00
C856   C     0.17639   0.49099   0.51794   0.00000  Uiso   1.00
C857   C     0.21448   0.46260   0.99412   0.00000  Uiso   1.00
C858   C     0.21850   0.44586   0.94515   0.00000  Uiso   1.00
C859   C     0.18761   0.45857   0.91768   0.00000  Uiso   1.00
C860   C     0.17597   0.50774   0.56664   0.00000  Uiso   1.00
C861   C     0.24409   0.46536   0.56964   0.00000  Uiso   1.00
C862   C     0.12429   0.50459   0.90709   0.00000  Uiso   1.00
C863   C     0.21248   0.64628   0.72805   0.00000  Uiso   1.00
C864   C     0.14038   0.49996   0.85005   0.00000  Uiso   1.00
C865   C     0.21121   0.35574   0.72789   0.00000  Uiso   1.00
C866   C     0.16670   0.37629   0.74789   0.00000  Uiso   1.00
C867   C     0.12278   0.35425   0.76663   0.00000  Uiso   1.00
C868   C     0.12348   0.64499   0.76668   0.00000  Uiso   1.00
C869   C     0.16810   0.62406   0.74797   0.00000  Uiso   1.00
C870   C     0.30145   0.52951   0.77682   0.00000  Uiso   1.00
C871   C     0.01774   0.52968   0.77656   0.00000  Uiso   1.00
C872   C     0.03145   0.46972   0.72390   0.00000  Uiso   1.00
C873   C     0.31508   0.46997   0.72413   0.00000  Uiso   1.00
C874   C     0.16658   0.42078   0.74937   0.00000  Uiso   1.00
C875   C     0.19280   0.49960   0.65004   0.00000  Uiso   1.00
C876   C     0.24837   0.45079   0.51962   0.00000  Uiso   1.00
C877   C     0.20688   0.49291   0.59374   0.00000  Uiso   1.00
C878   C     0.08441   0.53014   0.92929   0.00000  Uiso   1.00
C879   C     0.07122   0.54009   0.98175   0.00000  Uiso   1.00
C880   C     0.09808   0.52575   0.51370   0.00000  Uiso   1.00
Cu881  Cu    0.11978   0.49999   0.75000   0.00000  Uiso   1.00
Cu882  Cu    0.21355   0.50001   0.75000   0.00000  Uiso   1.00
H883   H     0.08910   0.62843   0.78207   0.00000  Uiso   1.00
H884   H     0.30142   0.44588   0.70380   0.00000  Uiso   1.00
H885   H     0.24638   0.42329   0.92743   0.00000  Uiso   1.00
H886   H     0.27715   0.42905   0.50156   0.00000  Uiso   1.00
H887   H     0.06365   0.54317   0.90568   0.00000  Uiso   1.00
H888   H     0.19211   0.44409   0.88004   0.00000  Uiso   1.00
N889   N     0.04931   0.49999   0.74998   0.00000  Uiso   1.00
N890   N     0.28402   0.50002   0.74999   0.00000  Uiso   1.00
O891   O     0.12708   0.56011   0.75000   0.00000  Uiso   1.00
O892   O     0.20627   0.56012   0.75000   0.00000  Uiso   1.00
O893   O     0.10775   0.49998   0.82549   0.00000  Uiso   1.00
O894   O     0.18694   0.49999   0.82549   0.00000  Uiso   1.00
O895   O     0.12706   0.43988   0.74999   0.00000  Uiso   1.00
O896   O     0.20625   0.43989   0.74999   0.00000  Uiso   1.00
O897   O     0.14640   0.50001   0.67451   0.00000  Uiso   1.00
O898   O     0.22559   0.50002   0.67451   0.00000  Uiso   1.00
H899   H     0.26811   0.45354   0.59040   0.00000  Uiso   1.00
H900   H     0.24504   0.37291   0.71178   0.00000  Uiso   1.00
H901   H     0.08809   0.36991   0.78208   0.00000  Uiso   1.00
H902   H     0.27695   0.55287   0.79886   0.00000  Uiso   1.00
H903   H     0.03061   0.55339   0.79810   0.00000  Uiso   1.00
N904   N     0.06152   0.43606   0.70016   0.00000  Uiso   1.00
H905   H     0.04795   0.40836   0.71713   0.00000  Uiso   1.00
C906   C     0.07446   0.43355   0.64393   0.00000  Uiso   1.00
H907   H     0.04162   0.42591   0.63151   0.00000  Uiso   1.00
H908   H     0.10198   0.40894   0.62941   0.00000  Uiso   1.00
H909   H     0.09095   0.46299   0.62639   0.00000  Uiso   1.00
H910   H     0.15211   0.53228   0.58533   0.00000  Uiso   1.00
N911   N     0.07892   0.53390   0.56817   0.00000  Uiso   1.00
H912   H     0.08136   0.56472   0.57715   0.00000  Uiso   1.00
C913   C     0.03031   0.51738   0.59314   0.00000  Uiso   1.00
H914   H     0.02229   0.52003   0.63606   0.00000  Uiso   1.00
H915   H     0.02800   0.48446   0.58222   0.00000  Uiso   1.00
H916   H     0.00205   0.53499   0.58197   0.00000  Uiso   1.00
H917   H     0.03956   0.55945   0.99781   0.00000  Uiso   1.00
N918   N     0.25780   0.62582   0.70558   0.00000  Uiso   1.00
H919   H     0.27274   0.63176   0.66636   0.00000  Uiso   1.00
C920   C     0.29328   0.63150   0.73387   0.00000  Uiso   1.00
H921   H     0.32460   0.61045   0.71746   0.00000  Uiso   1.00
H922   H     0.27640   0.62434   0.77579   0.00000  Uiso   1.00
H923   H     0.30744   0.66370   0.73023   0.00000  Uiso   1.00
C924   C     0.50057   0.57932   0.74916   0.00000  Uiso   1.00
C925   C     0.47511   0.50209   0.99124   0.00000  Uiso   1.00
C926   C     0.48476   0.48847   0.93837   0.00000  Uiso   1.00
C927   C     0.50972   0.49099   0.51794   0.00000  Uiso   1.00
C928   C     0.54781   0.46260   0.99412   0.00000  Uiso   1.00
C929   C     0.55183   0.44586   0.94515   0.00000  Uiso   1.00
C930   C     0.52095   0.45857   0.91768   0.00000  Uiso   1.00
C931   C     0.50930   0.50774   0.56664   0.00000  Uiso   1.00
C932   C     0.57742   0.46536   0.56964   0.00000  Uiso   1.00
C933   C     0.45762   0.50459   0.90709   0.00000  Uiso   1.00
C934   C     0.54581   0.64628   0.72805   0.00000  Uiso   1.00
C935   C     0.47371   0.49996   0.85005   0.00000  Uiso   1.00
C936   C     0.54454   0.35574   0.72789   0.00000  Uiso   1.00
C937   C     0.50004   0.37629   0.74789   0.00000  Uiso   1.00
C938   C     0.45611   0.35425   0.76663   0.00000  Uiso   1.00
C939   C     0.45682   0.64499   0.76668   0.00000  Uiso   1.00
C940   C     0.50144   0.62406   0.74797   0.00000  Uiso   1.00
C941   C     0.63479   0.52951   0.77682   0.00000  Uiso   1.00
C942   C     0.35107   0.52968   0.77656   0.00000  Uiso   1.00
C943   C     0.36479   0.46972   0.72390   0.00000  Uiso   1.00
C944   C     0.64841   0.46997   0.72413   0.00000  Uiso   1.00
C945   C     0.49991   0.42078   0.74937   0.00000  Uiso   1.00
C946   C     0.52614   0.49960   0.65004   0.00000  Uiso   1.00
C947   C     0.58171   0.45079   0.51962   0.00000  Uiso   1.00
C948   C     0.54021   0.49291   0.59374   0.00000  Uiso   1.00
C949   C     0.41775   0.53014   0.92929   0.00000  Uiso   1.00
C950   C     0.40455   0.54009   0.98175   0.00000  Uiso   1.00
C951   C     0.43141   0.52575   0.51370   0.00000  Uiso   1.00
Cu952  Cu    0.45311   0.49999   0.75000   0.00000  Uiso   1.00
Cu953  Cu    0.54689   0.50001   0.75000   0.00000  Uiso   1.00
H954   H     0.42244   0.62843   0.78207   0.00000  Uiso   1.00
H955   H     0.63475   0.44588   0.70380   0.00000  Uiso   1.00
H956   H     0.57972   0.42329   0.92743   0.00000  Uiso   1.00
H957   H     0.61048   0.42905   0.50156   0.00000  Uiso   1.00
H958   H     0.39698   0.54317   0.90568   0.00000  Uiso   1.00
H959   H     0.52545   0.44409   0.88004   0.00000  Uiso   1.00
N960   N     0.38265   0.49999   0.74998   0.00000  Uiso   1.00
N961   N     0.61735   0.50002   0.74999   0.00000  Uiso   1.00
O962   O     0.46042   0.56011   0.75000   0.00000  Uiso   1.00
O963   O     0.53961   0.56012   0.75000   0.00000  Uiso   1.00
O964   O     0.44108   0.49998   0.82549   0.00000  Uiso   1.00
O965   O     0.52027   0.49999   0.82549   0.00000  Uiso   1.00
O966   O     0.46039   0.43988   0.74999   0.00000  Uiso   1.00
O967   O     0.53958   0.43989   0.74999   0.00000  Uiso   1.00
O968   O     0.47973   0.50001   0.67451   0.00000  Uiso   1.00
O969   O     0.55892   0.50002   0.67451   0.00000  Uiso   1.00
H970   H     0.60145   0.45354   0.59040   0.00000  Uiso   1.00
H971   H     0.57837   0.37291   0.71178   0.00000  Uiso   1.00
H972   H     0.42142   0.36991   0.78208   0.00000  Uiso   1.00
H973   H     0.61028   0.55287   0.79886   0.00000  Uiso   1.00
H974   H     0.36394   0.55339   0.79810   0.00000  Uiso   1.00
N975   N     0.39485   0.43606   0.70016   0.00000  Uiso   1.00
H976   H     0.38128   0.40836   0.71713   0.00000  Uiso   1.00
C977   C     0.40779   0.43355   0.64393   0.00000  Uiso   1.00
H978   H     0.37496   0.42591   0.63151   0.00000  Uiso   1.00
H979   H     0.43532   0.40894   0.62941   0.00000  Uiso   1.00
H980   H     0.42428   0.46299   0.62639   0.00000  Uiso   1.00
H981   H     0.48544   0.53228   0.58533   0.00000  Uiso   1.00
N982   N     0.41226   0.53390   0.56817   0.00000  Uiso   1.00
H983   H     0.41469   0.56472   0.57715   0.00000  Uiso   1.00
C984   C     0.36365   0.51738   0.59314   0.00000  Uiso   1.00
H985   H     0.35562   0.52003   0.63606   0.00000  Uiso   1.00
H986   H     0.36133   0.48446   0.58222   0.00000  Uiso   1.00
H987   H     0.33538   0.53499   0.58197   0.00000  Uiso   1.00
H988   H     0.37289   0.55945   0.99781   0.00000  Uiso   1.00
N989   N     0.59113   0.62582   0.70558   0.00000  Uiso   1.00
H990   H     0.60607   0.63176   0.66636   0.00000  Uiso   1.00
C991   C     0.62661   0.63150   0.73387   0.00000  Uiso   1.00
H992   H     0.65794   0.61045   0.71746   0.00000  Uiso   1.00
H993   H     0.60974   0.62434   0.77579   0.00000  Uiso   1.00
H994   H     0.64078   0.66370   0.73023   0.00000  Uiso   1.00
C995   C     0.83390   0.57932   0.74916   0.00000  Uiso   1.00
C996   C     0.80844   0.50209   0.99124   0.00000  Uiso   1.00
C997   C     0.81810   0.48847   0.93837   0.00000  Uiso   1.00
C998   C     0.84306   0.49099   0.51794   0.00000  Uiso   1.00
C999   C     0.88115   0.46260   0.99412   0.00000  Uiso   1.00
C1000  C     0.88516   0.44586   0.94515   0.00000  Uiso   1.00
C1001  C     0.85428   0.45857   0.91768   0.00000  Uiso   1.00
C1002  C     0.84264   0.50774   0.56664   0.00000  Uiso   1.00
C1003  C     0.91076   0.46536   0.56964   0.00000  Uiso   1.00
C1004  C     0.79095   0.50459   0.90709   0.00000  Uiso   1.00
C1005  C     0.87914   0.64628   0.72805   0.00000  Uiso   1.00
C1006  C     0.80704   0.49996   0.85005   0.00000  Uiso   1.00
C1007  C     0.87787   0.35574   0.72789   0.00000  Uiso   1.00
C1008  C     0.83337   0.37629   0.74789   0.00000  Uiso   1.00
C1009  C     0.78944   0.35425   0.76663   0.00000  Uiso   1.00
C1010  C     0.79015   0.64499   0.76668   0.00000  Uiso   1.00
C1011  C     0.83477   0.62406   0.74797   0.00000  Uiso   1.00
C1012  C     0.96812   0.52951   0.77682   0.00000  Uiso   1.00
C1013  C     0.68441   0.52968   0.77656   0.00000  Uiso   1.00
C1014  C     0.69812   0.46972   0.72390   0.00000  Uiso   1.00
C1015  C     0.98175   0.46997   0.72413   0.00000  Uiso   1.00
C1016  C     0.83324   0.42078   0.74937   0.00000  Uiso   1.00
C1017  C     0.85947   0.49960   0.65004   0.00000  Uiso   1.00
C1018  C     0.91504   0.45079   0.51962   0.00000  Uiso   1.00
C1019  C     0.87354   0.49291   0.59374   0.00000  Uiso   1.00
C1020  C     0.75108   0.53014   0.92929   0.00000  Uiso   1.00
C1021  C     0.73788   0.54009   0.98175   0.00000  Uiso   1.00
C1022  C     0.76474   0.52575   0.51370   0.00000  Uiso   1.00
Cu1023 Cu    0.78645   0.49999   0.75000   0.00000  Uiso   1.00
Cu1024 Cu    0.88022   0.50001   0.75000   0.00000  Uiso   1.00
H1025  H     0.75577   0.62843   0.78207   0.00000  Uiso   1.00
H1026  H     0.96808   0.44588   0.70380   0.00000  Uiso   1.00
H1027  H     0.91305   0.42329   0.92743   0.00000  Uiso   1.00
H1028  H     0.94382   0.42905   0.50156   0.00000  Uiso   1.00
H1029  H     0.73032   0.54317   0.90568   0.00000  Uiso   1.00
H1030  H     0.85878   0.44409   0.88004   0.00000  Uiso   1.00
N1031  N     0.71598   0.49999   0.74998   0.00000  Uiso   1.00
N1032  N     0.95069   0.50002   0.74999   0.00000  Uiso   1.00
O1033  O     0.79375   0.56011   0.75000   0.00000  Uiso   1.00
O1034  O     0.87294   0.56012   0.75000   0.00000  Uiso   1.00
O1035  O     0.77441   0.49998   0.82549   0.00000  Uiso   1.00
O1036  O     0.85360   0.49999   0.82549   0.00000  Uiso   1.00
O1037  O     0.79373   0.43988   0.74999   0.00000  Uiso   1.00
O1038  O     0.87292   0.43989   0.74999   0.00000  Uiso   1.00
O1039  O     0.81306   0.50001   0.67451   0.00000  Uiso   1.00
O1040  O     0.89225   0.50002   0.67451   0.00000  Uiso   1.00
H1041  H     0.93478   0.45354   0.59040   0.00000  Uiso   1.00
H1042  H     0.91170   0.37291   0.71178   0.00000  Uiso   1.00
H1043  H     0.75475   0.36991   0.78208   0.00000  Uiso   1.00
H1044  H     0.94361   0.55287   0.79886   0.00000  Uiso   1.00
H1045  H     0.69727   0.55339   0.79810   0.00000  Uiso   1.00
N1046  N     0.72819   0.43606   0.70016   0.00000  Uiso   1.00
H1047  H     0.71462   0.40836   0.71713   0.00000  Uiso   1.00
C1048  C     0.74112   0.43355   0.64393   0.00000  Uiso   1.00
H1049  H     0.70829   0.42591   0.63151   0.00000  Uiso   1.00
H1050  H     0.76865   0.40894   0.62941   0.00000  Uiso   1.00
H1051  H     0.75761   0.46299   0.62639   0.00000  Uiso   1.00
H1052  H     0.81877   0.53228   0.58533   0.00000  Uiso   1.00
N1053  N     0.74559   0.53390   0.56817   0.00000  Uiso   1.00
H1054  H     0.74802   0.56472   0.57715   0.00000  Uiso   1.00
C1055  C     0.69698   0.51738   0.59314   0.00000  Uiso   1.00
H1056  H     0.68896   0.52003   0.63606   0.00000  Uiso   1.00
H1057  H     0.69467   0.48446   0.58222   0.00000  Uiso   1.00
H1058  H     0.66872   0.53499   0.58197   0.00000  Uiso   1.00
H1059  H     0.70623   0.55945   0.99781   0.00000  Uiso   1.00
N1060  N     0.92447   0.62582   0.70558   0.00000  Uiso   1.00
H1061  H     0.93941   0.63176   0.66636   0.00000  Uiso   1.00
C1062  C     0.95994   0.63150   0.73387   0.00000  Uiso   1.00
H1063  H     0.99127   0.61045   0.71746   0.00000  Uiso   1.00
H1064  H     0.94307   0.62434   0.77579   0.00000  Uiso   1.00
H1065  H     0.97411   0.66370   0.73023   0.00000  Uiso   1.00
C1066  C     0.16724   0.91265   0.74916   0.00000  Uiso   1.00
C1067  C     0.14177   0.83543   0.99124   0.00000  Uiso   1.00
C1068  C     0.15143   0.82180   0.93837   0.00000  Uiso   1.00
C1069  C     0.17639   0.82432   0.51794   0.00000  Uiso   1.00
C1070  C     0.21448   0.79593   0.99412   0.00000  Uiso   1.00
C1071  C     0.21850   0.77920   0.94515   0.00000  Uiso   1.00
C1072  C     0.18761   0.79190   0.91768   0.00000  Uiso   1.00
C1073  C     0.17597   0.84108   0.56664   0.00000  Uiso   1.00
C1074  C     0.24409   0.79870   0.56964   0.00000  Uiso   1.00
C1075  C     0.12429   0.83792   0.90709   0.00000  Uiso   1.00
C1076  C     0.21248   0.97961   0.72805   0.00000  Uiso   1.00
C1077  C     0.14038   0.83329   0.85005   0.00000  Uiso   1.00
C1078  C     0.21121   0.68907   0.72789   0.00000  Uiso   1.00
C1079  C     0.16670   0.70962   0.74789   0.00000  Uiso   1.00
C1080  C     0.12278   0.68758   0.76663   0.00000  Uiso   1.00
C1081  C     0.12348   0.97833   0.76668   0.00000  Uiso   1.00
C1082  C     0.16810   0.95740   0.74797   0.00000  Uiso   1.00
C1083  C     0.30145   0.86285   0.77682   0.00000  Uiso   1.00
C1084  C     0.01774   0.86301   0.77656   0.00000  Uiso   1.00
C1085  C     0.03145   0.80305   0.72390   0.00000  Uiso   1.00
C1086  C     0.31508   0.80331   0.72413   0.00000  Uiso   1.00
C1087  C     0.16658   0.75411   0.74937   0.00000  Uiso   1.00
C1088  C     0.19280   0.83293   0.65004   0.00000  Uiso   1.00
C1089  C     0.24837   0.78412   0.51962   0.00000  Uiso   1.00
C1090  C     0.20688   0.82624   0.59374   0.00000  Uiso   1.00
C1091  C     0.08441   0.86348   0.92929   0.00000  Uiso   1.00
C1092  C     0.07122   0.87343   0.98175   0.00000  Uiso   1.00
C1093  C     0.09808   0.85908   0.51370   0.00000  Uiso   1.00
Cu1094 Cu    0.11978   0.83333   0.75000   0.00000  Uiso   1.00
Cu1095 Cu    0.21355   0.83334   0.75000   0.00000  Uiso   1.00
H1096  H     0.08910   0.96177   0.78207   0.00000  Uiso   1.00
H1097  H     0.30142   0.77921   0.70380   0.00000  Uiso   1.00
H1098  H     0.24638   0.75662   0.92743   0.00000  Uiso   1.00
H1099  H     0.27715   0.76239   0.50156   0.00000  Uiso   1.00
H1100  H     0.06365   0.87651   0.90568   0.00000  Uiso   1.00
H1101  H     0.19211   0.77742   0.88004   0.00000  Uiso   1.00
N1102  N     0.04931   0.83332   0.74998   0.00000  Uiso   1.00
N1103  N     0.28402   0.83335   0.74999   0.00000  Uiso   1.00
O1104  O     0.12708   0.89345   0.75000   0.00000  Uiso   1.00
O1105  O     0.20627   0.89346   0.75000   0.00000  Uiso   1.00
O1106  O     0.10775   0.83332   0.82549   0.00000  Uiso   1.00
O1107  O     0.18694   0.83333   0.82549   0.00000  Uiso   1.00
O1108  O     0.12706   0.77321   0.74999   0.00000  Uiso   1.00
O1109  O     0.20625   0.77322   0.74999   0.00000  Uiso   1.00
O1110  O     0.14640   0.83334   0.67451   0.00000  Uiso   1.00
O1111  O     0.22559   0.83335   0.67451   0.00000  Uiso   1.00
H1112  H     0.26811   0.78688   0.59040   0.00000  Uiso   1.00
H1113  H     0.24504   0.70625   0.71178   0.00000  Uiso   1.00
H1114  H     0.08809   0.70325   0.78208   0.00000  Uiso   1.00
H1115  H     0.27695   0.88620   0.79886   0.00000  Uiso   1.00
H1116  H     0.03061   0.88672   0.79810   0.00000  Uiso   1.00
N1117  N     0.06152   0.76939   0.70016   0.00000  Uiso   1.00
H1118  H     0.04795   0.74169   0.71713   0.00000  Uiso   1.00
C1119  C     0.07446   0.76689   0.64393   0.00000  Uiso   1.00
H1120  H     0.04162   0.75925   0.63151   0.00000  Uiso   1.00
H1121  H     0.10198   0.74227   0.62941   0.00000  Uiso   1.00
H1122  H     0.09095   0.79632   0.62639   0.00000  Uiso   1.00
H1123  H     0.15211   0.86561   0.58533   0.00000  Uiso   1.00
N1124  N     0.07892   0.86724   0.56817   0.00000  Uiso   1.00
H1125  H     0.08136   0.89805   0.57715   0.00000  Uiso   1.00
C1126  C     0.03031   0.85071   0.59314   0.00000  Uiso   1.00
H1127  H     0.02229   0.85336   0.63606   0.00000  Uiso   1.00
H1128  H     0.02800   0.81779   0.58222   0.00000  Uiso   1.00
H1129  H     0.00205   0.86832   0.58197   0.00000  Uiso   1.00
H1130  H     0.03956   0.89279   0.99781   0.00000  Uiso   1.00
N1131  N     0.25780   0.95915   0.70558   0.00000  Uiso   1.00
H1132  H     0.27274   0.96510   0.66636   0.00000  Uiso   1.00
C1133  C     0.29328   0.96483   0.73387   0.00000  Uiso   1.00
H1134  H     0.32460   0.94379   0.71746   0.00000  Uiso   1.00
H1135  H     0.27640   0.95768   0.77579   0.00000  Uiso   1.00
H1136  H     0.30744   0.99704   0.73023   0.00000  Uiso   1.00
C1137  C     0.50057   0.91265   0.74916   0.00000  Uiso   1.00
C1138  C     0.47511   0.83543   0.99124   0.00000  Uiso   1.00
C1139  C     0.48476   0.82180   0.93837   0.00000  Uiso   1.00
C1140  C     0.50972   0.82432   0.51794   0.00000  Uiso   1.00
C1141  C     0.54781   0.79593   0.99412   0.00000  Uiso   1.00
C1142  C     0.55183   0.77920   0.94515   0.00000  Uiso   1.00
C1143  C     0.52095   0.79190   0.91768   0.00000  Uiso   1.00
C1144  C     0.50930   0.84108   0.56664   0.00000  Uiso   1.00
C1145  C     0.57742   0.79870   0.56964   0.00000  Uiso   1.00
C1146  C     0.45762   0.83792   0.90709   0.00000  Uiso   1.00
C1147  C     0.54581   0.97961   0.72805   0.00000  Uiso   1.00
C1148  C     0.47371   0.83329   0.85005   0.00000  Uiso   1.00
C1149  C     0.54454   0.68907   0.72789   0.00000  Uiso   1.00
C1150  C     0.50004   0.70962   0.74789   0.00000  Uiso   1.00
C1151  C     0.45611   0.68758   0.76663   0.00000  Uiso   1.00
C1152  C     0.45682   0.97833   0.76668   0.00000  Uiso   1.00
C1153  C     0.50144   0.95740   0.74797   0.00000  Uiso   1.00
C1154  C     0.63479   0.86285   0.77682   0.00000  Uiso   1.00
C1155  C     0.35107   0.86301   0.77656   0.00000  Uiso   1.00
C1156  C     0.36479   0.80305   0.72390   0.00000  Uiso   1.00
C1157  C     0.64841   0.80331   0.72413   0.00000  Uiso   1.00
C1158  C     0.49991   0.75411   0.74937   0.00000  Uiso   1.00
C1159  C     0.52614   0.83293   0.65004   0.00000  Uiso   1.00
C1160  C     0.58171   0.78412   0.51962   0.00000  Uiso   1.00
C1161  C     0.54021   0.82624   0.59374   0.00000  Uiso   1.00
C1162  C     0.41775   0.86348   0.92929   0.00000  Uiso   1.00
C1163  C     0.40455   0.87343   0.98175   0.00000  Uiso   1.00
C1164  C     0.43141   0.85908   0.51370   0.00000  Uiso   1.00
Cu1165 Cu    0.45311   0.83333   0.75000   0.00000  Uiso   1.00
Cu1166 Cu    0.54689   0.83334   0.75000   0.00000  Uiso   1.00
H1167  H     0.42244   0.96177   0.78207   0.00000  Uiso   1.00
H1168  H     0.63475   0.77921   0.70380   0.00000  Uiso   1.00
H1169  H     0.57972   0.75662   0.92743   0.00000  Uiso   1.00
H1170  H     0.61048   0.76239   0.50156   0.00000  Uiso   1.00
H1171  H     0.39698   0.87651   0.90568   0.00000  Uiso   1.00
H1172  H     0.52545   0.77742   0.88004   0.00000  Uiso   1.00
N1173  N     0.38265   0.83332   0.74998   0.00000  Uiso   1.00
N1174  N     0.61735   0.83335   0.74999   0.00000  Uiso   1.00
O1175  O     0.46042   0.89345   0.75000   0.00000  Uiso   1.00
O1176  O     0.53961   0.89346   0.75000   0.00000  Uiso   1.00
O1177  O     0.44108   0.83332   0.82549   0.00000  Uiso   1.00
O1178  O     0.52027   0.83333   0.82549   0.00000  Uiso   1.00
O1179  O     0.46039   0.77321   0.74999   0.00000  Uiso   1.00
O1180  O     0.53958   0.77322   0.74999   0.00000  Uiso   1.00
O1181  O     0.47973   0.83334   0.67451   0.00000  Uiso   1.00
O1182  O     0.55892   0.83335   0.67451   0.00000  Uiso   1.00
H1183  H     0.60145   0.78688   0.59040   0.00000  Uiso   1.00
H1184  H     0.57837   0.70625   0.71178   0.00000  Uiso   1.00
H1185  H     0.42142   0.70325   0.78208   0.00000  Uiso   1.00
H1186  H     0.61028   0.88620   0.79886   0.00000  Uiso   1.00
H1187  H     0.36394   0.88672   0.79810   0.00000  Uiso   1.00
N1188  N     0.39485   0.76939   0.70016   0.00000  Uiso   1.00
H1189  H     0.38128   0.74169   0.71713   0.00000  Uiso   1.00
C1190  C     0.40779   0.76689   0.64393   0.00000  Uiso   1.00
H1191  H     0.37496   0.75925   0.63151   0.00000  Uiso   1.00
H1192  H     0.43532   0.74227   0.62941   0.00000  Uiso   1.00
H1193  H     0.42428   0.79632   0.62639   0.00000  Uiso   1.00
H1194  H     0.48544   0.86561   0.58533   0.00000  Uiso   1.00
N1195  N     0.41226   0.86724   0.56817   0.00000  Uiso   1.00
H1196  H     0.41469   0.89805   0.57715   0.00000  Uiso   1.00
C1197  C     0.36365   0.85071   0.59314   0.00000  Uiso   1.00
H1198  H     0.35562   0.85336   0.63606   0.00000  Uiso   1.00
H1199  H     0.36133   0.81779   0.58222   0.00000  Uiso   1.00
H1200  H     0.33538   0.86832   0.58197   0.00000  Uiso   1.00
H1201  H     0.37289   0.89279   0.99781   0.00000  Uiso   1.00
N1202  N     0.59113   0.95915   0.70558   0.00000  Uiso   1.00
H1203  H     0.60607   0.96510   0.66636   0.00000  Uiso   1.00
C1204  C     0.62661   0.96483   0.73387   0.00000  Uiso   1.00
H1205  H     0.65794   0.94379   0.71746   0.00000  Uiso   1.00
H1206  H     0.60974   0.95768   0.77579   0.00000  Uiso   1.00
H1207  H     0.64078   0.99704   0.73023   0.00000  Uiso   1.00
C1208  C     0.83390   0.91265   0.74916   0.00000  Uiso   1.00
C1209  C     0.80844   0.83543   0.99124   0.00000  Uiso   1.00
C1210  C     0.81810   0.82180   0.93837   0.00000  Uiso   1.00
C1211  C     0.84306   0.82432   0.51794   0.00000  Uiso   1.00
C1212  C     0.88115   0.79593   0.99412   0.00000  Uiso   1.00
C1213  C     0.88516   0.77920   0.94515   0.00000  Uiso   1.00
C1214  C     0.85428   0.79190   0.91768   0.00000  Uiso   1.00
C1215  C     0.84264   0.84108   0.56664   0.00000  Uiso   1.00
C1216  C     0.91076   0.79870   0.56964   0.00000  Uiso   1.00
C1217  C     0.79095   0.83792   0.90709   0.00000  Uiso   1.00
C1218  C     0.87914   0.97961   0.72805   0.00000  Uiso   1.00
C1219  C     0.80704   0.83329   0.85005   0.00000  Uiso   1.00
C1220  C     0.87787   0.68907   0.72789   0.00000  Uiso   1.00
C1221  C     0.83337   0.70962   0.74789   0.00000  Uiso   1.00
C1222  C     0.78944   0.68758   0.76663   0.00000  Uiso   1.00
C1223  C     0.79015   0.97833   0.76668   0.00000  Uiso   1.00
C1224  C     0.83477   0.95740   0.74797   0.00000  Uiso   1.00
C1225  C     0.96812   0.86285   0.77682   0.00000  Uiso   1.00
C1226  C     0.68441   0.86301   0.77656   0.00000  Uiso   1.00
C1227  C     0.69812   0.80305   0.72390   0.00000  Uiso   1.00
C1228  C     0.98175   0.80331   0.72413   0.00000  Uiso   1.00
C1229  C     0.83324   0.75411   0.74937   0.00000  Uiso   1.00
C1230  C     0.85947   0.83293   0.65004   0.00000  Uiso   1.00
C1231  C     0.91504   0.78412   0.51962   0.00000  Uiso   1.00
C1232  C     0.87354   0.82624   0.59374   0.00000  Uiso   1.00
C1233  C     0.75108   0.86348   0.92929   0.00000  Uiso   1.00
C1234  C     0.73788   0.87343   0.98175   0.00000  Uiso   1.00
C1235  C     0.76474   0.85908   0.51370   0.00000  Uiso   1.00
Cu1236 Cu    0.78645   0.83333   0.75000   0.00000  Uiso   1.00
Cu1237 Cu    0.88022   0.83334   0.75000   0.00000  Uiso   1.00
H1238  H     0.75577   0.96177   0.78207   0.00000  Uiso   1.00
H1239  H     0.96808   0.77921   0.70380   0.00000  Uiso   1.00
H1240  H     0.91305   0.75662   0.92743   0.00000  Uiso   1.00
H1241  H     0.94382   0.76239   0.50156   0.00000  Uiso   1.00
H1242  H     0.73032   0.87651   0.90568   0.00000  Uiso   1.00
H1243  H     0.85878   0.77742   0.88004   0.00000  Uiso   1.00
N1244  N     0.71598   0.83332   0.74998   0.00000  Uiso   1.00
N1245  N     0.95069   0.83335   0.74999   0.00000  Uiso   1.00
O1246  O     0.79375   0.89345   0.75000   0.00000  Uiso   1.00
O1247  O     0.87294   0.89346   0.75000   0.00000  Uiso   1.00
O1248  O     0.77441   0.83332   0.82549   0.00000  Uiso   1.00
O1249  O     0.85360   0.83333   0.82549   0.00000  Uiso   1.00
O1250  O     0.79373   0.77321   0.74999   0.00000  Uiso   1.00
O1251  O     0.87292   0.77322   0.74999   0.00000  Uiso   1.00
O1252  O     0.81306   0.83334   0.67451   0.00000  Uiso   1.00
O1253  O     0.89225   0.83335   0.67451   0.00000  Uiso   1.00
H1254  H     0.93478   0.78688   0.59040   0.00000  Uiso   1.00
H1255  H     0.91170   0.70625   0.71178   0.00000  Uiso   1.00
H1256  H     0.75475   0.70325   0.78208   0.00000  Uiso   1.00
H1257  H     0.94361   0.88620   0.79886   0.00000  Uiso   1.00
H1258  H     0.69727   0.88672   0.79810   0.00000  Uiso   1.00
N1259  N     0.72819   0.76939   0.70016   0.00000  Uiso   1.00
H1260  H     0.71462   0.74169   0.71713   0.00000  Uiso   1.00
C1261  C     0.74112   0.76689   0.64393   0.00000  Uiso   1.00
H1262  H     0.70829   0.75925   0.63151   0.00000  Uiso   1.00
H1263  H     0.76865   0.74227   0.62941   0.00000  Uiso   1.00
H1264  H     0.75761   0.79632   0.62639   0.00000  Uiso   1.00
H1265  H     0.81877   0.86561   0.58533   0.00000  Uiso   1.00
N1266  N     0.74559   0.86724   0.56817   0.00000  Uiso   1.00
H1267  H     0.74802   0.89805   0.57715   0.00000  Uiso   1.00
C1268  C     0.69698   0.85071   0.59314   0.00000  Uiso   1.00
H1269  H     0.68896   0.85336   0.63606   0.00000  Uiso   1.00
H1270  H     0.69467   0.81779   0.58222   0.00000  Uiso   1.00
H1271  H     0.66872   0.86832   0.58197   0.00000  Uiso   1.00
H1272  H     0.70623   0.89279   0.99781   0.00000  Uiso   1.00
N1273  N     0.92447   0.95915   0.70558   0.00000  Uiso   1.00
H1274  H     0.93941   0.96510   0.66636   0.00000  Uiso   1.00
C1275  C     0.95994   0.96483   0.73387   0.00000  Uiso   1.00
H1276  H     0.99127   0.94379   0.71746   0.00000  Uiso   1.00
H1277  H     0.94307   0.95768   0.77579   0.00000  Uiso   1.00
H1278  H     0.97411   0.99704   0.73023   0.00000  Uiso   1.00
loop_
_geom_bond_atom_site_label_1
_geom_bond_atom_site_label_2
_geom_bond_distance
_geom_bond_site_symmetry_2
_ccdc_geom_bond_type
C1     C17     1.453   .     S
C1     O40     1.292   .     A
C1     O39     1.293   .     A
C2     C3      1.428   .     A
C2     C643    1.438   .     S
C2     C667    1.439   .     S
C3     C10     1.414   .     A
C3     C7      1.409   .     A
C4     C8      1.406   .     A
C4     C641    1.438   1_554 S
C4     C644    1.426   1_554 S
C5     C6      1.389   .     A
C5     C643    1.426   .     S
C5     C663    1.404   .     S
C6     C7      1.380   .     A
C6     H33     1.084   .     S
C7     H36     1.081   .     S
C8     C25     1.397   .     A
C8     H58     1.072   .     S
C9     C24     1.389   .     A
C9     C25     1.394   .     A
C9     H47     1.084   .     S
C10    C12     1.468   .     S
C10    C26     1.394   .     A
C11    N66     1.423   .     S
C11    C17     1.412   .     A
C11    C226    1.390   .     S
C12    O42     1.296   .     A
C12    O41     1.295   .     A
C13    H48     1.084   .     S
C13    C14     1.397   .     A
C13    C437    1.390   1_545 S
C14    C22     1.444   .     S
C14    C15     1.396   .     A
C15    H49     1.083   .     S
C15    C442    1.383   1_545 S
C16    H31     1.084   .     S
C16    C17     1.403   .     A
C16    C228    1.383   .     S
C18    N38     1.366   .     A
C18    H50     1.080   .     S
C18    C90     1.416   .     S
C19    H51     1.081   .     S
C19    N37     1.367   .     A
C19    C160    1.416   1_455 S
C20    N52     1.419   .     S
C20    N37     1.378   .     A
C20    C163    1.419   1_455 S
C21    H32     1.082   .     S
C21    N38     1.362   .     A
C21    C91     1.419   .     S
C22    O43     1.291   .     A
C22    O44     1.290   .     A
C23    O45     1.292   .     A
C23    C25     1.458   .     S
C23    O46     1.296   .     A
C24    H34     1.084   .     S
C24    C644    1.404   1_554 S
C26    C27     1.380   .     A
C26    H35     1.084   .     S
C27    H65     1.083   .     S
C27    C667    1.401   .     S
C28    N59     1.422   .     S
C28    C666    1.401   1_554 S
C28    C641    1.439   1_554 S
Cu29   O39     1.960   .     S
Cu29   O43     1.966   .     S
Cu29   Cu30    2.681   .     S
Cu29   O45     1.941   .     S
Cu29   N37     2.015   .     S
Cu29   O41     1.953   .     S
Cu30   O44     1.960   .     S
Cu30   O40     1.966   .     S
Cu30   O42     1.941   .     S
Cu30   N38     2.014   .     S
Cu30   O46     1.953   .     S
N52    C54     1.445   .     S
N52    H53     1.032   .     S
C54    H56     1.110   .     S
C54    H55     1.111   .     S
C54    H57     1.107   .     S
N59    H60     1.032   .     S
N59    C61     1.449   .     S
C61    H64     1.111   .     S
C61    H62     1.108   .     S
C61    H63     1.110   .     S
N66    C68     1.447   .     S
N66    H67     1.031   .     S
C68    H71     1.111   .     S
C68    H69     1.110   .     S
C68    H70     1.111   .     S
C72    C88     1.453   .     S
C72    O111    1.292   .     A
C72    O110    1.293   .     A
C73    C74     1.428   .     A
C73    C714    1.438   .     S
C73    C738    1.439   .     S
C74    C81     1.414   .     A
C74    C78     1.409   .     A
C75    C79     1.406   .     A
C75    C712    1.438   1_554 S
C75    C715    1.426   1_554 S
C76    C77     1.389   .     A
C76    C714    1.426   .     S
C76    C734    1.404   .     S
C77    C78     1.380   .     A
C77    H104    1.084   .     S
C78    H107    1.081   .     S
C79    C96     1.397   .     A
C79    H129    1.072   .     S
C80    C95     1.389   .     A
C80    C96     1.394   .     A
C80    H118    1.084   .     S
C81    C83     1.468   .     S
C81    C97     1.394   .     A
C82    N137    1.423   .     S
C82    C88     1.412   .     A
C82    C297    1.390   .     S
C83    O113    1.296   .     A
C83    O112    1.295   .     A
C84    H119    1.084   .     S
C84    C85     1.397   .     A
C84    C508    1.390   1_545 S
C85    C93     1.444   .     S
C85    C86     1.396   .     A
C86    H120    1.083   .     S
C86    C513    1.383   1_545 S
C87    H102    1.084   .     S
C87    C88     1.403   .     A
C87    C299    1.383   .     S
C89    N109    1.366   .     A
C89    H121    1.080   .     S
C89    C161    1.416   .     S
C90    H122    1.081   .     S
C90    N108    1.367   .     A
C91    N123    1.419   .     S
C91    N108    1.378   .     A
C92    H103    1.082   .     S
C92    N109    1.362   .     A
C92    C162    1.419   .     S
C93    O114    1.291   .     A
C93    O115    1.290   .     A
C94    O116    1.292   .     A
C94    C96     1.458   .     S
C94    O117    1.296   .     A
C95    H105    1.084   .     S
C95    C715    1.404   1_554 S
C97    C98     1.380   .     A
C97    H106    1.084   .     S
C98    H136    1.083   .     S
C98    C738    1.401   .     S
C99    N130    1.422   .     S
C99    C737    1.401   1_554 S
C99    C712    1.439   1_554 S
Cu100  O110    1.960   .     S
Cu100  O114    1.966   .     S
Cu100  Cu101   2.681   .     S
Cu100  O116    1.941   .     S
Cu100  N108    2.015   .     S
Cu100  O112    1.953   .     S
Cu101  O115    1.960   .     S
Cu101  O111    1.966   .     S
Cu101  O113    1.941   .     S
Cu101  N109    2.014   .     S
Cu101  O117    1.953   .     S
N123   C125    1.445   .     S
N123   H124    1.032   .     S
C125   H127    1.110   .     S
C125   H126    1.111   .     S
C125   H128    1.107   .     S
N130   H131    1.032   .     S
N130   C132    1.449   .     S
C132   H135    1.111   .     S
C132   H133    1.108   .     S
C132   H134    1.110   .     S
N137   C139    1.447   .     S
N137   H138    1.031   .     S
C139   H142    1.111   .     S
C139   H140    1.110   .     S
C139   H141    1.111   .     S
C143   C159    1.453   .     S
C143   O182    1.292   .     A
C143   O181    1.293   .     A
C144   C145    1.428   .     A
C144   C785    1.438   .     S
C144   C809    1.439   .     S
C145   C152    1.414   .     A
C145   C149    1.409   .     A
C146   C150    1.406   .     A
C146   C783    1.438   1_554 S
C146   C786    1.426   1_554 S
C147   C148    1.389   .     A
C147   C785    1.426   .     S
C147   C805    1.404   .     S
C148   C149    1.380   .     A
C148   H175    1.084   .     S
C149   H178    1.081   .     S
C150   C167    1.397   .     A
C150   H200    1.072   .     S
C151   C166    1.389   .     A
C151   C167    1.394   .     A
C151   H189    1.084   .     S
C152   C154    1.468   .     S
C152   C168    1.394   .     A
C153   N208    1.423   .     S
C153   C159    1.412   .     A
C153   C368    1.390   .     S
C154   O184    1.296   .     A
C154   O183    1.295   .     A
C155   H190    1.084   .     S
C155   C156    1.397   .     A
C155   C579    1.390   1_545 S
C156   C164    1.444   .     S
C156   C157    1.396   .     A
C157   H191    1.083   .     S
C157   C584    1.383   1_545 S
C158   H173    1.084   .     S
C158   C159    1.403   .     A
C158   C370    1.383   .     S
C160   N180    1.366   .     A
C160   H192    1.080   .     S
C160   C19     1.416   1_655 S
C161   H193    1.081   .     S
C161   N179    1.367   .     A
C162   N194    1.419   .     S
C162   N179    1.378   .     A
C163   H174    1.082   .     S
C163   N180    1.362   .     A
C163   C20     1.419   1_655 S
C164   O185    1.291   .     A
C164   O186    1.290   .     A
C165   O187    1.292   .     A
C165   C167    1.458   .     S
C165   O188    1.296   .     A
C166   H176    1.084   .     S
C166   C786    1.404   1_554 S
C168   C169    1.380   .     A
C168   H177    1.084   .     S
C169   H207    1.083   .     S
C169   C809    1.401   .     S
C170   N201    1.422   .     S
C170   C808    1.401   1_554 S
C170   C783    1.439   1_554 S
Cu171  O181    1.960   .     S
Cu171  O185    1.966   .     S
Cu171  Cu172   2.681   .     S
Cu171  O187    1.941   .     S
Cu171  N179    2.015   .     S
Cu171  O183    1.953   .     S
Cu172  O186    1.960   .     S
Cu172  O182    1.966   .     S
Cu172  O184    1.941   .     S
Cu172  N180    2.014   .     S
Cu172  O188    1.953   .     S
N194   C196    1.445   .     S
N194   H195    1.032   .     S
C196   H198    1.110   .     S
C196   H197    1.111   .     S
C196   H199    1.107   .     S
N201   H202    1.032   .     S
N201   C203    1.449   .     S
C203   H206    1.111   .     S
C203   H204    1.108   .     S
C203   H205    1.110   .     S
N208   C210    1.447   .     S
N208   H209    1.031   .     S
C210   H213    1.111   .     S
C210   H211    1.110   .     S
C210   H212    1.111   .     S
C214   C230    1.453   .     S
C214   O253    1.292   .     A
C214   O252    1.293   .     A
C215   C216    1.428   .     A
C215   C856    1.438   .     S
C215   C880    1.439   .     S
C216   C223    1.414   .     A
C216   C220    1.409   .     A
C217   C221    1.406   .     A
C217   C854    1.438   1_554 S
C217   C857    1.426   1_554 S
C218   C219    1.389   .     A
C218   C856    1.426   .     S
C218   C876    1.404   .     S
C219   C220    1.380   .     A
C219   H246    1.084   .     S
C220   H249    1.081   .     S
C221   C238    1.397   .     A
C221   H271    1.072   .     S
C222   C237    1.389   .     A
C222   C238    1.394   .     A
C222   H260    1.084   .     S
C223   C225    1.468   .     S
C223   C239    1.394   .     A
C224   N279    1.423   .     S
C224   C230    1.412   .     A
C224   C439    1.390   .     S
C225   O255    1.296   .     A
C225   O254    1.295   .     A
C226   H261    1.084   .     S
C226   C227    1.397   .     A
C227   C235    1.444   .     S
C227   C228    1.396   .     A
C228   H262    1.083   .     S
C229   H244    1.084   .     S
C229   C230    1.403   .     A
C229   C441    1.383   .     S
C231   N251    1.366   .     A
C231   H263    1.080   .     S
C231   C303    1.416   .     S
C232   H264    1.081   .     S
C232   N250    1.367   .     A
C232   C373    1.416   1_455 S
C233   N265    1.419   .     S
C233   N250    1.378   .     A
C233   C376    1.419   1_455 S
C234   H245    1.082   .     S
C234   N251    1.362   .     A
C234   C304    1.419   .     S
C235   O256    1.291   .     A
C235   O257    1.290   .     A
C236   O258    1.292   .     A
C236   C238    1.458   .     S
C236   O259    1.296   .     A
C237   H247    1.084   .     S
C237   C857    1.404   1_554 S
C239   C240    1.380   .     A
C239   H248    1.084   .     S
C240   H278    1.083   .     S
C240   C880    1.401   .     S
C241   N272    1.422   .     S
C241   C879    1.401   1_554 S
C241   C854    1.439   1_554 S
Cu242  O252    1.960   .     S
Cu242  O256    1.966   .     S
Cu242  Cu243   2.681   .     S
Cu242  O258    1.941   .     S
Cu242  N250    2.015   .     S
Cu242  O254    1.953   .     S
Cu243  O257    1.960   .     S
Cu243  O253    1.966   .     S
Cu243  O255    1.941   .     S
Cu243  N251    2.014   .     S
Cu243  O259    1.953   .     S
N265   C267    1.445   .     S
N265   H266    1.032   .     S
C267   H269    1.110   .     S
C267   H268    1.111   .     S
C267   H270    1.107   .     S
N272   H273    1.032   .     S
N272   C274    1.449   .     S
C274   H277    1.111   .     S
C274   H275    1.108   .     S
C274   H276    1.110   .     S
N279   C281    1.447   .     S
N279   H280    1.031   .     S
C281   H284    1.111   .     S
C281   H282    1.110   .     S
C281   H283    1.111   .     S
C285   C301    1.453   .     S
C285   O324    1.292   .     A
C285   O323    1.293   .     A
C286   C287    1.428   .     A
C286   C927    1.438   .     S
C286   C951    1.439   .     S
C287   C294    1.414   .     A
C287   C291    1.409   .     A
C288   C292    1.406   .     A
C288   C925    1.438   1_554 S
C288   C928    1.426   1_554 S
C289   C290    1.389   .     A
C289   C927    1.426   .     S
C289   C947    1.404   .     S
C290   C291    1.380   .     A
C290   H317    1.084   .     S
C291   H320    1.081   .     S
C292   C309    1.397   .     A
C292   H342    1.072   .     S
C293   C308    1.389   .     A
C293   C309    1.394   .     A
C293   H331    1.084   .     S
C294   C296    1.468   .     S
C294   C310    1.394   .     A
C295   N350    1.423   .     S
C295   C301    1.412   .     A
C295   C510    1.390   .     S
C296   O326    1.296   .     A
C296   O325    1.295   .     A
C297   H332    1.084   .     S
C297   C298    1.397   .     A
C298   C306    1.444   .     S
C298   C299    1.396   .     A
C299   H333    1.083   .     S
C300   H315    1.084   .     S
C300   C301    1.403   .     A
C300   C512    1.383   .     S
C302   N322    1.366   .     A
C302   H334    1.080   .     S
C302   C374    1.416   .     S
C303   H335    1.081   .     S
C303   N321    1.367   .     A
C304   N336    1.419   .     S
C304   N321    1.378   .     A
C305   H316    1.082   .     S
C305   N322    1.362   .     A
C305   C375    1.419   .     S
C306   O327    1.291   .     A
C306   O328    1.290   .     A
C307   O329    1.292   .     A
C307   C309    1.458   .     S
C307   O330    1.296   .     A
C308   H318    1.084   .     S
C308   C928    1.404   1_554 S
C310   C311    1.380   .     A
C310   H319    1.084   .     S
C311   H349    1.083   .     S
C311   C951    1.401   .     S
C312   N343    1.422   .     S
C312   C950    1.401   1_554 S
C312   C925    1.439   1_554 S
Cu313  O323    1.960   .     S
Cu313  O327    1.966   .     S
Cu313  Cu314   2.681   .     S
Cu313  O329    1.941   .     S
Cu313  N321    2.015   .     S
Cu313  O325    1.953   .     S
Cu314  O328    1.960   .     S
Cu314  O324    1.966   .     S
Cu314  O326    1.941   .     S
Cu314  N322    2.014   .     S
Cu314  O330    1.953   .     S
N336   C338    1.445   .     S
N336   H337    1.032   .     S
C338   H340    1.110   .     S
C338   H339    1.111   .     S
C338   H341    1.107   .     S
N343   H344    1.032   .     S
N343   C345    1.449   .     S
C345   H348    1.111   .     S
C345   H346    1.108   .     S
C345   H347    1.110   .     S
N350   C352    1.447   .     S
N350   H351    1.031   .     S
C352   H355    1.111   .     S
C352   H353    1.110   .     S
C352   H354    1.111   .     S
C356   C372    1.453   .     S
C356   O395    1.292   .     A
C356   O394    1.293   .     A
C357   C358    1.428   .     A
C357   C998    1.438   .     S
C357   C1022   1.439   .     S
C358   C365    1.414   .     A
C358   C362    1.409   .     A
C359   C363    1.406   .     A
C359   C996    1.438   1_554 S
C359   C999    1.426   1_554 S
C360   C361    1.389   .     A
C360   C998    1.426   .     S
C360   C1018   1.404   .     S
C361   C362    1.380   .     A
C361   H388    1.084   .     S
C362   H391    1.081   .     S
C363   C380    1.397   .     A
C363   H413    1.072   .     S
C364   C379    1.389   .     A
C364   C380    1.394   .     A
C364   H402    1.084   .     S
C365   C367    1.468   .     S
C365   C381    1.394   .     A
C366   N421    1.423   .     S
C366   C372    1.412   .     A
C366   C581    1.390   .     S
C367   O397    1.296   .     A
C367   O396    1.295   .     A
C368   H403    1.084   .     S
C368   C369    1.397   .     A
C369   C377    1.444   .     S
C369   C370    1.396   .     A
C370   H404    1.083   .     S
C371   H386    1.084   .     S
C371   C372    1.403   .     A
C371   C583    1.383   .     S
C373   N393    1.366   .     A
C373   H405    1.080   .     S
C373   C232    1.416   1_655 S
C374   H406    1.081   .     S
C374   N392    1.367   .     A
C375   N407    1.419   .     S
C375   N392    1.378   .     A
C376   H387    1.082   .     S
C376   N393    1.362   .     A
C376   C233    1.419   1_655 S
C377   O398    1.291   .     A
C377   O399    1.290   .     A
C378   O400    1.292   .     A
C378   C380    1.458   .     S
C378   O401    1.296   .     A
C379   H389    1.084   .     S
C379   C999    1.404   1_554 S
C381   C382    1.380   .     A
C381   H390    1.084   .     S
C382   H420    1.083   .     S
C382   C1022   1.401   .     S
C383   N414    1.422   .     S
C383   C1021   1.401   1_554 S
C383   C996    1.439   1_554 S
Cu384  O394    1.960   .     S
Cu384  O398    1.966   .     S
Cu384  Cu385   2.681   .     S
Cu384  O400    1.941   .     S
Cu384  N392    2.015   .     S
Cu384  O396    1.953   .     S
Cu385  O399    1.960   .     S
Cu385  O395    1.966   .     S
Cu385  O397    1.941   .     S
Cu385  N393    2.014   .     S
Cu385  O401    1.953   .     S
N407   C409    1.445   .     S
N407   H408    1.032   .     S
C409   H411    1.110   .     S
C409   H410    1.111   .     S
C409   H412    1.107   .     S
N414   H415    1.032   .     S
N414   C416    1.449   .     S
C416   H419    1.111   .     S
C416   H417    1.108   .     S
C416   H418    1.110   .     S
N421   C423    1.447   .     S
N421   H422    1.031   .     S
C423   H426    1.111   .     S
C423   H424    1.110   .     S
C423   H425    1.111   .     S
C427   C443    1.453   .     S
C427   O466    1.292   .     A
C427   O465    1.293   .     A
C428   C429    1.428   .     A
C428   C1069   1.438   .     S
C428   C1093   1.439   .     S
C429   C436    1.414   .     A
C429   C433    1.409   .     A
C430   C434    1.406   .     A
C430   C1067   1.438   1_554 S
C430   C1070   1.426   1_554 S
C431   C432    1.389   .     A
C431   C1069   1.426   .     S
C431   C1089   1.404   .     S
C432   C433    1.380   .     A
C432   H459    1.084   .     S
C433   H462    1.081   .     S
C434   C451    1.397   .     A
C434   H484    1.072   .     S
C435   C450    1.389   .     A
C435   C451    1.394   .     A
C435   H473    1.084   .     S
C436   C438    1.468   .     S
C436   C452    1.394   .     A
C437   N492    1.423   .     S
C437   C443    1.412   .     A
C437   C13     1.390   1_565 S
C438   O468    1.296   .     A
C438   O467    1.295   .     A
C439   H474    1.084   .     S
C439   C440    1.397   .     A
C440   C448    1.444   .     S
C440   C441    1.396   .     A
C441   H475    1.083   .     S
C442   H457    1.084   .     S
C442   C443    1.403   .     A
C442   C15     1.383   1_565 S
C444   N464    1.366   .     A
C444   H476    1.080   .     S
C444   C516    1.416   .     S
C445   H477    1.081   .     S
C445   N463    1.367   .     A
C445   C586    1.416   1_455 S
C446   N478    1.419   .     S
C446   N463    1.378   .     A
C446   C589    1.419   1_455 S
C447   H458    1.082   .     S
C447   N464    1.362   .     A
C447   C517    1.419   .     S
C448   O469    1.291   .     A
C448   O470    1.290   .     A
C449   O471    1.292   .     A
C449   C451    1.458   .     S
C449   O472    1.296   .     A
C450   H460    1.084   .     S
C450   C1070   1.404   1_554 S
C452   C453    1.380   .     A
C452   H461    1.084   .     S
C453   H491    1.083   .     S
C453   C1093   1.401   .     S
C454   N485    1.422   .     S
C454   C1092   1.401   1_554 S
C454   C1067   1.439   1_554 S
Cu455  O465    1.960   .     S
Cu455  O469    1.966   .     S
Cu455  Cu456   2.681   .     S
Cu455  O471    1.941   .     S
Cu455  N463    2.015   .     S
Cu455  O467    1.953   .     S
Cu456  O470    1.960   .     S
Cu456  O466    1.966   .     S
Cu456  O468    1.941   .     S
Cu456  N464    2.014   .     S
Cu456  O472    1.953   .     S
N478   C480    1.445   .     S
N478   H479    1.032   .     S
C480   H482    1.110   .     S
C480   H481    1.111   .     S
C480   H483    1.107   .     S
N485   H486    1.032   .     S
N485   C487    1.449   .     S
C487   H490    1.111   .     S
C487   H488    1.108   .     S
C487   H489    1.110   .     S
N492   C494    1.447   .     S
N492   H493    1.031   .     S
C494   H497    1.111   .     S
C494   H495    1.110   .     S
C494   H496    1.111   .     S
C498   C514    1.453   .     S
C498   O537    1.292   .     A
C498   O536    1.293   .     A
C499   C500    1.428   .     A
C499   C1140   1.438   .     S
C499   C1164   1.439   .     S
C500   C507    1.414   .     A
C500   C504    1.409   .     A
C501   C505    1.406   .     A
C501   C1138   1.438   1_554 S
C501   C1141   1.426   1_554 S
C502   C503    1.389   .     A
C502   C1140   1.426   .     S
C502   C1160   1.404   .     S
C503   C504    1.380   .     A
C503   H530    1.084   .     S
C504   H533    1.081   .     S
C505   C522    1.397   .     A
C505   H555    1.072   .     S
C506   C521    1.389   .     A
C506   C522    1.394   .     A
C506   H544    1.084   .     S
C507   C509    1.468   .     S
C507   C523    1.394   .     A
C508   N563    1.423   .     S
C508   C514    1.412   .     A
C508   C84     1.390   1_565 S
C509   O539    1.296   .     A
C509   O538    1.295   .     A
C510   H545    1.084   .     S
C510   C511    1.397   .     A
C511   C519    1.444   .     S
C511   C512    1.396   .     A
C512   H546    1.083   .     S
C513   H528    1.084   .     S
C513   C514    1.403   .     A
C513   C86     1.383   1_565 S
C515   N535    1.366   .     A
C515   H547    1.080   .     S
C515   C587    1.416   .     S
C516   H548    1.081   .     S
C516   N534    1.367   .     A
C517   N549    1.419   .     S
C517   N534    1.378   .     A
C518   H529    1.082   .     S
C518   N535    1.362   .     A
C518   C588    1.419   .     S
C519   O540    1.291   .     A
C519   O541    1.290   .     A
C520   O542    1.292   .     A
C520   C522    1.458   .     S
C520   O543    1.296   .     A
C521   H531    1.084   .     S
C521   C1141   1.404   1_554 S
C523   C524    1.380   .     A
C523   H532    1.084   .     S
C524   H562    1.083   .     S
C524   C1164   1.401   .     S
C525   N556    1.422   .     S
C525   C1163   1.401   1_554 S
C525   C1138   1.439   1_554 S
Cu526  O536    1.960   .     S
Cu526  O540    1.966   .     S
Cu526  Cu527   2.681   .     S
Cu526  O542    1.941   .     S
Cu526  N534    2.015   .     S
Cu526  O538    1.953   .     S
Cu527  O541    1.960   .     S
Cu527  O537    1.966   .     S
Cu527  O539    1.941   .     S
Cu527  N535    2.014   .     S
Cu527  O543    1.953   .     S
N549   C551    1.445   .     S
N549   H550    1.032   .     S
C551   H553    1.110   .     S
C551   H552    1.111   .     S
C551   H554    1.107   .     S
N556   H557    1.032   .     S
N556   C558    1.449   .     S
C558   H561    1.111   .     S
C558   H559    1.108   .     S
C558   H560    1.110   .     S
N563   C565    1.447   .     S
N563   H564    1.031   .     S
C565   H568    1.111   .     S
C565   H566    1.110   .     S
C565   H567    1.111   .     S
C569   C585    1.453   .     S
C569   O608    1.292   .     A
C569   O607    1.293   .     A
C570   C571    1.428   .     A
C570   C1211   1.438   .     S
C570   C1235   1.439   .     S
C571   C578    1.414   .     A
C571   C575    1.409   .     A
C572   C576    1.406   .     A
C572   C1209   1.438   1_554 S
C572   C1212   1.426   1_554 S
C573   C574    1.389   .     A
C573   C1211   1.426   .     S
C573   C1231   1.404   .     S
C574   C575    1.380   .     A
C574   H601    1.084   .     S
C575   H604    1.081   .     S
C576   C593    1.397   .     A
C576   H626    1.072   .     S
C577   C592    1.389   .     A
C577   C593    1.394   .     A
C577   H615    1.084   .     S
C578   C580    1.468   .     S
C578   C594    1.394   .     A
C579   N634    1.423   .     S
C579   C585    1.412   .     A
C579   C155    1.390   1_565 S
C580   O610    1.296   .     A
C580   O609    1.295   .     A
C581   H616    1.084   .     S
C581   C582    1.397   .     A
C582   C590    1.444   .     S
C582   C583    1.396   .     A
C583   H617    1.083   .     S
C584   H599    1.084   .     S
C584   C585    1.403   .     A
C584   C157    1.383   1_565 S
C586   N606    1.366   .     A
C586   H618    1.080   .     S
C586   C445    1.416   1_655 S
C587   H619    1.081   .     S
C587   N605    1.367   .     A
C588   N620    1.419   .     S
C588   N605    1.378   .     A
C589   H600    1.082   .     S
C589   N606    1.362   .     A
C589   C446    1.419   1_655 S
C590   O611    1.291   .     A
C590   O612    1.290   .     A
C591   O613    1.292   .     A
C591   C593    1.458   .     S
C591   O614    1.296   .     A
C592   H602    1.084   .     S
C592   C1212   1.404   1_554 S
C594   C595    1.380   .     A
C594   H603    1.084   .     S
C595   H633    1.083   .     S
C595   C1235   1.401   .     S
C596   N627    1.422   .     S
C596   C1234   1.401   1_554 S
C596   C1209   1.439   1_554 S
Cu597  O607    1.960   .     S
Cu597  O611    1.966   .     S
Cu597  Cu598   2.681   .     S
Cu597  O613    1.941   .     S
Cu597  N605    2.015   .     S
Cu597  O609    1.953   .     S
Cu598  O612    1.960   .     S
Cu598  O608    1.966   .     S
Cu598  O610    1.941   .     S
Cu598  N606    2.014   .     S
Cu598  O614    1.953   .     S
N620   C622    1.445   .     S
N620   H621    1.032   .     S
C622   H624    1.110   .     S
C622   H623    1.111   .     S
C622   H625    1.107   .     S
N627   H628    1.032   .     S
N627   C629    1.449   .     S
C629   H632    1.111   .     S
C629   H630    1.108   .     S
C629   H631    1.110   .     S
N634   C636    1.447   .     S
N634   H635    1.031   .     S
C636   H639    1.111   .     S
C636   H637    1.110   .     S
C636   H638    1.111   .     S
C640   C656    1.453   .     S
C640   O679    1.292   .     A
C640   O678    1.293   .     A
C641   C642    1.428   .     A
C641   C4      1.438   1_556 S
C641   C28     1.439   1_556 S
C642   C649    1.414   .     A
C642   C646    1.409   .     A
C643   C647    1.406   .     A
C644   C645    1.389   .     A
C644   C4      1.426   1_556 S
C644   C24     1.404   1_556 S
C645   C646    1.380   .     A
C645   H672    1.084   .     S
C646   H675    1.081   .     S
C647   C664    1.397   .     A
C647   H697    1.072   .     S
C648   C663    1.389   .     A
C648   C664    1.394   .     A
C648   H686    1.084   .     S
C649   C651    1.468   .     S
C649   C665    1.394   .     A
C650   N705    1.423   .     S
C650   C656    1.412   .     A
C650   C865    1.390   .     S
C651   O681    1.296   .     A
C651   O680    1.295   .     A
C652   H687    1.084   .     S
C652   C653    1.397   .     A
C652   C1076   1.390   1_545 S
C653   C661    1.444   .     S
C653   C654    1.396   .     A
C654   H688    1.083   .     S
C654   C1081   1.383   1_545 S
C655   H670    1.084   .     S
C655   C656    1.403   .     A
C655   C867    1.383   .     S
C657   N677    1.366   .     A
C657   H689    1.080   .     S
C657   C729    1.416   .     S
C658   H690    1.081   .     S
C658   N676    1.367   .     A
C658   C799    1.416   1_455 S
C659   N691    1.419   .     S
C659   N676    1.378   .     A
C659   C802    1.419   1_455 S
C660   H671    1.082   .     S
C660   N677    1.362   .     A
C660   C730    1.419   .     S
C661   O682    1.291   .     A
C661   O683    1.290   .     A
C662   O684    1.292   .     A
C662   C664    1.458   .     S
C662   O685    1.296   .     A
C663   H673    1.084   .     S
C665   C666    1.380   .     A
C665   H674    1.084   .     S
C666   H704    1.083   .     S
C666   C28     1.401   1_556 S
C667   N698    1.422   .     S
Cu668  O678    1.960   .     S
Cu668  O682    1.966   .     S
Cu668  Cu669   2.681   .     S
Cu668  O684    1.941   .     S
Cu668  N676    2.015   .     S
Cu668  O680    1.953   .     S
Cu669  O683    1.960   .     S
Cu669  O679    1.966   .     S
Cu669  O681    1.941   .     S
Cu669  N677    2.014   .     S
Cu669  O685    1.953   .     S
N691   C693    1.445   .     S
N691   H692    1.032   .     S
C693   H695    1.110   .     S
C693   H694    1.111   .     S
C693   H696    1.107   .     S
N698   H699    1.032   .     S
N698   C700    1.449   .     S
C700   H703    1.111   .     S
C700   H701    1.108   .     S
C700   H702    1.110   .     S
N705   C707    1.447   .     S
N705   H706    1.031   .     S
C707   H710    1.111   .     S
C707   H708    1.110   .     S
C707   H709    1.111   .     S
C711   C727    1.453   .     S
C711   O750    1.292   .     A
C711   O749    1.293   .     A
C712   C713    1.428   .     A
C712   C75     1.438   1_556 S
C712   C99     1.439   1_556 S
C713   C720    1.414   .     A
C713   C717    1.409   .     A
C714   C718    1.406   .     A
C715   C716    1.389   .     A
C715   C75     1.426   1_556 S
C715   C95     1.404   1_556 S
C716   C717    1.380   .     A
C716   H743    1.084   .     S
C717   H746    1.081   .     S
C718   C735    1.397   .     A
C718   H768    1.072   .     S
C719   C734    1.389   .     A
C719   C735    1.394   .     A
C719   H757    1.084   .     S
C720   C722    1.468   .     S
C720   C736    1.394   .     A
C721   N776    1.423   .     S
C721   C727    1.412   .     A
C721   C936    1.390   .     S
C722   O752    1.296   .     A
C722   O751    1.295   .     A
C723   H758    1.084   .     S
C723   C724    1.397   .     A
C723   C1147   1.390   1_545 S
C724   C732    1.444   .     S
C724   C725    1.396   .     A
C725   H759    1.083   .     S
C725   C1152   1.383   1_545 S
C726   H741    1.084   .     S
C726   C727    1.403   .     A
C726   C938    1.383   .     S
C728   N748    1.366   .     A
C728   H760    1.080   .     S
C728   C800    1.416   .     S
C729   H761    1.081   .     S
C729   N747    1.367   .     A
C730   N762    1.419   .     S
C730   N747    1.378   .     A
C731   H742    1.082   .     S
C731   N748    1.362   .     A
C731   C801    1.419   .     S
C732   O753    1.291   .     A
C732   O754    1.290   .     A
C733   O755    1.292   .     A
C733   C735    1.458   .     S
C733   O756    1.296   .     A
C734   H744    1.084   .     S
C736   C737    1.380   .     A
C736   H745    1.084   .     S
C737   H775    1.083   .     S
C737   C99     1.401   1_556 S
C738   N769    1.422   .     S
Cu739  O749    1.960   .     S
Cu739  O753    1.966   .     S
Cu739  Cu740   2.681   .     S
Cu739  O755    1.941   .     S
Cu739  N747    2.015   .     S
Cu739  O751    1.953   .     S
Cu740  O754    1.960   .     S
Cu740  O750    1.966   .     S
Cu740  O752    1.941   .     S
Cu740  N748    2.014   .     S
Cu740  O756    1.953   .     S
N762   C764    1.445   .     S
N762   H763    1.032   .     S
C764   H766    1.110   .     S
C764   H765    1.111   .     S
C764   H767    1.107   .     S
N769   H770    1.032   .     S
N769   C771    1.449   .     S
C771   H774    1.111   .     S
C771   H772    1.108   .     S
C771   H773    1.110   .     S
N776   C778    1.447   .     S
N776   H777    1.031   .     S
C778   H781    1.111   .     S
C778   H779    1.110   .     S
C778   H780    1.111   .     S
C782   C798    1.453   .     S
C782   O821    1.292   .     A
C782   O820    1.293   .     A
C783   C784    1.428   .     A
C783   C146    1.438   1_556 S
C783   C170    1.439   1_556 S
C784   C791    1.414   .     A
C784   C788    1.409   .     A
C785   C789    1.406   .     A
C786   C787    1.389   .     A
C786   C146    1.426   1_556 S
C786   C166    1.404   1_556 S
C787   C788    1.380   .     A
C787   H814    1.084   .     S
C788   H817    1.081   .     S
C789   C806    1.397   .     A
C789   H839    1.072   .     S
C790   C805    1.389   .     A
C790   C806    1.394   .     A
C790   H828    1.084   .     S
C791   C793    1.468   .     S
C791   C807    1.394   .     A
C792   N847    1.423   .     S
C792   C798    1.412   .     A
C792   C1007   1.390   .     S
C793   O823    1.296   .     A
C793   O822    1.295   .     A
C794   H829    1.084   .     S
C794   C795    1.397   .     A
C794   C1218   1.390   1_545 S
C795   C803    1.444   .     S
C795   C796    1.396   .     A
C796   H830    1.083   .     S
C796   C1223   1.383   1_545 S
C797   H812    1.084   .     S
C797   C798    1.403   .     A
C797   C1009   1.383   .     S
C799   N819    1.366   .     A
C799   H831    1.080   .     S
C799   C658    1.416   1_655 S
C800   H832    1.081   .     S
C800   N818    1.367   .     A
C801   N833    1.419   .     S
C801   N818    1.378   .     A
C802   H813    1.082   .     S
C802   N819    1.362   .     A
C802   C659    1.419   1_655 S
C803   O824    1.291   .     A
C803   O825    1.290   .     A
C804   O826    1.292   .     A
C804   C806    1.458   .     S
C804   O827    1.296   .     A
C805   H815    1.084   .     S
C807   C808    1.380   .     A
C807   H816    1.084   .     S
C808   H846    1.083   .     S
C808   C170    1.401   1_556 S
C809   N840    1.422   .     S
Cu810  O820    1.960   .     S
Cu810  O824    1.966   .     S
Cu810  Cu811   2.681   .     S
Cu810  O826    1.941   .     S
Cu810  N818    2.015   .     S
Cu810  O822    1.953   .     S
Cu811  O825    1.960   .     S
Cu811  O821    1.966   .     S
Cu811  O823    1.941   .     S
Cu811  N819    2.014   .     S
Cu811  O827    1.953   .     S
N833   C835    1.445   .     S
N833   H834    1.032   .     S
C835   H837    1.110   .     S
C835   H836    1.111   .     S
C835   H838    1.107   .     S
N840   H841    1.032   .     S
N840   C842    1.449   .     S
C842   H845    1.111   .     S
C842   H843    1.108   .     S
C842   H844    1.110   .     S
N847   C849    1.447   .     S
N847   H848    1.031   .     S
C849   H852    1.111   .     S
C849   H850    1.110   .     S
C849   H851    1.111   .     S
C853   C869    1.453   .     S
C853   O892    1.292   .     A
C853   O891    1.293   .     A
C854   C855    1.428   .     A
C854   C217    1.438   1_556 S
C854   C241    1.439   1_556 S
C855   C862    1.414   .     A
C855   C859    1.409   .     A
C856   C860    1.406   .     A
C857   C858    1.389   .     A
C857   C217    1.426   1_556 S
C857   C237    1.404   1_556 S
C858   C859    1.380   .     A
C858   H885    1.084   .     S
C859   H888    1.081   .     S
C860   C877    1.397   .     A
C860   H910    1.072   .     S
C861   C876    1.389   .     A
C861   C877    1.394   .     A
C861   H899    1.084   .     S
C862   C864    1.468   .     S
C862   C878    1.394   .     A
C863   N918    1.423   .     S
C863   C869    1.412   .     A
C863   C1078   1.390   .     S
C864   O894    1.296   .     A
C864   O893    1.295   .     A
C865   H900    1.084   .     S
C865   C866    1.397   .     A
C866   C874    1.444   .     S
C866   C867    1.396   .     A
C867   H901    1.083   .     S
C868   H883    1.084   .     S
C868   C869    1.403   .     A
C868   C1080   1.383   .     S
C870   N890    1.366   .     A
C870   H902    1.080   .     S
C870   C942    1.416   .     S
C871   H903    1.081   .     S
C871   N889    1.367   .     A
C871   C1012   1.416   1_455 S
C872   N904    1.419   .     S
C872   N889    1.378   .     A
C872   C1015   1.419   1_455 S
C873   H884    1.082   .     S
C873   N890    1.362   .     A
C873   C943    1.419   .     S
C874   O895    1.291   .     A
C874   O896    1.290   .     A
C875   O897    1.292   .     A
C875   C877    1.458   .     S
C875   O898    1.296   .     A
C876   H886    1.084   .     S
C878   C879    1.380   .     A
C878   H887    1.084   .     S
C879   H917    1.083   .     S
C879   C241    1.401   1_556 S
C880   N911    1.422   .     S
Cu881  O891    1.960   .     S
Cu881  O895    1.966   .     S
Cu881  Cu882   2.681   .     S
Cu881  O897    1.941   .     S
Cu881  N889    2.015   .     S
Cu881  O893    1.953   .     S
Cu882  O896    1.960   .     S
Cu882  O892    1.966   .     S
Cu882  O894    1.941   .     S
Cu882  N890    2.014   .     S
Cu882  O898    1.953   .     S
N904   C906    1.445   .     S
N904   H905    1.032   .     S
C906   H908    1.110   .     S
C906   H907    1.111   .     S
C906   H909    1.107   .     S
N911   H912    1.032   .     S
N911   C913    1.449   .     S
C913   H916    1.111   .     S
C913   H914    1.108   .     S
C913   H915    1.110   .     S
N918   C920    1.447   .     S
N918   H919    1.031   .     S
C920   H923    1.111   .     S
C920   H921    1.110   .     S
C920   H922    1.111   .     S
C924   C940    1.453   .     S
C924   O963    1.292   .     A
C924   O962    1.293   .     A
C925   C926    1.428   .     A
C925   C288    1.438   1_556 S
C925   C312    1.439   1_556 S
C926   C933    1.414   .     A
C926   C930    1.409   .     A
C927   C931    1.406   .     A
C928   C929    1.389   .     A
C928   C288    1.426   1_556 S
C928   C308    1.404   1_556 S
C929   C930    1.380   .     A
C929   H956    1.084   .     S
C930   H959    1.081   .     S
C931   C948    1.397   .     A
C931   H981    1.072   .     S
C932   C947    1.389   .     A
C932   C948    1.394   .     A
C932   H970    1.084   .     S
C933   C935    1.468   .     S
C933   C949    1.394   .     A
C934   N989    1.423   .     S
C934   C940    1.412   .     A
C934   C1149   1.390   .     S
C935   O965    1.296   .     A
C935   O964    1.295   .     A
C936   H971    1.084   .     S
C936   C937    1.397   .     A
C937   C945    1.444   .     S
C937   C938    1.396   .     A
C938   H972    1.083   .     S
C939   H954    1.084   .     S
C939   C940    1.403   .     A
C939   C1151   1.383   .     S
C941   N961    1.366   .     A
C941   H973    1.080   .     S
C941   C1013   1.416   .     S
C942   H974    1.081   .     S
C942   N960    1.367   .     A
C943   N975    1.419   .     S
C943   N960    1.378   .     A
C944   H955    1.082   .     S
C944   N961    1.362   .     A
C944   C1014   1.419   .     S
C945   O966    1.291   .     A
C945   O967    1.290   .     A
C946   O968    1.292   .     A
C946   C948    1.458   .     S
C946   O969    1.296   .     A
C947   H957    1.084   .     S
C949   C950    1.380   .     A
C949   H958    1.084   .     S
C950   H988    1.083   .     S
C950   C312    1.401   1_556 S
C951   N982    1.422   .     S
Cu952  O962    1.960   .     S
Cu952  O966    1.966   .     S
Cu952  Cu953   2.681   .     S
Cu952  O968    1.941   .     S
Cu952  N960    2.015   .     S
Cu952  O964    1.953   .     S
Cu953  O967    1.960   .     S
Cu953  O963    1.966   .     S
Cu953  O965    1.941   .     S
Cu953  N961    2.014   .     S
Cu953  O969    1.953   .     S
N975   C977    1.445   .     S
N975   H976    1.032   .     S
C977   H979    1.110   .     S
C977   H978    1.111   .     S
C977   H980    1.107   .     S
N982   H983    1.032   .     S
N982   C984    1.449   .     S
C984   H987    1.111   .     S
C984   H985    1.108   .     S
C984   H986    1.110   .     S
N989   C991    1.447   .     S
N989   H990    1.031   .     S
C991   H994    1.111   .     S
C991   H992    1.110   .     S
C991   H993    1.111   .     S
C995   C1011   1.453   .     S
C995   O1034   1.292   .     A
C995   O1033   1.293   .     A
C996   C997    1.428   .     A
C996   C359    1.438   1_556 S
C996   C383    1.439   1_556 S
C997   C1004   1.414   .     A
C997   C1001   1.409   .     A
C998   C1002   1.406   .     A
C999   C1000   1.389   .     A
C999   C359    1.426   1_556 S
C999   C379    1.404   1_556 S
C1000  C1001   1.380   .     A
C1000  H1027   1.084   .     S
C1001  H1030   1.081   .     S
C1002  C1019   1.397   .     A
C1002  H1052   1.072   .     S
C1003  C1018   1.389   .     A
C1003  C1019   1.394   .     A
C1003  H1041   1.084   .     S
C1004  C1006   1.468   .     S
C1004  C1020   1.394   .     A
C1005  N1060   1.423   .     S
C1005  C1011   1.412   .     A
C1005  C1220   1.390   .     S
C1006  O1036   1.296   .     A
C1006  O1035   1.295   .     A
C1007  H1042   1.084   .     S
C1007  C1008   1.397   .     A
C1008  C1016   1.444   .     S
C1008  C1009   1.396   .     A
C1009  H1043   1.083   .     S
C1010  H1025   1.084   .     S
C1010  C1011   1.403   .     A
C1010  C1222   1.383   .     S
C1012  N1032   1.366   .     A
C1012  H1044   1.080   .     S
C1012  C871    1.416   1_655 S
C1013  H1045   1.081   .     S
C1013  N1031   1.367   .     A
C1014  N1046   1.419   .     S
C1014  N1031   1.378   .     A
C1015  H1026   1.082   .     S
C1015  N1032   1.362   .     A
C1015  C872    1.419   1_655 S
C1016  O1037   1.291   .     A
C1016  O1038   1.290   .     A
C1017  O1039   1.292   .     A
C1017  C1019   1.458   .     S
C1017  O1040   1.296   .     A
C1018  H1028   1.084   .     S
C1020  C1021   1.380   .     A
C1020  H1029   1.084   .     S
C1021  H1059   1.083   .     S
C1021  C383    1.401   1_556 S
C1022  N1053   1.422   .     S
Cu1023 O1033   1.960   .     S
Cu1023 O1037   1.966   .     S
Cu1023 Cu1024  2.681   .     S
Cu1023 O1039   1.941   .     S
Cu1023 N1031   2.015   .     S
Cu1023 O1035   1.953   .     S
Cu1024 O1038   1.960   .     S
Cu1024 O1034   1.966   .     S
Cu1024 O1036   1.941   .     S
Cu1024 N1032   2.014   .     S
Cu1024 O1040   1.953   .     S
N1046  C1048   1.445   .     S
N1046  H1047   1.032   .     S
C1048  H1050   1.110   .     S
C1048  H1049   1.111   .     S
C1048  H1051   1.107   .     S
N1053  H1054   1.032   .     S
N1053  C1055   1.449   .     S
C1055  H1058   1.111   .     S
C1055  H1056   1.108   .     S
C1055  H1057   1.110   .     S
N1060  C1062   1.447   .     S
N1060  H1061   1.031   .     S
C1062  H1065   1.111   .     S
C1062  H1063   1.110   .     S
C1062  H1064   1.111   .     S
C1066  C1082   1.453   .     S
C1066  O1105   1.292   .     A
C1066  O1104   1.293   .     A
C1067  C1068   1.428   .     A
C1067  C430    1.438   1_556 S
C1067  C454    1.439   1_556 S
C1068  C1075   1.414   .     A
C1068  C1072   1.409   .     A
C1069  C1073   1.406   .     A
C1070  C1071   1.389   .     A
C1070  C430    1.426   1_556 S
C1070  C450    1.404   1_556 S
C1071  C1072   1.380   .     A
C1071  H1098   1.084   .     S
C1072  H1101   1.081   .     S
C1073  C1090   1.397   .     A
C1073  H1123   1.072   .     S
C1074  C1089   1.389   .     A
C1074  C1090   1.394   .     A
C1074  H1112   1.084   .     S
C1075  C1077   1.468   .     S
C1075  C1091   1.394   .     A
C1076  N1131   1.423   .     S
C1076  C1082   1.412   .     A
C1076  C652    1.390   1_565 S
C1077  O1107   1.296   .     A
C1077  O1106   1.295   .     A
C1078  H1113   1.084   .     S
C1078  C1079   1.397   .     A
C1079  C1087   1.444   .     S
C1079  C1080   1.396   .     A
C1080  H1114   1.083   .     S
C1081  H1096   1.084   .     S
C1081  C1082   1.403   .     A
C1081  C654    1.383   1_565 S
C1083  N1103   1.366   .     A
C1083  H1115   1.080   .     S
C1083  C1155   1.416   .     S
C1084  H1116   1.081   .     S
C1084  N1102   1.367   .     A
C1084  C1225   1.416   1_455 S
C1085  N1117   1.419   .     S
C1085  N1102   1.378   .     A
C1085  C1228   1.419   1_455 S
C1086  H1097   1.082   .     S
C1086  N1103   1.362   .     A
C1086  C1156   1.419   .     S
C1087  O1108   1.291   .     A
C1087  O1109   1.290   .     A
C1088  O1110   1.292   .     A
C1088  C1090   1.458   .     S
C1088  O1111   1.296   .     A
C1089  H1099   1.084   .     S
C1091  C1092   1.380   .     A
C1091  H1100   1.084   .     S
C1092  H1130   1.083   .     S
C1092  C454    1.401   1_556 S
C1093  N1124   1.422   .     S
Cu1094 O1104   1.960   .     S
Cu1094 O1108   1.966   .     S
Cu1094 Cu1095  2.681   .     S
Cu1094 O1110   1.941   .     S
Cu1094 N1102   2.015   .     S
Cu1094 O1106   1.953   .     S
Cu1095 O1109   1.960   .     S
Cu1095 O1105   1.966   .     S
Cu1095 O1107   1.941   .     S
Cu1095 N1103   2.014   .     S
Cu1095 O1111   1.953   .     S
N1117  C1119   1.445   .     S
N1117  H1118   1.032   .     S
C1119  H1121   1.110   .     S
C1119  H1120   1.111   .     S
C1119  H1122   1.107   .     S
N1124  H1125   1.032   .     S
N1124  C1126   1.449   .     S
C1126  H1129   1.111   .     S
C1126  H1127   1.108   .     S
C1126  H1128   1.110   .     S
N1131  C1133   1.447   .     S
N1131  H1132   1.031   .     S
C1133  H1136   1.111   .     S
C1133  H1134   1.110   .     S
C1133  H1135   1.111   .     S
C1137  C1153   1.453   .     S
C1137  O1176   1.292   .     A
C1137  O1175   1.293   .     A
C1138  C1139   1.428   .     A
C1138  C501    1.438   1_556 S
C1138  C525    1.439   1_556 S
C1139  C1146   1.414   .     A
C1139  C1143   1.409   .     A
C1140  C1144   1.406   .     A
C1141  C1142   1.389   .     A
C1141  C501    1.426   1_556 S
C1141  C521    1.404   1_556 S
C1142  C1143   1.380   .     A
C1142  H1169   1.084   .     S
C1143  H1172   1.081   .     S
C1144  C1161   1.397   .     A
C1144  H1194   1.072   .     S
C1145  C1160   1.389   .     A
C1145  C1161   1.394   .     A
C1145  H1183   1.084   .     S
C1146  C1148   1.468   .     S
C1146  C1162   1.394   .     A
C1147  N1202   1.423   .     S
C1147  C1153   1.412   .     A
C1147  C723    1.390   1_565 S
C1148  O1178   1.296   .     A
C1148  O1177   1.295   .     A
C1149  H1184   1.084   .     S
C1149  C1150   1.397   .     A
C1150  C1158   1.444   .     S
C1150  C1151   1.396   .     A
C1151  H1185   1.083   .     S
C1152  H1167   1.084   .     S
C1152  C1153   1.403   .     A
C1152  C725    1.383   1_565 S
C1154  N1174   1.366   .     A
C1154  H1186   1.080   .     S
C1154  C1226   1.416   .     S
C1155  H1187   1.081   .     S
C1155  N1173   1.367   .     A
C1156  N1188   1.419   .     S
C1156  N1173   1.378   .     A
C1157  H1168   1.082   .     S
C1157  N1174   1.362   .     A
C1157  C1227   1.419   .     S
C1158  O1179   1.291   .     A
C1158  O1180   1.290   .     A
C1159  O1181   1.292   .     A
C1159  C1161   1.458   .     S
C1159  O1182   1.296   .     A
C1160  H1170   1.084   .     S
C1162  C1163   1.380   .     A
C1162  H1171   1.084   .     S
C1163  H1201   1.083   .     S
C1163  C525    1.401   1_556 S
C1164  N1195   1.422   .     S
Cu1165 O1175   1.960   .     S
Cu1165 O1179   1.966   .     S
Cu1165 Cu1166  2.681   .     S
Cu1165 O1181   1.941   .     S
Cu1165 N1173   2.015   .     S
Cu1165 O1177   1.953   .     S
Cu1166 O1180   1.960   .     S
Cu1166 O1176   1.966   .     S
Cu1166 O1178   1.941   .     S
Cu1166 N1174   2.014   .     S
Cu1166 O1182   1.953   .     S
N1188  C1190   1.445   .     S
N1188  H1189   1.032   .     S
C1190  H1192   1.110   .     S
C1190  H1191   1.111   .     S
C1190  H1193   1.107   .     S
N1195  H1196   1.032   .     S
N1195  C1197   1.449   .     S
C1197  H1200   1.111   .     S
C1197  H1198   1.108   .     S
C1197  H1199   1.110   .     S
N1202  C1204   1.447   .     S
N1202  H1203   1.031   .     S
C1204  H1207   1.111   .     S
C1204  H1205   1.110   .     S
C1204  H1206   1.111   .     S
C1208  C1224   1.453   .     S
C1208  O1247   1.292   .     A
C1208  O1246   1.293   .     A
C1209  C1210   1.428   .     A
C1209  C572    1.438   1_556 S
C1209  C596    1.439   1_556 S
C1210  C1217   1.414   .     A
C1210  C1214   1.409   .     A
C1211  C1215   1.406   .     A
C1212  C1213   1.389   .     A
C1212  C572    1.426   1_556 S
C1212  C592    1.404   1_556 S
C1213  C1214   1.380   .     A
C1213  H1240   1.084   .     S
C1214  H1243   1.081   .     S
C1215  C1232   1.397   .     A
C1215  H1265   1.072   .     S
C1216  C1231   1.389   .     A
C1216  C1232   1.394   .     A
C1216  H1254   1.084   .     S
C1217  C1219   1.468   .     S
C1217  C1233   1.394   .     A
C1218  N1273   1.423   .     S
C1218  C1224   1.412   .     A
C1218  C794    1.390   1_565 S
C1219  O1249   1.296   .     A
C1219  O1248   1.295   .     A
C1220  H1255   1.084   .     S
C1220  C1221   1.397   .     A
C1221  C1229   1.444   .     S
C1221  C1222   1.396   .     A
C1222  H1256   1.083   .     S
C1223  H1238   1.084   .     S
C1223  C1224   1.403   .     A
C1223  C796    1.383   1_565 S
C1225  N1245   1.366   .     A
C1225  H1257   1.080   .     S
C1225  C1084   1.416   1_655 S
C1226  H1258   1.081   .     S
C1226  N1244   1.367   .     A
C1227  N1259   1.419   .     S
C1227  N1244   1.378   .     A
C1228  H1239   1.082   .     S
C1228  N1245   1.362   .     A
C1228  C1085   1.419   1_655 S
C1229  O1250   1.291   .     A
C1229  O1251   1.290   .     A
C1230  O1252   1.292   .     A
C1230  C1232   1.458   .     S
C1230  O1253   1.296   .     A
C1231  H1241   1.084   .     S
C1233  C1234   1.380   .     A
C1233  H1242   1.084   .     S
C1234  H1272   1.083   .     S
C1234  C596    1.401   1_556 S
C1235  N1266   1.422   .     S
Cu1236 O1246   1.960   .     S
Cu1236 O1250   1.966   .     S
Cu1236 Cu1237  2.681   .     S
Cu1236 O1252   1.941   .     S
Cu1236 N1244   2.015   .     S
Cu1236 O1248   1.953   .     S
Cu1237 O1251   1.960   .     S
Cu1237 O1247   1.966   .     S
Cu1237 O1249   1.941   .     S
Cu1237 N1245   2.014   .     S
Cu1237 O1253   1.953   .     S
N1259  C1261   1.445   .     S
N1259  H1260   1.032   .     S
C1261  H1263   1.110   .     S
C1261  H1262   1.111   .     S
C1261  H1264   1.107   .     S
N1266  H1267   1.032   .     S
N1266  C1268   1.449   .     S
C1268  H1271   1.111   .     S
C1268  H1269   1.108   .     S
C1268  H1270   1.110   .     S
N1273  C1275   1.447   .     S
N1273  H1274   1.031   .     S
C1275  H1278   1.111   .     S
C1275  H1276   1.110   .     S
C1275  H1277   1.111   .     S
