data_str_m2_o1_o18_pcu_sym.117
_audit_creation_date              2020-01-03
_audit_creation_method            'Materials Studio'
_symmetry_space_group_name_H-M    'P1'
_symmetry_Int_Tables_number       1
_symmetry_cell_setting            triclinic
loop_
_symmetry_equiv_pos_as_xyz
  x,y,z
_cell_length_a                    28.5633
_cell_length_b                    32.5020
_cell_length_c                    30.8138
_cell_angle_alpha                 89.8770
_cell_angle_beta                  73.9092
_cell_angle_gamma                 90.0112
loop_
_atom_site_label
_atom_site_type_symbol
_atom_site_fract_x
_atom_site_fract_y
_atom_site_fract_z
_atom_site_U_iso_or_equiv
_atom_site_adp_type
_atom_site_occupancy
C1     C     0.33331   0.08736   0.25002   0.00000  Uiso   1.00
C2     C     0.00003   0.24598   0.24996   0.00000  Uiso   1.00
C3     C     0.19861   0.18343   0.05084   0.00000  Uiso   1.00
C4     C     0.14584   0.21367   0.45773   0.00000  Uiso   1.00
C5     C     0.24653   0.17490   0.02731   0.00000  Uiso   1.00
C6     C     0.09657   0.21846   0.48159   0.00000  Uiso   1.00
C7     C     0.29072   0.02127   0.25022   0.00000  Uiso   1.00
C8     C     0.04263   0.31206   0.24972   0.00000  Uiso   1.00
C9     C     0.29074   0.31203   0.25017   0.00000  Uiso   1.00
C10    C     0.04261   0.02129   0.24977   0.00000  Uiso   1.00
C11    C     0.00003   0.29059   0.24994   0.00000  Uiso   1.00
C12    C     0.33332   0.04274   0.25002   0.00000  Uiso   1.00
C13    C     0.18258   0.14257   0.27962   0.00000  Uiso   1.00
C14    C     0.15075   0.19079   0.22039   0.00000  Uiso   1.00
C15    C     0.13297   0.14259   0.27962   0.00000  Uiso   1.00
C16    C     0.20036   0.19074   0.22037   0.00000  Uiso   1.00
C17    C     0.30587   0.16678   0.33632   0.00000  Uiso   1.00
C18    C     0.02750   0.16789   0.16374   0.00000  Uiso   1.00
C19    C     0.29087   0.16895   0.38593   0.00000  Uiso   1.00
C20    C     0.04316   0.17619   0.11496   0.00000  Uiso   1.00
C21    C     0.30963   0.16468   0.45767   0.00000  Uiso   1.00
C22    C     0.02930   0.20800   0.04850   0.00000  Uiso   1.00
C23    C     0.32467   0.16300   0.41072   0.00000  Uiso   1.00
C24    C     0.01148   0.19426   0.09296   0.00000  Uiso   1.00
C25    C     0.24227   0.17783   0.40863   0.00000  Uiso   1.00
C26    C     0.09243   0.17167   0.09185   0.00000  Uiso   1.00
C27    C     0.22718   0.18337   0.45575   0.00000  Uiso   1.00
C28    C     0.11190   0.18889   0.04874   0.00000  Uiso   1.00
C29    C     0.26110   0.17415   0.48034   0.00000  Uiso   1.00
C30    C     0.07916   0.20495   0.02607   0.00000  Uiso   1.00
C31    C     0.17861   0.19494   0.47934   0.00000  Uiso   1.00
C32    C     0.16276   0.18884   0.02695   0.00000  Uiso   1.00
Cu33   Cu    0.04689   0.16667   0.25000   0.00000  Uiso   1.00
Cu34   Cu    0.28645   0.16666   0.25000   0.00000  Uiso   1.00
H35    H     0.27271   0.16927   0.04618   0.00000  Uiso   1.00
H36    H     0.07155   0.23248   0.46512   0.00000  Uiso   1.00
H37    H     0.11538   0.15472   0.10816   0.00000  Uiso   1.00
H38    H     0.21629   0.17865   0.38910   0.00000  Uiso   1.00
H39    H     0.30666   0.19869   0.11041   0.00000  Uiso   1.00
H40    H     0.02909   0.15604   0.39391   0.00000  Uiso   1.00
H41    H     0.00266   0.15851   0.47627   0.00000  Uiso   1.00
H42    H     0.00432   0.22182   0.03191   0.00000  Uiso   1.00
H43    H     0.25743   0.29601   0.25033   0.00000  Uiso   1.00
H44    H     0.07592   0.03731   0.24961   0.00000  Uiso   1.00
H45    H     0.10717   0.12327   0.30332   0.00000  Uiso   1.00
H46    H     0.22616   0.21005   0.19666   0.00000  Uiso   1.00
N47    N     0.11736   0.16668   0.24999   0.00000  Uiso   1.00
N48    N     0.21597   0.16666   0.25001   0.00000  Uiso   1.00
O49    O     0.03958   0.10655   0.25000   0.00000  Uiso   1.00
O50    O     0.29375   0.22678   0.25000   0.00000  Uiso   1.00
O51    O     0.29372   0.10654   0.25000   0.00000  Uiso   1.00
O52    O     0.03961   0.22679   0.24999   0.00000  Uiso   1.00
O53    O     0.01852   0.16668   0.31491   0.00000  Uiso   1.00
O54    O     0.31481   0.16666   0.18509   0.00000  Uiso   1.00
O55    O     0.27267   0.16667   0.31492   0.00000  Uiso   1.00
O56    O     0.06067   0.16667   0.18508   0.00000  Uiso   1.00
O57    O     0.18972   0.19035   0.09653   0.00000  Uiso   1.00
H58    H     0.16492   0.21241   0.10506   0.00000  Uiso   1.00
O59    O     0.16310   0.23086   0.41520   0.00000  Uiso   1.00
H60    H     0.13564   0.24272   0.40547   0.00000  Uiso   1.00
H61    H     0.25739   0.03726   0.25043   0.00000  Uiso   1.00
H62    H     0.07596   0.29606   0.24951   0.00000  Uiso   1.00
H63    H     0.19414   0.12319   0.30330   0.00000  Uiso   1.00
H64    H     0.13916   0.21020   0.19675   0.00000  Uiso   1.00
C65    C     0.66665   0.08736   0.25002   0.00000  Uiso   1.00
C66    C     0.33336   0.24598   0.24996   0.00000  Uiso   1.00
C67    C     0.53194   0.18343   0.05084   0.00000  Uiso   1.00
C68    C     0.47917   0.21367   0.45773   0.00000  Uiso   1.00
C69    C     0.57987   0.17490   0.02731   0.00000  Uiso   1.00
C70    C     0.42990   0.21846   0.48159   0.00000  Uiso   1.00
C71    C     0.62405   0.02127   0.25022   0.00000  Uiso   1.00
C72    C     0.37597   0.31206   0.24972   0.00000  Uiso   1.00
C73    C     0.62408   0.31203   0.25017   0.00000  Uiso   1.00
C74    C     0.37594   0.02129   0.24977   0.00000  Uiso   1.00
C75    C     0.33336   0.29059   0.24994   0.00000  Uiso   1.00
C76    C     0.66665   0.04274   0.25002   0.00000  Uiso   1.00
C77    C     0.51591   0.14257   0.27962   0.00000  Uiso   1.00
C78    C     0.48408   0.19079   0.22039   0.00000  Uiso   1.00
C79    C     0.46631   0.14259   0.27962   0.00000  Uiso   1.00
C80    C     0.53369   0.19074   0.22037   0.00000  Uiso   1.00
C81    C     0.63920   0.16678   0.33632   0.00000  Uiso   1.00
C82    C     0.36083   0.16789   0.16374   0.00000  Uiso   1.00
C83    C     0.62420   0.16895   0.38593   0.00000  Uiso   1.00
C84    C     0.37649   0.17619   0.11496   0.00000  Uiso   1.00
C85    C     0.64297   0.16468   0.45767   0.00000  Uiso   1.00
C86    C     0.36264   0.20800   0.04850   0.00000  Uiso   1.00
C87    C     0.65800   0.16300   0.41072   0.00000  Uiso   1.00
C88    C     0.34482   0.19426   0.09296   0.00000  Uiso   1.00
C89    C     0.57560   0.17783   0.40863   0.00000  Uiso   1.00
C90    C     0.42577   0.17167   0.09185   0.00000  Uiso   1.00
C91    C     0.56052   0.18337   0.45575   0.00000  Uiso   1.00
C92    C     0.44523   0.18889   0.04874   0.00000  Uiso   1.00
C93    C     0.59443   0.17415   0.48034   0.00000  Uiso   1.00
C94    C     0.41249   0.20495   0.02607   0.00000  Uiso   1.00
C95    C     0.51194   0.19494   0.47934   0.00000  Uiso   1.00
C96    C     0.49609   0.18884   0.02695   0.00000  Uiso   1.00
Cu97   Cu    0.38022   0.16667   0.25000   0.00000  Uiso   1.00
Cu98   Cu    0.61978   0.16666   0.25000   0.00000  Uiso   1.00
H99    H     0.60605   0.16927   0.04618   0.00000  Uiso   1.00
H100   H     0.40488   0.23248   0.46512   0.00000  Uiso   1.00
H101   H     0.44871   0.15472   0.10816   0.00000  Uiso   1.00
H102   H     0.54962   0.17865   0.38910   0.00000  Uiso   1.00
H103   H     0.63999   0.19869   0.11041   0.00000  Uiso   1.00
H104   H     0.36242   0.15604   0.39391   0.00000  Uiso   1.00
H105   H     0.33599   0.15851   0.47627   0.00000  Uiso   1.00
H106   H     0.33765   0.22182   0.03191   0.00000  Uiso   1.00
H107   H     0.59077   0.29601   0.25033   0.00000  Uiso   1.00
H108   H     0.40925   0.03731   0.24961   0.00000  Uiso   1.00
H109   H     0.44050   0.12327   0.30332   0.00000  Uiso   1.00
H110   H     0.55949   0.21005   0.19666   0.00000  Uiso   1.00
N111   N     0.45069   0.16668   0.24999   0.00000  Uiso   1.00
N112   N     0.54931   0.16666   0.25001   0.00000  Uiso   1.00
O113   O     0.37291   0.10655   0.25000   0.00000  Uiso   1.00
O114   O     0.62709   0.22678   0.25000   0.00000  Uiso   1.00
O115   O     0.62706   0.10654   0.25000   0.00000  Uiso   1.00
O116   O     0.37294   0.22679   0.24999   0.00000  Uiso   1.00
O117   O     0.35186   0.16668   0.31491   0.00000  Uiso   1.00
O118   O     0.64814   0.16666   0.18509   0.00000  Uiso   1.00
O119   O     0.60600   0.16667   0.31492   0.00000  Uiso   1.00
O120   O     0.39400   0.16667   0.18508   0.00000  Uiso   1.00
O121   O     0.52306   0.19035   0.09653   0.00000  Uiso   1.00
H122   H     0.49825   0.21241   0.10506   0.00000  Uiso   1.00
O123   O     0.49643   0.23086   0.41520   0.00000  Uiso   1.00
H124   H     0.46897   0.24272   0.40547   0.00000  Uiso   1.00
H125   H     0.59072   0.03726   0.25043   0.00000  Uiso   1.00
H126   H     0.40929   0.29606   0.24951   0.00000  Uiso   1.00
H127   H     0.52747   0.12319   0.30330   0.00000  Uiso   1.00
H128   H     0.47250   0.21020   0.19675   0.00000  Uiso   1.00
C129   C     0.99998   0.08736   0.25002   0.00000  Uiso   1.00
C130   C     0.66669   0.24598   0.24996   0.00000  Uiso   1.00
C131   C     0.86528   0.18343   0.05084   0.00000  Uiso   1.00
C132   C     0.81250   0.21367   0.45773   0.00000  Uiso   1.00
C133   C     0.91320   0.17490   0.02731   0.00000  Uiso   1.00
C134   C     0.76323   0.21846   0.48159   0.00000  Uiso   1.00
C135   C     0.95738   0.02127   0.25022   0.00000  Uiso   1.00
C136   C     0.70930   0.31206   0.24972   0.00000  Uiso   1.00
C137   C     0.95741   0.31203   0.25017   0.00000  Uiso   1.00
C138   C     0.70927   0.02129   0.24977   0.00000  Uiso   1.00
C139   C     0.66669   0.29059   0.24994   0.00000  Uiso   1.00
C140   C     0.99999   0.04274   0.25002   0.00000  Uiso   1.00
C141   C     0.84924   0.14257   0.27962   0.00000  Uiso   1.00
C142   C     0.81742   0.19079   0.22039   0.00000  Uiso   1.00
C143   C     0.79964   0.14259   0.27962   0.00000  Uiso   1.00
C144   C     0.86703   0.19074   0.22037   0.00000  Uiso   1.00
C145   C     0.97253   0.16678   0.33632   0.00000  Uiso   1.00
C146   C     0.69417   0.16789   0.16374   0.00000  Uiso   1.00
C147   C     0.95753   0.16895   0.38593   0.00000  Uiso   1.00
C148   C     0.70982   0.17619   0.11496   0.00000  Uiso   1.00
C149   C     0.97630   0.16468   0.45767   0.00000  Uiso   1.00
C150   C     0.69597   0.20800   0.04850   0.00000  Uiso   1.00
C151   C     0.99133   0.16300   0.41072   0.00000  Uiso   1.00
C152   C     0.67815   0.19426   0.09296   0.00000  Uiso   1.00
C153   C     0.90894   0.17783   0.40863   0.00000  Uiso   1.00
C154   C     0.75910   0.17167   0.09185   0.00000  Uiso   1.00
C155   C     0.89385   0.18337   0.45575   0.00000  Uiso   1.00
C156   C     0.77856   0.18889   0.04874   0.00000  Uiso   1.00
C157   C     0.92777   0.17415   0.48034   0.00000  Uiso   1.00
C158   C     0.74583   0.20495   0.02607   0.00000  Uiso   1.00
C159   C     0.84528   0.19494   0.47934   0.00000  Uiso   1.00
C160   C     0.82942   0.18884   0.02695   0.00000  Uiso   1.00
Cu161  Cu    0.71355   0.16667   0.25000   0.00000  Uiso   1.00
Cu162  Cu    0.95311   0.16666   0.25000   0.00000  Uiso   1.00
H163   H     0.93938   0.16927   0.04618   0.00000  Uiso   1.00
H164   H     0.73821   0.23248   0.46512   0.00000  Uiso   1.00
H165   H     0.78205   0.15472   0.10816   0.00000  Uiso   1.00
H166   H     0.88295   0.17865   0.38910   0.00000  Uiso   1.00
H167   H     0.97333   0.19869   0.11041   0.00000  Uiso   1.00
H168   H     0.69575   0.15604   0.39391   0.00000  Uiso   1.00
H169   H     0.66932   0.15851   0.47627   0.00000  Uiso   1.00
H170   H     0.67098   0.22182   0.03191   0.00000  Uiso   1.00
H171   H     0.92410   0.29601   0.25033   0.00000  Uiso   1.00
H172   H     0.74258   0.03731   0.24961   0.00000  Uiso   1.00
H173   H     0.77384   0.12327   0.30332   0.00000  Uiso   1.00
H174   H     0.89283   0.21005   0.19666   0.00000  Uiso   1.00
N175   N     0.78403   0.16668   0.24999   0.00000  Uiso   1.00
N176   N     0.88264   0.16666   0.25001   0.00000  Uiso   1.00
O177   O     0.70625   0.10655   0.25000   0.00000  Uiso   1.00
O178   O     0.96042   0.22678   0.25000   0.00000  Uiso   1.00
O179   O     0.96039   0.10654   0.25000   0.00000  Uiso   1.00
O180   O     0.70628   0.22679   0.24999   0.00000  Uiso   1.00
O181   O     0.68519   0.16668   0.31491   0.00000  Uiso   1.00
O182   O     0.98148   0.16666   0.18509   0.00000  Uiso   1.00
O183   O     0.93933   0.16667   0.31492   0.00000  Uiso   1.00
O184   O     0.72733   0.16667   0.18508   0.00000  Uiso   1.00
O185   O     0.85639   0.19035   0.09653   0.00000  Uiso   1.00
H186   H     0.83158   0.21241   0.10506   0.00000  Uiso   1.00
O187   O     0.82976   0.23086   0.41520   0.00000  Uiso   1.00
H188   H     0.80231   0.24272   0.40547   0.00000  Uiso   1.00
H189   H     0.92406   0.03726   0.25043   0.00000  Uiso   1.00
H190   H     0.74263   0.29606   0.24951   0.00000  Uiso   1.00
H191   H     0.86081   0.12319   0.30330   0.00000  Uiso   1.00
H192   H     0.80583   0.21020   0.19675   0.00000  Uiso   1.00
C193   C     0.33331   0.42069   0.25002   0.00000  Uiso   1.00
C194   C     0.00003   0.57931   0.24996   0.00000  Uiso   1.00
C195   C     0.19861   0.51676   0.05084   0.00000  Uiso   1.00
C196   C     0.14584   0.54700   0.45773   0.00000  Uiso   1.00
C197   C     0.24653   0.50823   0.02731   0.00000  Uiso   1.00
C198   C     0.09657   0.55180   0.48159   0.00000  Uiso   1.00
C199   C     0.29072   0.35460   0.25022   0.00000  Uiso   1.00
C200   C     0.04263   0.64539   0.24972   0.00000  Uiso   1.00
C201   C     0.29074   0.64537   0.25017   0.00000  Uiso   1.00
C202   C     0.04261   0.35463   0.24977   0.00000  Uiso   1.00
C203   C     0.00003   0.62392   0.24994   0.00000  Uiso   1.00
C204   C     0.33332   0.37607   0.25002   0.00000  Uiso   1.00
C205   C     0.18258   0.47590   0.27962   0.00000  Uiso   1.00
C206   C     0.15075   0.52412   0.22039   0.00000  Uiso   1.00
C207   C     0.13297   0.47592   0.27962   0.00000  Uiso   1.00
C208   C     0.20036   0.52407   0.22037   0.00000  Uiso   1.00
C209   C     0.30587   0.50011   0.33632   0.00000  Uiso   1.00
C210   C     0.02750   0.50123   0.16374   0.00000  Uiso   1.00
C211   C     0.29087   0.50228   0.38593   0.00000  Uiso   1.00
C212   C     0.04316   0.50953   0.11496   0.00000  Uiso   1.00
C213   C     0.30963   0.49802   0.45767   0.00000  Uiso   1.00
C214   C     0.02930   0.54133   0.04850   0.00000  Uiso   1.00
C215   C     0.32467   0.49634   0.41072   0.00000  Uiso   1.00
C216   C     0.01148   0.52759   0.09296   0.00000  Uiso   1.00
C217   C     0.24227   0.51117   0.40863   0.00000  Uiso   1.00
C218   C     0.09243   0.50501   0.09185   0.00000  Uiso   1.00
C219   C     0.22718   0.51671   0.45575   0.00000  Uiso   1.00
C220   C     0.11190   0.52222   0.04874   0.00000  Uiso   1.00
C221   C     0.26110   0.50748   0.48034   0.00000  Uiso   1.00
C222   C     0.07916   0.53829   0.02607   0.00000  Uiso   1.00
C223   C     0.17861   0.52828   0.47934   0.00000  Uiso   1.00
C224   C     0.16276   0.52217   0.02695   0.00000  Uiso   1.00
Cu225  Cu    0.04689   0.50001   0.25000   0.00000  Uiso   1.00
Cu226  Cu    0.28645   0.49999   0.25000   0.00000  Uiso   1.00
H227   H     0.27271   0.50261   0.04618   0.00000  Uiso   1.00
H228   H     0.07155   0.56581   0.46512   0.00000  Uiso   1.00
H229   H     0.11538   0.48805   0.10816   0.00000  Uiso   1.00
H230   H     0.21629   0.51199   0.38910   0.00000  Uiso   1.00
H231   H     0.30666   0.53202   0.11041   0.00000  Uiso   1.00
H232   H     0.02909   0.48937   0.39391   0.00000  Uiso   1.00
H233   H     0.00266   0.49185   0.47627   0.00000  Uiso   1.00
H234   H     0.00432   0.55515   0.03191   0.00000  Uiso   1.00
H235   H     0.25743   0.62935   0.25033   0.00000  Uiso   1.00
H236   H     0.07592   0.37064   0.24961   0.00000  Uiso   1.00
H237   H     0.10717   0.45660   0.30332   0.00000  Uiso   1.00
H238   H     0.22616   0.54339   0.19666   0.00000  Uiso   1.00
N239   N     0.11736   0.50001   0.24999   0.00000  Uiso   1.00
N240   N     0.21597   0.49999   0.25001   0.00000  Uiso   1.00
O241   O     0.03958   0.43989   0.25000   0.00000  Uiso   1.00
O242   O     0.29375   0.56011   0.25000   0.00000  Uiso   1.00
O243   O     0.29372   0.43988   0.25000   0.00000  Uiso   1.00
O244   O     0.03961   0.56012   0.24999   0.00000  Uiso   1.00
O245   O     0.01852   0.50001   0.31491   0.00000  Uiso   1.00
O246   O     0.31481   0.49999   0.18509   0.00000  Uiso   1.00
O247   O     0.27267   0.50000   0.31492   0.00000  Uiso   1.00
O248   O     0.06067   0.50000   0.18508   0.00000  Uiso   1.00
O249   O     0.18972   0.52369   0.09653   0.00000  Uiso   1.00
H250   H     0.16492   0.54574   0.10506   0.00000  Uiso   1.00
O251   O     0.16310   0.56420   0.41520   0.00000  Uiso   1.00
H252   H     0.13564   0.57606   0.40547   0.00000  Uiso   1.00
H253   H     0.25739   0.37060   0.25043   0.00000  Uiso   1.00
H254   H     0.07596   0.62939   0.24951   0.00000  Uiso   1.00
H255   H     0.19414   0.45652   0.30330   0.00000  Uiso   1.00
H256   H     0.13916   0.54353   0.19675   0.00000  Uiso   1.00
C257   C     0.66665   0.42069   0.25002   0.00000  Uiso   1.00
C258   C     0.33336   0.57931   0.24996   0.00000  Uiso   1.00
C259   C     0.53194   0.51676   0.05084   0.00000  Uiso   1.00
C260   C     0.47917   0.54700   0.45773   0.00000  Uiso   1.00
C261   C     0.57987   0.50823   0.02731   0.00000  Uiso   1.00
C262   C     0.42990   0.55180   0.48159   0.00000  Uiso   1.00
C263   C     0.62405   0.35460   0.25022   0.00000  Uiso   1.00
C264   C     0.37597   0.64539   0.24972   0.00000  Uiso   1.00
C265   C     0.62408   0.64537   0.25017   0.00000  Uiso   1.00
C266   C     0.37594   0.35463   0.24977   0.00000  Uiso   1.00
C267   C     0.33336   0.62392   0.24994   0.00000  Uiso   1.00
C268   C     0.66665   0.37607   0.25002   0.00000  Uiso   1.00
C269   C     0.51591   0.47590   0.27962   0.00000  Uiso   1.00
C270   C     0.48408   0.52412   0.22039   0.00000  Uiso   1.00
C271   C     0.46631   0.47592   0.27962   0.00000  Uiso   1.00
C272   C     0.53369   0.52407   0.22037   0.00000  Uiso   1.00
C273   C     0.63920   0.50011   0.33632   0.00000  Uiso   1.00
C274   C     0.36083   0.50123   0.16374   0.00000  Uiso   1.00
C275   C     0.62420   0.50228   0.38593   0.00000  Uiso   1.00
C276   C     0.37649   0.50953   0.11496   0.00000  Uiso   1.00
C277   C     0.64297   0.49802   0.45767   0.00000  Uiso   1.00
C278   C     0.36264   0.54133   0.04850   0.00000  Uiso   1.00
C279   C     0.65800   0.49634   0.41072   0.00000  Uiso   1.00
C280   C     0.34482   0.52759   0.09296   0.00000  Uiso   1.00
C281   C     0.57560   0.51117   0.40863   0.00000  Uiso   1.00
C282   C     0.42577   0.50501   0.09185   0.00000  Uiso   1.00
C283   C     0.56052   0.51671   0.45575   0.00000  Uiso   1.00
C284   C     0.44523   0.52222   0.04874   0.00000  Uiso   1.00
C285   C     0.59443   0.50748   0.48034   0.00000  Uiso   1.00
C286   C     0.41249   0.53829   0.02607   0.00000  Uiso   1.00
C287   C     0.51194   0.52828   0.47934   0.00000  Uiso   1.00
C288   C     0.49609   0.52217   0.02695   0.00000  Uiso   1.00
Cu289  Cu    0.38022   0.50001   0.25000   0.00000  Uiso   1.00
Cu290  Cu    0.61978   0.49999   0.25000   0.00000  Uiso   1.00
H291   H     0.60605   0.50261   0.04618   0.00000  Uiso   1.00
H292   H     0.40488   0.56581   0.46512   0.00000  Uiso   1.00
H293   H     0.44871   0.48805   0.10816   0.00000  Uiso   1.00
H294   H     0.54962   0.51199   0.38910   0.00000  Uiso   1.00
H295   H     0.63999   0.53202   0.11041   0.00000  Uiso   1.00
H296   H     0.36242   0.48937   0.39391   0.00000  Uiso   1.00
H297   H     0.33599   0.49185   0.47627   0.00000  Uiso   1.00
H298   H     0.33765   0.55515   0.03191   0.00000  Uiso   1.00
H299   H     0.59077   0.62935   0.25033   0.00000  Uiso   1.00
H300   H     0.40925   0.37064   0.24961   0.00000  Uiso   1.00
H301   H     0.44050   0.45660   0.30332   0.00000  Uiso   1.00
H302   H     0.55949   0.54339   0.19666   0.00000  Uiso   1.00
N303   N     0.45069   0.50001   0.24999   0.00000  Uiso   1.00
N304   N     0.54931   0.49999   0.25001   0.00000  Uiso   1.00
O305   O     0.37291   0.43989   0.25000   0.00000  Uiso   1.00
O306   O     0.62709   0.56011   0.25000   0.00000  Uiso   1.00
O307   O     0.62706   0.43988   0.25000   0.00000  Uiso   1.00
O308   O     0.37294   0.56012   0.24999   0.00000  Uiso   1.00
O309   O     0.35186   0.50001   0.31491   0.00000  Uiso   1.00
O310   O     0.64814   0.49999   0.18509   0.00000  Uiso   1.00
O311   O     0.60600   0.50000   0.31492   0.00000  Uiso   1.00
O312   O     0.39400   0.50000   0.18508   0.00000  Uiso   1.00
O313   O     0.52306   0.52369   0.09653   0.00000  Uiso   1.00
H314   H     0.49825   0.54574   0.10506   0.00000  Uiso   1.00
O315   O     0.49643   0.56420   0.41520   0.00000  Uiso   1.00
H316   H     0.46897   0.57606   0.40547   0.00000  Uiso   1.00
H317   H     0.59072   0.37060   0.25043   0.00000  Uiso   1.00
H318   H     0.40929   0.62939   0.24951   0.00000  Uiso   1.00
H319   H     0.52747   0.45652   0.30330   0.00000  Uiso   1.00
H320   H     0.47250   0.54353   0.19675   0.00000  Uiso   1.00
C321   C     0.99998   0.42069   0.25002   0.00000  Uiso   1.00
C322   C     0.66669   0.57931   0.24996   0.00000  Uiso   1.00
C323   C     0.86528   0.51676   0.05084   0.00000  Uiso   1.00
C324   C     0.81250   0.54700   0.45773   0.00000  Uiso   1.00
C325   C     0.91320   0.50823   0.02731   0.00000  Uiso   1.00
C326   C     0.76323   0.55180   0.48159   0.00000  Uiso   1.00
C327   C     0.95738   0.35460   0.25022   0.00000  Uiso   1.00
C328   C     0.70930   0.64539   0.24972   0.00000  Uiso   1.00
C329   C     0.95741   0.64537   0.25017   0.00000  Uiso   1.00
C330   C     0.70927   0.35463   0.24977   0.00000  Uiso   1.00
C331   C     0.66669   0.62392   0.24994   0.00000  Uiso   1.00
C332   C     0.99999   0.37607   0.25002   0.00000  Uiso   1.00
C333   C     0.84924   0.47590   0.27962   0.00000  Uiso   1.00
C334   C     0.81742   0.52412   0.22039   0.00000  Uiso   1.00
C335   C     0.79964   0.47592   0.27962   0.00000  Uiso   1.00
C336   C     0.86703   0.52407   0.22037   0.00000  Uiso   1.00
C337   C     0.97253   0.50011   0.33632   0.00000  Uiso   1.00
C338   C     0.69417   0.50123   0.16374   0.00000  Uiso   1.00
C339   C     0.95753   0.50228   0.38593   0.00000  Uiso   1.00
C340   C     0.70982   0.50953   0.11496   0.00000  Uiso   1.00
C341   C     0.97630   0.49802   0.45767   0.00000  Uiso   1.00
C342   C     0.69597   0.54133   0.04850   0.00000  Uiso   1.00
C343   C     0.99133   0.49634   0.41072   0.00000  Uiso   1.00
C344   C     0.67815   0.52759   0.09296   0.00000  Uiso   1.00
C345   C     0.90894   0.51117   0.40863   0.00000  Uiso   1.00
C346   C     0.75910   0.50501   0.09185   0.00000  Uiso   1.00
C347   C     0.89385   0.51671   0.45575   0.00000  Uiso   1.00
C348   C     0.77856   0.52222   0.04874   0.00000  Uiso   1.00
C349   C     0.92777   0.50748   0.48034   0.00000  Uiso   1.00
C350   C     0.74583   0.53829   0.02607   0.00000  Uiso   1.00
C351   C     0.84528   0.52828   0.47934   0.00000  Uiso   1.00
C352   C     0.82942   0.52217   0.02695   0.00000  Uiso   1.00
Cu353  Cu    0.71355   0.50001   0.25000   0.00000  Uiso   1.00
Cu354  Cu    0.95311   0.49999   0.25000   0.00000  Uiso   1.00
H355   H     0.93938   0.50261   0.04618   0.00000  Uiso   1.00
H356   H     0.73821   0.56581   0.46512   0.00000  Uiso   1.00
H357   H     0.78205   0.48805   0.10816   0.00000  Uiso   1.00
H358   H     0.88295   0.51199   0.38910   0.00000  Uiso   1.00
H359   H     0.97333   0.53202   0.11041   0.00000  Uiso   1.00
H360   H     0.69575   0.48937   0.39391   0.00000  Uiso   1.00
H361   H     0.66932   0.49185   0.47627   0.00000  Uiso   1.00
H362   H     0.67098   0.55515   0.03191   0.00000  Uiso   1.00
H363   H     0.92410   0.62935   0.25033   0.00000  Uiso   1.00
H364   H     0.74258   0.37064   0.24961   0.00000  Uiso   1.00
H365   H     0.77384   0.45660   0.30332   0.00000  Uiso   1.00
H366   H     0.89283   0.54339   0.19666   0.00000  Uiso   1.00
N367   N     0.78403   0.50001   0.24999   0.00000  Uiso   1.00
N368   N     0.88264   0.49999   0.25001   0.00000  Uiso   1.00
O369   O     0.70625   0.43989   0.25000   0.00000  Uiso   1.00
O370   O     0.96042   0.56011   0.25000   0.00000  Uiso   1.00
O371   O     0.96039   0.43988   0.25000   0.00000  Uiso   1.00
O372   O     0.70628   0.56012   0.24999   0.00000  Uiso   1.00
O373   O     0.68519   0.50001   0.31491   0.00000  Uiso   1.00
O374   O     0.98148   0.49999   0.18509   0.00000  Uiso   1.00
O375   O     0.93933   0.50000   0.31492   0.00000  Uiso   1.00
O376   O     0.72733   0.50000   0.18508   0.00000  Uiso   1.00
O377   O     0.85639   0.52369   0.09653   0.00000  Uiso   1.00
H378   H     0.83158   0.54574   0.10506   0.00000  Uiso   1.00
O379   O     0.82976   0.56420   0.41520   0.00000  Uiso   1.00
H380   H     0.80231   0.57606   0.40547   0.00000  Uiso   1.00
H381   H     0.92406   0.37060   0.25043   0.00000  Uiso   1.00
H382   H     0.74263   0.62939   0.24951   0.00000  Uiso   1.00
H383   H     0.86081   0.45652   0.30330   0.00000  Uiso   1.00
H384   H     0.80583   0.54353   0.19675   0.00000  Uiso   1.00
C385   C     0.33331   0.75402   0.25002   0.00000  Uiso   1.00
C386   C     0.00003   0.91264   0.24996   0.00000  Uiso   1.00
C387   C     0.19861   0.85009   0.05084   0.00000  Uiso   1.00
C388   C     0.14584   0.88034   0.45773   0.00000  Uiso   1.00
C389   C     0.24653   0.84157   0.02731   0.00000  Uiso   1.00
C390   C     0.09657   0.88513   0.48159   0.00000  Uiso   1.00
C391   C     0.29072   0.68793   0.25022   0.00000  Uiso   1.00
C392   C     0.04263   0.97873   0.24972   0.00000  Uiso   1.00
C393   C     0.29074   0.97870   0.25017   0.00000  Uiso   1.00
C394   C     0.04261   0.68796   0.24977   0.00000  Uiso   1.00
C395   C     0.00003   0.95726   0.24994   0.00000  Uiso   1.00
C396   C     0.33332   0.70940   0.25002   0.00000  Uiso   1.00
C397   C     0.18258   0.80923   0.27962   0.00000  Uiso   1.00
C398   C     0.15075   0.85745   0.22039   0.00000  Uiso   1.00
C399   C     0.13297   0.80926   0.27962   0.00000  Uiso   1.00
C400   C     0.20036   0.85741   0.22037   0.00000  Uiso   1.00
C401   C     0.30587   0.83345   0.33632   0.00000  Uiso   1.00
C402   C     0.02750   0.83456   0.16374   0.00000  Uiso   1.00
C403   C     0.29087   0.83562   0.38593   0.00000  Uiso   1.00
C404   C     0.04316   0.84286   0.11496   0.00000  Uiso   1.00
C405   C     0.30963   0.83135   0.45767   0.00000  Uiso   1.00
C406   C     0.02930   0.87467   0.04850   0.00000  Uiso   1.00
C407   C     0.32467   0.82967   0.41072   0.00000  Uiso   1.00
C408   C     0.01148   0.86093   0.09296   0.00000  Uiso   1.00
C409   C     0.24227   0.84450   0.40863   0.00000  Uiso   1.00
C410   C     0.09243   0.83834   0.09185   0.00000  Uiso   1.00
C411   C     0.22718   0.85004   0.45575   0.00000  Uiso   1.00
C412   C     0.11190   0.85555   0.04874   0.00000  Uiso   1.00
C413   C     0.26110   0.84081   0.48034   0.00000  Uiso   1.00
C414   C     0.07916   0.87162   0.02607   0.00000  Uiso   1.00
C415   C     0.17861   0.86161   0.47934   0.00000  Uiso   1.00
C416   C     0.16276   0.85550   0.02695   0.00000  Uiso   1.00
Cu417  Cu    0.04689   0.83334   0.25000   0.00000  Uiso   1.00
Cu418  Cu    0.28645   0.83333   0.25000   0.00000  Uiso   1.00
H419   H     0.27271   0.83594   0.04618   0.00000  Uiso   1.00
H420   H     0.07155   0.89915   0.46512   0.00000  Uiso   1.00
H421   H     0.11538   0.82138   0.10816   0.00000  Uiso   1.00
H422   H     0.21629   0.84532   0.38910   0.00000  Uiso   1.00
H423   H     0.30666   0.86536   0.11041   0.00000  Uiso   1.00
H424   H     0.02909   0.82270   0.39391   0.00000  Uiso   1.00
H425   H     0.00266   0.82518   0.47627   0.00000  Uiso   1.00
H426   H     0.00432   0.88848   0.03191   0.00000  Uiso   1.00
H427   H     0.25743   0.96268   0.25033   0.00000  Uiso   1.00
H428   H     0.07592   0.70398   0.24961   0.00000  Uiso   1.00
H429   H     0.10717   0.78994   0.30332   0.00000  Uiso   1.00
H430   H     0.22616   0.87672   0.19666   0.00000  Uiso   1.00
N431   N     0.11736   0.83334   0.24999   0.00000  Uiso   1.00
N432   N     0.21597   0.83332   0.25001   0.00000  Uiso   1.00
O433   O     0.03958   0.77322   0.25000   0.00000  Uiso   1.00
O434   O     0.29375   0.89345   0.25000   0.00000  Uiso   1.00
O435   O     0.29372   0.77321   0.25000   0.00000  Uiso   1.00
O436   O     0.03961   0.89346   0.24999   0.00000  Uiso   1.00
O437   O     0.01852   0.83334   0.31491   0.00000  Uiso   1.00
O438   O     0.31481   0.83332   0.18509   0.00000  Uiso   1.00
O439   O     0.27267   0.83333   0.31492   0.00000  Uiso   1.00
O440   O     0.06067   0.83333   0.18508   0.00000  Uiso   1.00
O441   O     0.18972   0.85702   0.09653   0.00000  Uiso   1.00
H442   H     0.16492   0.87908   0.10506   0.00000  Uiso   1.00
O443   O     0.16310   0.89753   0.41520   0.00000  Uiso   1.00
H444   H     0.13564   0.90939   0.40547   0.00000  Uiso   1.00
H445   H     0.25739   0.70393   0.25043   0.00000  Uiso   1.00
H446   H     0.07596   0.96273   0.24951   0.00000  Uiso   1.00
H447   H     0.19414   0.78986   0.30330   0.00000  Uiso   1.00
H448   H     0.13916   0.87686   0.19675   0.00000  Uiso   1.00
C449   C     0.66665   0.75402   0.25002   0.00000  Uiso   1.00
C450   C     0.33336   0.91264   0.24996   0.00000  Uiso   1.00
C451   C     0.53194   0.85009   0.05084   0.00000  Uiso   1.00
C452   C     0.47917   0.88034   0.45773   0.00000  Uiso   1.00
C453   C     0.57987   0.84157   0.02731   0.00000  Uiso   1.00
C454   C     0.42990   0.88513   0.48159   0.00000  Uiso   1.00
C455   C     0.62405   0.68793   0.25022   0.00000  Uiso   1.00
C456   C     0.37597   0.97873   0.24972   0.00000  Uiso   1.00
C457   C     0.62408   0.97870   0.25017   0.00000  Uiso   1.00
C458   C     0.37594   0.68796   0.24977   0.00000  Uiso   1.00
C459   C     0.33336   0.95726   0.24994   0.00000  Uiso   1.00
C460   C     0.66665   0.70940   0.25002   0.00000  Uiso   1.00
C461   C     0.51591   0.80923   0.27962   0.00000  Uiso   1.00
C462   C     0.48408   0.85745   0.22039   0.00000  Uiso   1.00
C463   C     0.46631   0.80926   0.27962   0.00000  Uiso   1.00
C464   C     0.53369   0.85741   0.22037   0.00000  Uiso   1.00
C465   C     0.63920   0.83345   0.33632   0.00000  Uiso   1.00
C466   C     0.36083   0.83456   0.16374   0.00000  Uiso   1.00
C467   C     0.62420   0.83562   0.38593   0.00000  Uiso   1.00
C468   C     0.37649   0.84286   0.11496   0.00000  Uiso   1.00
C469   C     0.64297   0.83135   0.45767   0.00000  Uiso   1.00
C470   C     0.36264   0.87467   0.04850   0.00000  Uiso   1.00
C471   C     0.65800   0.82967   0.41072   0.00000  Uiso   1.00
C472   C     0.34482   0.86093   0.09296   0.00000  Uiso   1.00
C473   C     0.57560   0.84450   0.40863   0.00000  Uiso   1.00
C474   C     0.42577   0.83834   0.09185   0.00000  Uiso   1.00
C475   C     0.56052   0.85004   0.45575   0.00000  Uiso   1.00
C476   C     0.44523   0.85555   0.04874   0.00000  Uiso   1.00
C477   C     0.59443   0.84081   0.48034   0.00000  Uiso   1.00
C478   C     0.41249   0.87162   0.02607   0.00000  Uiso   1.00
C479   C     0.51194   0.86161   0.47934   0.00000  Uiso   1.00
C480   C     0.49609   0.85550   0.02695   0.00000  Uiso   1.00
Cu481  Cu    0.38022   0.83334   0.25000   0.00000  Uiso   1.00
Cu482  Cu    0.61978   0.83333   0.25000   0.00000  Uiso   1.00
H483   H     0.60605   0.83594   0.04618   0.00000  Uiso   1.00
H484   H     0.40488   0.89915   0.46512   0.00000  Uiso   1.00
H485   H     0.44871   0.82138   0.10816   0.00000  Uiso   1.00
H486   H     0.54962   0.84532   0.38910   0.00000  Uiso   1.00
H487   H     0.63999   0.86536   0.11041   0.00000  Uiso   1.00
H488   H     0.36242   0.82270   0.39391   0.00000  Uiso   1.00
H489   H     0.33599   0.82518   0.47627   0.00000  Uiso   1.00
H490   H     0.33765   0.88848   0.03191   0.00000  Uiso   1.00
H491   H     0.59077   0.96268   0.25033   0.00000  Uiso   1.00
H492   H     0.40925   0.70398   0.24961   0.00000  Uiso   1.00
H493   H     0.44050   0.78994   0.30332   0.00000  Uiso   1.00
H494   H     0.55949   0.87672   0.19666   0.00000  Uiso   1.00
N495   N     0.45069   0.83334   0.24999   0.00000  Uiso   1.00
N496   N     0.54931   0.83332   0.25001   0.00000  Uiso   1.00
O497   O     0.37291   0.77322   0.25000   0.00000  Uiso   1.00
O498   O     0.62709   0.89345   0.25000   0.00000  Uiso   1.00
O499   O     0.62706   0.77321   0.25000   0.00000  Uiso   1.00
O500   O     0.37294   0.89346   0.24999   0.00000  Uiso   1.00
O501   O     0.35186   0.83334   0.31491   0.00000  Uiso   1.00
O502   O     0.64814   0.83332   0.18509   0.00000  Uiso   1.00
O503   O     0.60600   0.83333   0.31492   0.00000  Uiso   1.00
O504   O     0.39400   0.83333   0.18508   0.00000  Uiso   1.00
O505   O     0.52306   0.85702   0.09653   0.00000  Uiso   1.00
H506   H     0.49825   0.87908   0.10506   0.00000  Uiso   1.00
O507   O     0.49643   0.89753   0.41520   0.00000  Uiso   1.00
H508   H     0.46897   0.90939   0.40547   0.00000  Uiso   1.00
H509   H     0.59072   0.70393   0.25043   0.00000  Uiso   1.00
H510   H     0.40929   0.96273   0.24951   0.00000  Uiso   1.00
H511   H     0.52747   0.78986   0.30330   0.00000  Uiso   1.00
H512   H     0.47250   0.87686   0.19675   0.00000  Uiso   1.00
C513   C     0.99998   0.75402   0.25002   0.00000  Uiso   1.00
C514   C     0.66669   0.91264   0.24996   0.00000  Uiso   1.00
C515   C     0.86528   0.85009   0.05084   0.00000  Uiso   1.00
C516   C     0.81250   0.88034   0.45773   0.00000  Uiso   1.00
C517   C     0.91320   0.84157   0.02731   0.00000  Uiso   1.00
C518   C     0.76323   0.88513   0.48159   0.00000  Uiso   1.00
C519   C     0.95738   0.68793   0.25022   0.00000  Uiso   1.00
C520   C     0.70930   0.97873   0.24972   0.00000  Uiso   1.00
C521   C     0.95741   0.97870   0.25017   0.00000  Uiso   1.00
C522   C     0.70927   0.68796   0.24977   0.00000  Uiso   1.00
C523   C     0.66669   0.95726   0.24994   0.00000  Uiso   1.00
C524   C     0.99999   0.70940   0.25002   0.00000  Uiso   1.00
C525   C     0.84924   0.80923   0.27962   0.00000  Uiso   1.00
C526   C     0.81742   0.85745   0.22039   0.00000  Uiso   1.00
C527   C     0.79964   0.80926   0.27962   0.00000  Uiso   1.00
C528   C     0.86703   0.85741   0.22037   0.00000  Uiso   1.00
C529   C     0.97253   0.83345   0.33632   0.00000  Uiso   1.00
C530   C     0.69417   0.83456   0.16374   0.00000  Uiso   1.00
C531   C     0.95753   0.83562   0.38593   0.00000  Uiso   1.00
C532   C     0.70982   0.84286   0.11496   0.00000  Uiso   1.00
C533   C     0.97630   0.83135   0.45767   0.00000  Uiso   1.00
C534   C     0.69597   0.87467   0.04850   0.00000  Uiso   1.00
C535   C     0.99133   0.82967   0.41072   0.00000  Uiso   1.00
C536   C     0.67815   0.86093   0.09296   0.00000  Uiso   1.00
C537   C     0.90894   0.84450   0.40863   0.00000  Uiso   1.00
C538   C     0.75910   0.83834   0.09185   0.00000  Uiso   1.00
C539   C     0.89385   0.85004   0.45575   0.00000  Uiso   1.00
C540   C     0.77856   0.85555   0.04874   0.00000  Uiso   1.00
C541   C     0.92777   0.84081   0.48034   0.00000  Uiso   1.00
C542   C     0.74583   0.87162   0.02607   0.00000  Uiso   1.00
C543   C     0.84528   0.86161   0.47934   0.00000  Uiso   1.00
C544   C     0.82942   0.85550   0.02695   0.00000  Uiso   1.00
Cu545  Cu    0.71355   0.83334   0.25000   0.00000  Uiso   1.00
Cu546  Cu    0.95311   0.83333   0.25000   0.00000  Uiso   1.00
H547   H     0.93938   0.83594   0.04618   0.00000  Uiso   1.00
H548   H     0.73821   0.89915   0.46512   0.00000  Uiso   1.00
H549   H     0.78205   0.82138   0.10816   0.00000  Uiso   1.00
H550   H     0.88295   0.84532   0.38910   0.00000  Uiso   1.00
H551   H     0.97333   0.86536   0.11041   0.00000  Uiso   1.00
H552   H     0.69575   0.82270   0.39391   0.00000  Uiso   1.00
H553   H     0.66932   0.82518   0.47627   0.00000  Uiso   1.00
H554   H     0.67098   0.88848   0.03191   0.00000  Uiso   1.00
H555   H     0.92410   0.96268   0.25033   0.00000  Uiso   1.00
H556   H     0.74258   0.70398   0.24961   0.00000  Uiso   1.00
H557   H     0.77384   0.78994   0.30332   0.00000  Uiso   1.00
H558   H     0.89283   0.87672   0.19666   0.00000  Uiso   1.00
N559   N     0.78403   0.83334   0.24999   0.00000  Uiso   1.00
N560   N     0.88264   0.83332   0.25001   0.00000  Uiso   1.00
O561   O     0.70625   0.77322   0.25000   0.00000  Uiso   1.00
O562   O     0.96042   0.89345   0.25000   0.00000  Uiso   1.00
O563   O     0.96039   0.77321   0.25000   0.00000  Uiso   1.00
O564   O     0.70628   0.89346   0.24999   0.00000  Uiso   1.00
O565   O     0.68519   0.83334   0.31491   0.00000  Uiso   1.00
O566   O     0.98148   0.83332   0.18509   0.00000  Uiso   1.00
O567   O     0.93933   0.83333   0.31492   0.00000  Uiso   1.00
O568   O     0.72733   0.83333   0.18508   0.00000  Uiso   1.00
O569   O     0.85639   0.85702   0.09653   0.00000  Uiso   1.00
H570   H     0.83158   0.87908   0.10506   0.00000  Uiso   1.00
O571   O     0.82976   0.89753   0.41520   0.00000  Uiso   1.00
H572   H     0.80231   0.90939   0.40547   0.00000  Uiso   1.00
H573   H     0.92406   0.70393   0.25043   0.00000  Uiso   1.00
H574   H     0.74263   0.96273   0.24951   0.00000  Uiso   1.00
H575   H     0.86081   0.78986   0.30330   0.00000  Uiso   1.00
H576   H     0.80583   0.87686   0.19675   0.00000  Uiso   1.00
C577   C     0.33331   0.08736   0.75002   0.00000  Uiso   1.00
C578   C     0.00003   0.24598   0.74996   0.00000  Uiso   1.00
C579   C     0.19861   0.18343   0.55084   0.00000  Uiso   1.00
C580   C     0.14584   0.21367   0.95773   0.00000  Uiso   1.00
C581   C     0.24653   0.17490   0.52731   0.00000  Uiso   1.00
C582   C     0.09657   0.21846   0.98159   0.00000  Uiso   1.00
C583   C     0.29072   0.02127   0.75022   0.00000  Uiso   1.00
C584   C     0.04263   0.31206   0.74972   0.00000  Uiso   1.00
C585   C     0.29074   0.31203   0.75017   0.00000  Uiso   1.00
C586   C     0.04261   0.02129   0.74977   0.00000  Uiso   1.00
C587   C     0.00003   0.29059   0.74994   0.00000  Uiso   1.00
C588   C     0.33332   0.04274   0.75002   0.00000  Uiso   1.00
C589   C     0.18258   0.14257   0.77962   0.00000  Uiso   1.00
C590   C     0.15075   0.19079   0.72039   0.00000  Uiso   1.00
C591   C     0.13297   0.14259   0.77962   0.00000  Uiso   1.00
C592   C     0.20036   0.19074   0.72037   0.00000  Uiso   1.00
C593   C     0.30587   0.16678   0.83632   0.00000  Uiso   1.00
C594   C     0.02750   0.16789   0.66374   0.00000  Uiso   1.00
C595   C     0.29087   0.16895   0.88593   0.00000  Uiso   1.00
C596   C     0.04316   0.17619   0.61496   0.00000  Uiso   1.00
C597   C     0.30963   0.16468   0.95767   0.00000  Uiso   1.00
C598   C     0.02930   0.20800   0.54850   0.00000  Uiso   1.00
C599   C     0.32467   0.16300   0.91072   0.00000  Uiso   1.00
C600   C     0.01148   0.19426   0.59296   0.00000  Uiso   1.00
C601   C     0.24227   0.17783   0.90863   0.00000  Uiso   1.00
C602   C     0.09243   0.17167   0.59185   0.00000  Uiso   1.00
C603   C     0.22718   0.18337   0.95575   0.00000  Uiso   1.00
C604   C     0.11190   0.18889   0.54874   0.00000  Uiso   1.00
C605   C     0.26110   0.17415   0.98034   0.00000  Uiso   1.00
C606   C     0.07916   0.20495   0.52607   0.00000  Uiso   1.00
C607   C     0.17861   0.19494   0.97934   0.00000  Uiso   1.00
C608   C     0.16276   0.18884   0.52695   0.00000  Uiso   1.00
Cu609  Cu    0.04689   0.16667   0.75000   0.00000  Uiso   1.00
Cu610  Cu    0.28645   0.16666   0.75000   0.00000  Uiso   1.00
H611   H     0.27271   0.16927   0.54618   0.00000  Uiso   1.00
H612   H     0.07155   0.23248   0.96512   0.00000  Uiso   1.00
H613   H     0.11538   0.15472   0.60816   0.00000  Uiso   1.00
H614   H     0.21629   0.17865   0.88910   0.00000  Uiso   1.00
H615   H     0.30666   0.19869   0.61041   0.00000  Uiso   1.00
H616   H     0.02909   0.15604   0.89391   0.00000  Uiso   1.00
H617   H     0.00266   0.15851   0.97627   0.00000  Uiso   1.00
H618   H     0.00432   0.22182   0.53191   0.00000  Uiso   1.00
H619   H     0.25743   0.29601   0.75033   0.00000  Uiso   1.00
H620   H     0.07592   0.03731   0.74961   0.00000  Uiso   1.00
H621   H     0.10717   0.12327   0.80332   0.00000  Uiso   1.00
H622   H     0.22616   0.21005   0.69666   0.00000  Uiso   1.00
N623   N     0.11736   0.16668   0.74999   0.00000  Uiso   1.00
N624   N     0.21597   0.16666   0.75001   0.00000  Uiso   1.00
O625   O     0.03958   0.10655   0.75000   0.00000  Uiso   1.00
O626   O     0.29375   0.22678   0.75000   0.00000  Uiso   1.00
O627   O     0.29372   0.10654   0.75000   0.00000  Uiso   1.00
O628   O     0.03961   0.22679   0.74999   0.00000  Uiso   1.00
O629   O     0.01852   0.16668   0.81491   0.00000  Uiso   1.00
O630   O     0.31481   0.16666   0.68509   0.00000  Uiso   1.00
O631   O     0.27267   0.16667   0.81492   0.00000  Uiso   1.00
O632   O     0.06067   0.16667   0.68508   0.00000  Uiso   1.00
O633   O     0.18972   0.19035   0.59653   0.00000  Uiso   1.00
H634   H     0.16492   0.21241   0.60506   0.00000  Uiso   1.00
O635   O     0.16310   0.23086   0.91520   0.00000  Uiso   1.00
H636   H     0.13564   0.24272   0.90547   0.00000  Uiso   1.00
H637   H     0.25739   0.03726   0.75043   0.00000  Uiso   1.00
H638   H     0.07596   0.29606   0.74951   0.00000  Uiso   1.00
H639   H     0.19414   0.12319   0.80330   0.00000  Uiso   1.00
H640   H     0.13916   0.21020   0.69675   0.00000  Uiso   1.00
C641   C     0.66665   0.08736   0.75002   0.00000  Uiso   1.00
C642   C     0.33336   0.24598   0.74996   0.00000  Uiso   1.00
C643   C     0.53194   0.18343   0.55084   0.00000  Uiso   1.00
C644   C     0.47917   0.21367   0.95773   0.00000  Uiso   1.00
C645   C     0.57987   0.17490   0.52731   0.00000  Uiso   1.00
C646   C     0.42990   0.21846   0.98159   0.00000  Uiso   1.00
C647   C     0.62405   0.02127   0.75022   0.00000  Uiso   1.00
C648   C     0.37597   0.31206   0.74972   0.00000  Uiso   1.00
C649   C     0.62408   0.31203   0.75017   0.00000  Uiso   1.00
C650   C     0.37594   0.02129   0.74977   0.00000  Uiso   1.00
C651   C     0.33336   0.29059   0.74994   0.00000  Uiso   1.00
C652   C     0.66665   0.04274   0.75002   0.00000  Uiso   1.00
C653   C     0.51591   0.14257   0.77962   0.00000  Uiso   1.00
C654   C     0.48408   0.19079   0.72039   0.00000  Uiso   1.00
C655   C     0.46631   0.14259   0.77962   0.00000  Uiso   1.00
C656   C     0.53369   0.19074   0.72037   0.00000  Uiso   1.00
C657   C     0.63920   0.16678   0.83632   0.00000  Uiso   1.00
C658   C     0.36083   0.16789   0.66374   0.00000  Uiso   1.00
C659   C     0.62420   0.16895   0.88593   0.00000  Uiso   1.00
C660   C     0.37649   0.17619   0.61496   0.00000  Uiso   1.00
C661   C     0.64297   0.16468   0.95767   0.00000  Uiso   1.00
C662   C     0.36264   0.20800   0.54850   0.00000  Uiso   1.00
C663   C     0.65800   0.16300   0.91072   0.00000  Uiso   1.00
C664   C     0.34482   0.19426   0.59296   0.00000  Uiso   1.00
C665   C     0.57560   0.17783   0.90863   0.00000  Uiso   1.00
C666   C     0.42577   0.17167   0.59185   0.00000  Uiso   1.00
C667   C     0.56052   0.18337   0.95575   0.00000  Uiso   1.00
C668   C     0.44523   0.18889   0.54874   0.00000  Uiso   1.00
C669   C     0.59443   0.17415   0.98034   0.00000  Uiso   1.00
C670   C     0.41249   0.20495   0.52607   0.00000  Uiso   1.00
C671   C     0.51194   0.19494   0.97934   0.00000  Uiso   1.00
C672   C     0.49609   0.18884   0.52695   0.00000  Uiso   1.00
Cu673  Cu    0.38022   0.16667   0.75000   0.00000  Uiso   1.00
Cu674  Cu    0.61978   0.16666   0.75000   0.00000  Uiso   1.00
H675   H     0.60605   0.16927   0.54618   0.00000  Uiso   1.00
H676   H     0.40488   0.23248   0.96512   0.00000  Uiso   1.00
H677   H     0.44871   0.15472   0.60816   0.00000  Uiso   1.00
H678   H     0.54962   0.17865   0.88910   0.00000  Uiso   1.00
H679   H     0.63999   0.19869   0.61041   0.00000  Uiso   1.00
H680   H     0.36242   0.15604   0.89391   0.00000  Uiso   1.00
H681   H     0.33599   0.15851   0.97627   0.00000  Uiso   1.00
H682   H     0.33765   0.22182   0.53191   0.00000  Uiso   1.00
H683   H     0.59077   0.29601   0.75033   0.00000  Uiso   1.00
H684   H     0.40925   0.03731   0.74961   0.00000  Uiso   1.00
H685   H     0.44050   0.12327   0.80332   0.00000  Uiso   1.00
H686   H     0.55949   0.21005   0.69666   0.00000  Uiso   1.00
N687   N     0.45069   0.16668   0.74999   0.00000  Uiso   1.00
N688   N     0.54931   0.16666   0.75001   0.00000  Uiso   1.00
O689   O     0.37291   0.10655   0.75000   0.00000  Uiso   1.00
O690   O     0.62709   0.22678   0.75000   0.00000  Uiso   1.00
O691   O     0.62706   0.10654   0.75000   0.00000  Uiso   1.00
O692   O     0.37294   0.22679   0.74999   0.00000  Uiso   1.00
O693   O     0.35186   0.16668   0.81491   0.00000  Uiso   1.00
O694   O     0.64814   0.16666   0.68509   0.00000  Uiso   1.00
O695   O     0.60600   0.16667   0.81492   0.00000  Uiso   1.00
O696   O     0.39400   0.16667   0.68508   0.00000  Uiso   1.00
O697   O     0.52306   0.19035   0.59653   0.00000  Uiso   1.00
H698   H     0.49825   0.21241   0.60506   0.00000  Uiso   1.00
O699   O     0.49643   0.23086   0.91520   0.00000  Uiso   1.00
H700   H     0.46897   0.24272   0.90547   0.00000  Uiso   1.00
H701   H     0.59072   0.03726   0.75043   0.00000  Uiso   1.00
H702   H     0.40929   0.29606   0.74951   0.00000  Uiso   1.00
H703   H     0.52747   0.12319   0.80330   0.00000  Uiso   1.00
H704   H     0.47250   0.21020   0.69675   0.00000  Uiso   1.00
C705   C     0.99998   0.08736   0.75002   0.00000  Uiso   1.00
C706   C     0.66669   0.24598   0.74996   0.00000  Uiso   1.00
C707   C     0.86528   0.18343   0.55084   0.00000  Uiso   1.00
C708   C     0.81250   0.21367   0.95773   0.00000  Uiso   1.00
C709   C     0.91320   0.17490   0.52731   0.00000  Uiso   1.00
C710   C     0.76323   0.21846   0.98159   0.00000  Uiso   1.00
C711   C     0.95738   0.02127   0.75022   0.00000  Uiso   1.00
C712   C     0.70930   0.31206   0.74972   0.00000  Uiso   1.00
C713   C     0.95741   0.31203   0.75017   0.00000  Uiso   1.00
C714   C     0.70927   0.02129   0.74977   0.00000  Uiso   1.00
C715   C     0.66669   0.29059   0.74994   0.00000  Uiso   1.00
C716   C     0.99999   0.04274   0.75002   0.00000  Uiso   1.00
C717   C     0.84924   0.14257   0.77962   0.00000  Uiso   1.00
C718   C     0.81742   0.19079   0.72039   0.00000  Uiso   1.00
C719   C     0.79964   0.14259   0.77962   0.00000  Uiso   1.00
C720   C     0.86703   0.19074   0.72037   0.00000  Uiso   1.00
C721   C     0.97253   0.16678   0.83632   0.00000  Uiso   1.00
C722   C     0.69417   0.16789   0.66374   0.00000  Uiso   1.00
C723   C     0.95753   0.16895   0.88593   0.00000  Uiso   1.00
C724   C     0.70982   0.17619   0.61496   0.00000  Uiso   1.00
C725   C     0.97630   0.16468   0.95767   0.00000  Uiso   1.00
C726   C     0.69597   0.20800   0.54850   0.00000  Uiso   1.00
C727   C     0.99133   0.16300   0.91072   0.00000  Uiso   1.00
C728   C     0.67815   0.19426   0.59296   0.00000  Uiso   1.00
C729   C     0.90894   0.17783   0.90863   0.00000  Uiso   1.00
C730   C     0.75910   0.17167   0.59185   0.00000  Uiso   1.00
C731   C     0.89385   0.18337   0.95575   0.00000  Uiso   1.00
C732   C     0.77856   0.18889   0.54874   0.00000  Uiso   1.00
C733   C     0.92777   0.17415   0.98034   0.00000  Uiso   1.00
C734   C     0.74583   0.20495   0.52607   0.00000  Uiso   1.00
C735   C     0.84528   0.19494   0.97934   0.00000  Uiso   1.00
C736   C     0.82942   0.18884   0.52695   0.00000  Uiso   1.00
Cu737  Cu    0.71355   0.16667   0.75000   0.00000  Uiso   1.00
Cu738  Cu    0.95311   0.16666   0.75000   0.00000  Uiso   1.00
H739   H     0.93938   0.16927   0.54618   0.00000  Uiso   1.00
H740   H     0.73821   0.23248   0.96512   0.00000  Uiso   1.00
H741   H     0.78205   0.15472   0.60816   0.00000  Uiso   1.00
H742   H     0.88295   0.17865   0.88910   0.00000  Uiso   1.00
H743   H     0.97333   0.19869   0.61041   0.00000  Uiso   1.00
H744   H     0.69575   0.15604   0.89391   0.00000  Uiso   1.00
H745   H     0.66932   0.15851   0.97627   0.00000  Uiso   1.00
H746   H     0.67098   0.22182   0.53191   0.00000  Uiso   1.00
H747   H     0.92410   0.29601   0.75033   0.00000  Uiso   1.00
H748   H     0.74258   0.03731   0.74961   0.00000  Uiso   1.00
H749   H     0.77384   0.12327   0.80332   0.00000  Uiso   1.00
H750   H     0.89283   0.21005   0.69666   0.00000  Uiso   1.00
N751   N     0.78403   0.16668   0.74999   0.00000  Uiso   1.00
N752   N     0.88264   0.16666   0.75001   0.00000  Uiso   1.00
O753   O     0.70625   0.10655   0.75000   0.00000  Uiso   1.00
O754   O     0.96042   0.22678   0.75000   0.00000  Uiso   1.00
O755   O     0.96039   0.10654   0.75000   0.00000  Uiso   1.00
O756   O     0.70628   0.22679   0.74999   0.00000  Uiso   1.00
O757   O     0.68519   0.16668   0.81491   0.00000  Uiso   1.00
O758   O     0.98148   0.16666   0.68509   0.00000  Uiso   1.00
O759   O     0.93933   0.16667   0.81492   0.00000  Uiso   1.00
O760   O     0.72733   0.16667   0.68508   0.00000  Uiso   1.00
O761   O     0.85639   0.19035   0.59653   0.00000  Uiso   1.00
H762   H     0.83158   0.21241   0.60506   0.00000  Uiso   1.00
O763   O     0.82976   0.23086   0.91520   0.00000  Uiso   1.00
H764   H     0.80231   0.24272   0.90547   0.00000  Uiso   1.00
H765   H     0.92406   0.03726   0.75043   0.00000  Uiso   1.00
H766   H     0.74263   0.29606   0.74951   0.00000  Uiso   1.00
H767   H     0.86081   0.12319   0.80330   0.00000  Uiso   1.00
H768   H     0.80583   0.21020   0.69675   0.00000  Uiso   1.00
C769   C     0.33331   0.42069   0.75002   0.00000  Uiso   1.00
C770   C     0.00003   0.57931   0.74996   0.00000  Uiso   1.00
C771   C     0.19861   0.51676   0.55084   0.00000  Uiso   1.00
C772   C     0.14584   0.54700   0.95773   0.00000  Uiso   1.00
C773   C     0.24653   0.50823   0.52731   0.00000  Uiso   1.00
C774   C     0.09657   0.55180   0.98159   0.00000  Uiso   1.00
C775   C     0.29072   0.35460   0.75022   0.00000  Uiso   1.00
C776   C     0.04263   0.64539   0.74972   0.00000  Uiso   1.00
C777   C     0.29074   0.64537   0.75017   0.00000  Uiso   1.00
C778   C     0.04261   0.35463   0.74977   0.00000  Uiso   1.00
C779   C     0.00003   0.62392   0.74994   0.00000  Uiso   1.00
C780   C     0.33332   0.37607   0.75002   0.00000  Uiso   1.00
C781   C     0.18258   0.47590   0.77962   0.00000  Uiso   1.00
C782   C     0.15075   0.52412   0.72039   0.00000  Uiso   1.00
C783   C     0.13297   0.47592   0.77962   0.00000  Uiso   1.00
C784   C     0.20036   0.52407   0.72037   0.00000  Uiso   1.00
C785   C     0.30587   0.50011   0.83632   0.00000  Uiso   1.00
C786   C     0.02750   0.50123   0.66374   0.00000  Uiso   1.00
C787   C     0.29087   0.50228   0.88593   0.00000  Uiso   1.00
C788   C     0.04316   0.50953   0.61496   0.00000  Uiso   1.00
C789   C     0.30963   0.49802   0.95767   0.00000  Uiso   1.00
C790   C     0.02930   0.54133   0.54850   0.00000  Uiso   1.00
C791   C     0.32467   0.49634   0.91072   0.00000  Uiso   1.00
C792   C     0.01148   0.52759   0.59296   0.00000  Uiso   1.00
C793   C     0.24227   0.51117   0.90863   0.00000  Uiso   1.00
C794   C     0.09243   0.50501   0.59185   0.00000  Uiso   1.00
C795   C     0.22718   0.51671   0.95575   0.00000  Uiso   1.00
C796   C     0.11190   0.52222   0.54874   0.00000  Uiso   1.00
C797   C     0.26110   0.50748   0.98034   0.00000  Uiso   1.00
C798   C     0.07916   0.53829   0.52607   0.00000  Uiso   1.00
C799   C     0.17861   0.52828   0.97934   0.00000  Uiso   1.00
C800   C     0.16276   0.52217   0.52695   0.00000  Uiso   1.00
Cu801  Cu    0.04689   0.50001   0.75000   0.00000  Uiso   1.00
Cu802  Cu    0.28645   0.49999   0.75000   0.00000  Uiso   1.00
H803   H     0.27271   0.50261   0.54618   0.00000  Uiso   1.00
H804   H     0.07155   0.56581   0.96512   0.00000  Uiso   1.00
H805   H     0.11538   0.48805   0.60816   0.00000  Uiso   1.00
H806   H     0.21629   0.51199   0.88910   0.00000  Uiso   1.00
H807   H     0.30666   0.53202   0.61041   0.00000  Uiso   1.00
H808   H     0.02909   0.48937   0.89391   0.00000  Uiso   1.00
H809   H     0.00266   0.49185   0.97627   0.00000  Uiso   1.00
H810   H     0.00432   0.55515   0.53191   0.00000  Uiso   1.00
H811   H     0.25743   0.62935   0.75033   0.00000  Uiso   1.00
H812   H     0.07592   0.37064   0.74961   0.00000  Uiso   1.00
H813   H     0.10717   0.45660   0.80332   0.00000  Uiso   1.00
H814   H     0.22616   0.54339   0.69666   0.00000  Uiso   1.00
N815   N     0.11736   0.50001   0.74999   0.00000  Uiso   1.00
N816   N     0.21597   0.49999   0.75001   0.00000  Uiso   1.00
O817   O     0.03958   0.43989   0.75000   0.00000  Uiso   1.00
O818   O     0.29375   0.56011   0.75000   0.00000  Uiso   1.00
O819   O     0.29372   0.43988   0.75000   0.00000  Uiso   1.00
O820   O     0.03961   0.56012   0.74999   0.00000  Uiso   1.00
O821   O     0.01852   0.50001   0.81491   0.00000  Uiso   1.00
O822   O     0.31481   0.49999   0.68509   0.00000  Uiso   1.00
O823   O     0.27267   0.50000   0.81492   0.00000  Uiso   1.00
O824   O     0.06067   0.50000   0.68508   0.00000  Uiso   1.00
O825   O     0.18972   0.52369   0.59653   0.00000  Uiso   1.00
H826   H     0.16492   0.54574   0.60506   0.00000  Uiso   1.00
O827   O     0.16310   0.56420   0.91520   0.00000  Uiso   1.00
H828   H     0.13564   0.57606   0.90547   0.00000  Uiso   1.00
H829   H     0.25739   0.37060   0.75043   0.00000  Uiso   1.00
H830   H     0.07596   0.62939   0.74951   0.00000  Uiso   1.00
H831   H     0.19414   0.45652   0.80330   0.00000  Uiso   1.00
H832   H     0.13916   0.54353   0.69675   0.00000  Uiso   1.00
C833   C     0.66665   0.42069   0.75002   0.00000  Uiso   1.00
C834   C     0.33336   0.57931   0.74996   0.00000  Uiso   1.00
C835   C     0.53194   0.51676   0.55084   0.00000  Uiso   1.00
C836   C     0.47917   0.54700   0.95773   0.00000  Uiso   1.00
C837   C     0.57987   0.50823   0.52731   0.00000  Uiso   1.00
C838   C     0.42990   0.55180   0.98159   0.00000  Uiso   1.00
C839   C     0.62405   0.35460   0.75022   0.00000  Uiso   1.00
C840   C     0.37597   0.64539   0.74972   0.00000  Uiso   1.00
C841   C     0.62408   0.64537   0.75017   0.00000  Uiso   1.00
C842   C     0.37594   0.35463   0.74977   0.00000  Uiso   1.00
C843   C     0.33336   0.62392   0.74994   0.00000  Uiso   1.00
C844   C     0.66665   0.37607   0.75002   0.00000  Uiso   1.00
C845   C     0.51591   0.47590   0.77962   0.00000  Uiso   1.00
C846   C     0.48408   0.52412   0.72039   0.00000  Uiso   1.00
C847   C     0.46631   0.47592   0.77962   0.00000  Uiso   1.00
C848   C     0.53369   0.52407   0.72037   0.00000  Uiso   1.00
C849   C     0.63920   0.50011   0.83632   0.00000  Uiso   1.00
C850   C     0.36083   0.50123   0.66374   0.00000  Uiso   1.00
C851   C     0.62420   0.50228   0.88593   0.00000  Uiso   1.00
C852   C     0.37649   0.50953   0.61496   0.00000  Uiso   1.00
C853   C     0.64297   0.49802   0.95767   0.00000  Uiso   1.00
C854   C     0.36264   0.54133   0.54850   0.00000  Uiso   1.00
C855   C     0.65800   0.49634   0.91072   0.00000  Uiso   1.00
C856   C     0.34482   0.52759   0.59296   0.00000  Uiso   1.00
C857   C     0.57560   0.51117   0.90863   0.00000  Uiso   1.00
C858   C     0.42577   0.50501   0.59185   0.00000  Uiso   1.00
C859   C     0.56052   0.51671   0.95575   0.00000  Uiso   1.00
C860   C     0.44523   0.52222   0.54874   0.00000  Uiso   1.00
C861   C     0.59443   0.50748   0.98034   0.00000  Uiso   1.00
C862   C     0.41249   0.53829   0.52607   0.00000  Uiso   1.00
C863   C     0.51194   0.52828   0.97934   0.00000  Uiso   1.00
C864   C     0.49609   0.52217   0.52695   0.00000  Uiso   1.00
Cu865  Cu    0.38022   0.50001   0.75000   0.00000  Uiso   1.00
Cu866  Cu    0.61978   0.49999   0.75000   0.00000  Uiso   1.00
H867   H     0.60605   0.50261   0.54618   0.00000  Uiso   1.00
H868   H     0.40488   0.56581   0.96512   0.00000  Uiso   1.00
H869   H     0.44871   0.48805   0.60816   0.00000  Uiso   1.00
H870   H     0.54962   0.51199   0.88910   0.00000  Uiso   1.00
H871   H     0.63999   0.53202   0.61041   0.00000  Uiso   1.00
H872   H     0.36242   0.48937   0.89391   0.00000  Uiso   1.00
H873   H     0.33599   0.49185   0.97627   0.00000  Uiso   1.00
H874   H     0.33765   0.55515   0.53191   0.00000  Uiso   1.00
H875   H     0.59077   0.62935   0.75033   0.00000  Uiso   1.00
H876   H     0.40925   0.37064   0.74961   0.00000  Uiso   1.00
H877   H     0.44050   0.45660   0.80332   0.00000  Uiso   1.00
H878   H     0.55949   0.54339   0.69666   0.00000  Uiso   1.00
N879   N     0.45069   0.50001   0.74999   0.00000  Uiso   1.00
N880   N     0.54931   0.49999   0.75001   0.00000  Uiso   1.00
O881   O     0.37291   0.43989   0.75000   0.00000  Uiso   1.00
O882   O     0.62709   0.56011   0.75000   0.00000  Uiso   1.00
O883   O     0.62706   0.43988   0.75000   0.00000  Uiso   1.00
O884   O     0.37294   0.56012   0.74999   0.00000  Uiso   1.00
O885   O     0.35186   0.50001   0.81491   0.00000  Uiso   1.00
O886   O     0.64814   0.49999   0.68509   0.00000  Uiso   1.00
O887   O     0.60600   0.50000   0.81492   0.00000  Uiso   1.00
O888   O     0.39400   0.50000   0.68508   0.00000  Uiso   1.00
O889   O     0.52306   0.52369   0.59653   0.00000  Uiso   1.00
H890   H     0.49825   0.54574   0.60506   0.00000  Uiso   1.00
O891   O     0.49643   0.56420   0.91520   0.00000  Uiso   1.00
H892   H     0.46897   0.57606   0.90547   0.00000  Uiso   1.00
H893   H     0.59072   0.37060   0.75043   0.00000  Uiso   1.00
H894   H     0.40929   0.62939   0.74951   0.00000  Uiso   1.00
H895   H     0.52747   0.45652   0.80330   0.00000  Uiso   1.00
H896   H     0.47250   0.54353   0.69675   0.00000  Uiso   1.00
C897   C     0.99998   0.42069   0.75002   0.00000  Uiso   1.00
C898   C     0.66669   0.57931   0.74996   0.00000  Uiso   1.00
C899   C     0.86528   0.51676   0.55084   0.00000  Uiso   1.00
C900   C     0.81250   0.54700   0.95773   0.00000  Uiso   1.00
C901   C     0.91320   0.50823   0.52731   0.00000  Uiso   1.00
C902   C     0.76323   0.55180   0.98159   0.00000  Uiso   1.00
C903   C     0.95738   0.35460   0.75022   0.00000  Uiso   1.00
C904   C     0.70930   0.64539   0.74972   0.00000  Uiso   1.00
C905   C     0.95741   0.64537   0.75017   0.00000  Uiso   1.00
C906   C     0.70927   0.35463   0.74977   0.00000  Uiso   1.00
C907   C     0.66669   0.62392   0.74994   0.00000  Uiso   1.00
C908   C     0.99999   0.37607   0.75002   0.00000  Uiso   1.00
C909   C     0.84924   0.47590   0.77962   0.00000  Uiso   1.00
C910   C     0.81742   0.52412   0.72039   0.00000  Uiso   1.00
C911   C     0.79964   0.47592   0.77962   0.00000  Uiso   1.00
C912   C     0.86703   0.52407   0.72037   0.00000  Uiso   1.00
C913   C     0.97253   0.50011   0.83632   0.00000  Uiso   1.00
C914   C     0.69417   0.50123   0.66374   0.00000  Uiso   1.00
C915   C     0.95753   0.50228   0.88593   0.00000  Uiso   1.00
C916   C     0.70982   0.50953   0.61496   0.00000  Uiso   1.00
C917   C     0.97630   0.49802   0.95767   0.00000  Uiso   1.00
C918   C     0.69597   0.54133   0.54850   0.00000  Uiso   1.00
C919   C     0.99133   0.49634   0.91072   0.00000  Uiso   1.00
C920   C     0.67815   0.52759   0.59296   0.00000  Uiso   1.00
C921   C     0.90894   0.51117   0.90863   0.00000  Uiso   1.00
C922   C     0.75910   0.50501   0.59185   0.00000  Uiso   1.00
C923   C     0.89385   0.51671   0.95575   0.00000  Uiso   1.00
C924   C     0.77856   0.52222   0.54874   0.00000  Uiso   1.00
C925   C     0.92777   0.50748   0.98034   0.00000  Uiso   1.00
C926   C     0.74583   0.53829   0.52607   0.00000  Uiso   1.00
C927   C     0.84528   0.52828   0.97934   0.00000  Uiso   1.00
C928   C     0.82942   0.52217   0.52695   0.00000  Uiso   1.00
Cu929  Cu    0.71355   0.50001   0.75000   0.00000  Uiso   1.00
Cu930  Cu    0.95311   0.49999   0.75000   0.00000  Uiso   1.00
H931   H     0.93938   0.50261   0.54618   0.00000  Uiso   1.00
H932   H     0.73821   0.56581   0.96512   0.00000  Uiso   1.00
H933   H     0.78205   0.48805   0.60816   0.00000  Uiso   1.00
H934   H     0.88295   0.51199   0.88910   0.00000  Uiso   1.00
H935   H     0.97333   0.53202   0.61041   0.00000  Uiso   1.00
H936   H     0.69575   0.48937   0.89391   0.00000  Uiso   1.00
H937   H     0.66932   0.49185   0.97627   0.00000  Uiso   1.00
H938   H     0.67098   0.55515   0.53191   0.00000  Uiso   1.00
H939   H     0.92410   0.62935   0.75033   0.00000  Uiso   1.00
H940   H     0.74258   0.37064   0.74961   0.00000  Uiso   1.00
H941   H     0.77384   0.45660   0.80332   0.00000  Uiso   1.00
H942   H     0.89283   0.54339   0.69666   0.00000  Uiso   1.00
N943   N     0.78403   0.50001   0.74999   0.00000  Uiso   1.00
N944   N     0.88264   0.49999   0.75001   0.00000  Uiso   1.00
O945   O     0.70625   0.43989   0.75000   0.00000  Uiso   1.00
O946   O     0.96042   0.56011   0.75000   0.00000  Uiso   1.00
O947   O     0.96039   0.43988   0.75000   0.00000  Uiso   1.00
O948   O     0.70628   0.56012   0.74999   0.00000  Uiso   1.00
O949   O     0.68519   0.50001   0.81491   0.00000  Uiso   1.00
O950   O     0.98148   0.49999   0.68509   0.00000  Uiso   1.00
O951   O     0.93933   0.50000   0.81492   0.00000  Uiso   1.00
O952   O     0.72733   0.50000   0.68508   0.00000  Uiso   1.00
O953   O     0.85639   0.52369   0.59653   0.00000  Uiso   1.00
H954   H     0.83158   0.54574   0.60506   0.00000  Uiso   1.00
O955   O     0.82976   0.56420   0.91520   0.00000  Uiso   1.00
H956   H     0.80231   0.57606   0.90547   0.00000  Uiso   1.00
H957   H     0.92406   0.37060   0.75043   0.00000  Uiso   1.00
H958   H     0.74263   0.62939   0.74951   0.00000  Uiso   1.00
H959   H     0.86081   0.45652   0.80330   0.00000  Uiso   1.00
H960   H     0.80583   0.54353   0.69675   0.00000  Uiso   1.00
C961   C     0.33331   0.75402   0.75002   0.00000  Uiso   1.00
C962   C     0.00003   0.91264   0.74996   0.00000  Uiso   1.00
C963   C     0.19861   0.85009   0.55084   0.00000  Uiso   1.00
C964   C     0.14584   0.88034   0.95773   0.00000  Uiso   1.00
C965   C     0.24653   0.84157   0.52731   0.00000  Uiso   1.00
C966   C     0.09657   0.88513   0.98159   0.00000  Uiso   1.00
C967   C     0.29072   0.68793   0.75022   0.00000  Uiso   1.00
C968   C     0.04263   0.97873   0.74972   0.00000  Uiso   1.00
C969   C     0.29074   0.97870   0.75017   0.00000  Uiso   1.00
C970   C     0.04261   0.68796   0.74977   0.00000  Uiso   1.00
C971   C     0.00003   0.95726   0.74994   0.00000  Uiso   1.00
C972   C     0.33332   0.70940   0.75002   0.00000  Uiso   1.00
C973   C     0.18258   0.80923   0.77962   0.00000  Uiso   1.00
C974   C     0.15075   0.85745   0.72039   0.00000  Uiso   1.00
C975   C     0.13297   0.80926   0.77962   0.00000  Uiso   1.00
C976   C     0.20036   0.85741   0.72037   0.00000  Uiso   1.00
C977   C     0.30587   0.83345   0.83632   0.00000  Uiso   1.00
C978   C     0.02750   0.83456   0.66374   0.00000  Uiso   1.00
C979   C     0.29087   0.83562   0.88593   0.00000  Uiso   1.00
C980   C     0.04316   0.84286   0.61496   0.00000  Uiso   1.00
C981   C     0.30963   0.83135   0.95767   0.00000  Uiso   1.00
C982   C     0.02930   0.87467   0.54850   0.00000  Uiso   1.00
C983   C     0.32467   0.82967   0.91072   0.00000  Uiso   1.00
C984   C     0.01148   0.86093   0.59296   0.00000  Uiso   1.00
C985   C     0.24227   0.84450   0.90863   0.00000  Uiso   1.00
C986   C     0.09243   0.83834   0.59185   0.00000  Uiso   1.00
C987   C     0.22718   0.85004   0.95575   0.00000  Uiso   1.00
C988   C     0.11190   0.85555   0.54874   0.00000  Uiso   1.00
C989   C     0.26110   0.84081   0.98034   0.00000  Uiso   1.00
C990   C     0.07916   0.87162   0.52607   0.00000  Uiso   1.00
C991   C     0.17861   0.86161   0.97934   0.00000  Uiso   1.00
C992   C     0.16276   0.85550   0.52695   0.00000  Uiso   1.00
Cu993  Cu    0.04689   0.83334   0.75000   0.00000  Uiso   1.00
Cu994  Cu    0.28645   0.83333   0.75000   0.00000  Uiso   1.00
H995   H     0.27271   0.83594   0.54618   0.00000  Uiso   1.00
H996   H     0.07155   0.89915   0.96512   0.00000  Uiso   1.00
H997   H     0.11538   0.82138   0.60816   0.00000  Uiso   1.00
H998   H     0.21629   0.84532   0.88910   0.00000  Uiso   1.00
H999   H     0.30666   0.86536   0.61041   0.00000  Uiso   1.00
H1000  H     0.02909   0.82270   0.89391   0.00000  Uiso   1.00
H1001  H     0.00266   0.82518   0.97627   0.00000  Uiso   1.00
H1002  H     0.00432   0.88848   0.53191   0.00000  Uiso   1.00
H1003  H     0.25743   0.96268   0.75033   0.00000  Uiso   1.00
H1004  H     0.07592   0.70398   0.74961   0.00000  Uiso   1.00
H1005  H     0.10717   0.78994   0.80332   0.00000  Uiso   1.00
H1006  H     0.22616   0.87672   0.69666   0.00000  Uiso   1.00
N1007  N     0.11736   0.83334   0.74999   0.00000  Uiso   1.00
N1008  N     0.21597   0.83332   0.75001   0.00000  Uiso   1.00
O1009  O     0.03958   0.77322   0.75000   0.00000  Uiso   1.00
O1010  O     0.29375   0.89345   0.75000   0.00000  Uiso   1.00
O1011  O     0.29372   0.77321   0.75000   0.00000  Uiso   1.00
O1012  O     0.03961   0.89346   0.74999   0.00000  Uiso   1.00
O1013  O     0.01852   0.83334   0.81491   0.00000  Uiso   1.00
O1014  O     0.31481   0.83332   0.68509   0.00000  Uiso   1.00
O1015  O     0.27267   0.83333   0.81492   0.00000  Uiso   1.00
O1016  O     0.06067   0.83333   0.68508   0.00000  Uiso   1.00
O1017  O     0.18972   0.85702   0.59653   0.00000  Uiso   1.00
H1018  H     0.16492   0.87908   0.60506   0.00000  Uiso   1.00
O1019  O     0.16310   0.89753   0.91520   0.00000  Uiso   1.00
H1020  H     0.13564   0.90939   0.90547   0.00000  Uiso   1.00
H1021  H     0.25739   0.70393   0.75043   0.00000  Uiso   1.00
H1022  H     0.07596   0.96273   0.74951   0.00000  Uiso   1.00
H1023  H     0.19414   0.78986   0.80330   0.00000  Uiso   1.00
H1024  H     0.13916   0.87686   0.69675   0.00000  Uiso   1.00
C1025  C     0.66665   0.75402   0.75002   0.00000  Uiso   1.00
C1026  C     0.33336   0.91264   0.74996   0.00000  Uiso   1.00
C1027  C     0.53194   0.85009   0.55084   0.00000  Uiso   1.00
C1028  C     0.47917   0.88034   0.95773   0.00000  Uiso   1.00
C1029  C     0.57987   0.84157   0.52731   0.00000  Uiso   1.00
C1030  C     0.42990   0.88513   0.98159   0.00000  Uiso   1.00
C1031  C     0.62405   0.68793   0.75022   0.00000  Uiso   1.00
C1032  C     0.37597   0.97873   0.74972   0.00000  Uiso   1.00
C1033  C     0.62408   0.97870   0.75017   0.00000  Uiso   1.00
C1034  C     0.37594   0.68796   0.74977   0.00000  Uiso   1.00
C1035  C     0.33336   0.95726   0.74994   0.00000  Uiso   1.00
C1036  C     0.66665   0.70940   0.75002   0.00000  Uiso   1.00
C1037  C     0.51591   0.80923   0.77962   0.00000  Uiso   1.00
C1038  C     0.48408   0.85745   0.72039   0.00000  Uiso   1.00
C1039  C     0.46631   0.80926   0.77962   0.00000  Uiso   1.00
C1040  C     0.53369   0.85741   0.72037   0.00000  Uiso   1.00
C1041  C     0.63920   0.83345   0.83632   0.00000  Uiso   1.00
C1042  C     0.36083   0.83456   0.66374   0.00000  Uiso   1.00
C1043  C     0.62420   0.83562   0.88593   0.00000  Uiso   1.00
C1044  C     0.37649   0.84286   0.61496   0.00000  Uiso   1.00
C1045  C     0.64297   0.83135   0.95767   0.00000  Uiso   1.00
C1046  C     0.36264   0.87467   0.54850   0.00000  Uiso   1.00
C1047  C     0.65800   0.82967   0.91072   0.00000  Uiso   1.00
C1048  C     0.34482   0.86093   0.59296   0.00000  Uiso   1.00
C1049  C     0.57560   0.84450   0.90863   0.00000  Uiso   1.00
C1050  C     0.42577   0.83834   0.59185   0.00000  Uiso   1.00
C1051  C     0.56052   0.85004   0.95575   0.00000  Uiso   1.00
C1052  C     0.44523   0.85555   0.54874   0.00000  Uiso   1.00
C1053  C     0.59443   0.84081   0.98034   0.00000  Uiso   1.00
C1054  C     0.41249   0.87162   0.52607   0.00000  Uiso   1.00
C1055  C     0.51194   0.86161   0.97934   0.00000  Uiso   1.00
C1056  C     0.49609   0.85550   0.52695   0.00000  Uiso   1.00
Cu1057 Cu    0.38022   0.83334   0.75000   0.00000  Uiso   1.00
Cu1058 Cu    0.61978   0.83333   0.75000   0.00000  Uiso   1.00
H1059  H     0.60605   0.83594   0.54618   0.00000  Uiso   1.00
H1060  H     0.40488   0.89915   0.96512   0.00000  Uiso   1.00
H1061  H     0.44871   0.82138   0.60816   0.00000  Uiso   1.00
H1062  H     0.54962   0.84532   0.88910   0.00000  Uiso   1.00
H1063  H     0.63999   0.86536   0.61041   0.00000  Uiso   1.00
H1064  H     0.36242   0.82270   0.89391   0.00000  Uiso   1.00
H1065  H     0.33599   0.82518   0.97627   0.00000  Uiso   1.00
H1066  H     0.33765   0.88848   0.53191   0.00000  Uiso   1.00
H1067  H     0.59077   0.96268   0.75033   0.00000  Uiso   1.00
H1068  H     0.40925   0.70398   0.74961   0.00000  Uiso   1.00
H1069  H     0.44050   0.78994   0.80332   0.00000  Uiso   1.00
H1070  H     0.55949   0.87672   0.69666   0.00000  Uiso   1.00
N1071  N     0.45069   0.83334   0.74999   0.00000  Uiso   1.00
N1072  N     0.54931   0.83332   0.75001   0.00000  Uiso   1.00
O1073  O     0.37291   0.77322   0.75000   0.00000  Uiso   1.00
O1074  O     0.62709   0.89345   0.75000   0.00000  Uiso   1.00
O1075  O     0.62706   0.77321   0.75000   0.00000  Uiso   1.00
O1076  O     0.37294   0.89346   0.74999   0.00000  Uiso   1.00
O1077  O     0.35186   0.83334   0.81491   0.00000  Uiso   1.00
O1078  O     0.64814   0.83332   0.68509   0.00000  Uiso   1.00
O1079  O     0.60600   0.83333   0.81492   0.00000  Uiso   1.00
O1080  O     0.39400   0.83333   0.68508   0.00000  Uiso   1.00
O1081  O     0.52306   0.85702   0.59653   0.00000  Uiso   1.00
H1082  H     0.49825   0.87908   0.60506   0.00000  Uiso   1.00
O1083  O     0.49643   0.89753   0.91520   0.00000  Uiso   1.00
H1084  H     0.46897   0.90939   0.90547   0.00000  Uiso   1.00
H1085  H     0.59072   0.70393   0.75043   0.00000  Uiso   1.00
H1086  H     0.40929   0.96273   0.74951   0.00000  Uiso   1.00
H1087  H     0.52747   0.78986   0.80330   0.00000  Uiso   1.00
H1088  H     0.47250   0.87686   0.69675   0.00000  Uiso   1.00
C1089  C     0.99998   0.75402   0.75002   0.00000  Uiso   1.00
C1090  C     0.66669   0.91264   0.74996   0.00000  Uiso   1.00
C1091  C     0.86528   0.85009   0.55084   0.00000  Uiso   1.00
C1092  C     0.81250   0.88034   0.95773   0.00000  Uiso   1.00
C1093  C     0.91320   0.84157   0.52731   0.00000  Uiso   1.00
C1094  C     0.76323   0.88513   0.98159   0.00000  Uiso   1.00
C1095  C     0.95738   0.68793   0.75022   0.00000  Uiso   1.00
C1096  C     0.70930   0.97873   0.74972   0.00000  Uiso   1.00
C1097  C     0.95741   0.97870   0.75017   0.00000  Uiso   1.00
C1098  C     0.70927   0.68796   0.74977   0.00000  Uiso   1.00
C1099  C     0.66669   0.95726   0.74994   0.00000  Uiso   1.00
C1100  C     0.99999   0.70940   0.75002   0.00000  Uiso   1.00
C1101  C     0.84924   0.80923   0.77962   0.00000  Uiso   1.00
C1102  C     0.81742   0.85745   0.72039   0.00000  Uiso   1.00
C1103  C     0.79964   0.80926   0.77962   0.00000  Uiso   1.00
C1104  C     0.86703   0.85741   0.72037   0.00000  Uiso   1.00
C1105  C     0.97253   0.83345   0.83632   0.00000  Uiso   1.00
C1106  C     0.69417   0.83456   0.66374   0.00000  Uiso   1.00
C1107  C     0.95753   0.83562   0.88593   0.00000  Uiso   1.00
C1108  C     0.70982   0.84286   0.61496   0.00000  Uiso   1.00
C1109  C     0.97630   0.83135   0.95767   0.00000  Uiso   1.00
C1110  C     0.69597   0.87467   0.54850   0.00000  Uiso   1.00
C1111  C     0.99133   0.82967   0.91072   0.00000  Uiso   1.00
C1112  C     0.67815   0.86093   0.59296   0.00000  Uiso   1.00
C1113  C     0.90894   0.84450   0.90863   0.00000  Uiso   1.00
C1114  C     0.75910   0.83834   0.59185   0.00000  Uiso   1.00
C1115  C     0.89385   0.85004   0.95575   0.00000  Uiso   1.00
C1116  C     0.77856   0.85555   0.54874   0.00000  Uiso   1.00
C1117  C     0.92777   0.84081   0.98034   0.00000  Uiso   1.00
C1118  C     0.74583   0.87162   0.52607   0.00000  Uiso   1.00
C1119  C     0.84528   0.86161   0.97934   0.00000  Uiso   1.00
C1120  C     0.82942   0.85550   0.52695   0.00000  Uiso   1.00
Cu1121 Cu    0.71355   0.83334   0.75000   0.00000  Uiso   1.00
Cu1122 Cu    0.95311   0.83333   0.75000   0.00000  Uiso   1.00
H1123  H     0.93938   0.83594   0.54618   0.00000  Uiso   1.00
H1124  H     0.73821   0.89915   0.96512   0.00000  Uiso   1.00
H1125  H     0.78205   0.82138   0.60816   0.00000  Uiso   1.00
H1126  H     0.88295   0.84532   0.88910   0.00000  Uiso   1.00
H1127  H     0.97333   0.86536   0.61041   0.00000  Uiso   1.00
H1128  H     0.69575   0.82270   0.89391   0.00000  Uiso   1.00
H1129  H     0.66932   0.82518   0.97627   0.00000  Uiso   1.00
H1130  H     0.67098   0.88848   0.53191   0.00000  Uiso   1.00
H1131  H     0.92410   0.96268   0.75033   0.00000  Uiso   1.00
H1132  H     0.74258   0.70398   0.74961   0.00000  Uiso   1.00
H1133  H     0.77384   0.78994   0.80332   0.00000  Uiso   1.00
H1134  H     0.89283   0.87672   0.69666   0.00000  Uiso   1.00
N1135  N     0.78403   0.83334   0.74999   0.00000  Uiso   1.00
N1136  N     0.88264   0.83332   0.75001   0.00000  Uiso   1.00
O1137  O     0.70625   0.77322   0.75000   0.00000  Uiso   1.00
O1138  O     0.96042   0.89345   0.75000   0.00000  Uiso   1.00
O1139  O     0.96039   0.77321   0.75000   0.00000  Uiso   1.00
O1140  O     0.70628   0.89346   0.74999   0.00000  Uiso   1.00
O1141  O     0.68519   0.83334   0.81491   0.00000  Uiso   1.00
O1142  O     0.98148   0.83332   0.68509   0.00000  Uiso   1.00
O1143  O     0.93933   0.83333   0.81492   0.00000  Uiso   1.00
O1144  O     0.72733   0.83333   0.68508   0.00000  Uiso   1.00
O1145  O     0.85639   0.85702   0.59653   0.00000  Uiso   1.00
H1146  H     0.83158   0.87908   0.60506   0.00000  Uiso   1.00
O1147  O     0.82976   0.89753   0.91520   0.00000  Uiso   1.00
H1148  H     0.80231   0.90939   0.90547   0.00000  Uiso   1.00
H1149  H     0.92406   0.70393   0.75043   0.00000  Uiso   1.00
H1150  H     0.74263   0.96273   0.74951   0.00000  Uiso   1.00
H1151  H     0.86081   0.78986   0.80330   0.00000  Uiso   1.00
H1152  H     0.80583   0.87686   0.69675   0.00000  Uiso   1.00
loop_
_geom_bond_atom_site_label_1
_geom_bond_atom_site_label_2
_geom_bond_distance
_geom_bond_site_symmetry_2
_ccdc_geom_bond_type
C1     O51     1.292   .     A
C1     C12     1.450   .     S
C1     O113    1.292   .     S
C2     O52     1.292   .     A
C2     C11     1.450   .     S
C2     O178    1.291   1_455 S
C3     C5      1.388   .     A
C3     C32     1.428   .     A
C3     O57     1.379   .     S
C4     C6      1.404   .     A
C4     C31     1.426   .     A
C4     O59     1.382   .     S
C5     H35     1.082   .     S
C5     C605    1.391   1_554 S
C6     H36     1.085   .     S
C6     C606    1.392   .     S
C7     C12     1.401   .     A
C7     H61     1.083   .     S
C7     C393    1.384   1_545 S
C8     C11     1.401   .     A
C8     H62     1.083   .     S
C8     C202    1.384   .     S
C9     H43     1.083   .     S
C9     C199    1.384   .     S
C9     C75     1.401   .     S
C10    H44     1.083   .     S
C10    C392    1.384   1_545 S
C10    C140    1.401   1_455 S
C11    C137    1.401   1_455 S
C12    C74     1.401   .     S
C13    N48     1.367   .     A
C13    H63     1.082   .     S
C13    C15     1.417   .     A
C14    N47     1.367   .     A
C14    H64     1.082   .     S
C14    C16     1.417   .     A
C15    N47     1.367   .     A
C15    H45     1.082   .     S
C16    N48     1.367   .     A
C16    H46     1.082   .     S
C17    O55     1.296   .     A
C17    C19     1.471   .     S
C17    O117    1.296   .     S
C18    O56     1.295   .     A
C18    C20     1.469   .     S
C18    O182    1.297   1_455 S
C19    C23     1.400   .     A
C19    C25     1.401   .     A
C20    C24     1.400   .     A
C20    C26     1.398   .     A
C21    C29     1.403   .     A
C21    C23     1.392   .     A
C21    H105    1.084   .     S
C22    H42     1.083   .     S
C22    C24     1.395   .     A
C22    C30     1.404   .     A
C23    H104    1.083   .     S
C24    H167    1.083   1_455 S
C25    H38     1.078   .     S
C25    C27     1.407   .     A
C26    H37     1.080   .     S
C26    C28     1.405   .     A
C27    C29     1.417   .     A
C27    C31     1.427   .     A
C28    C30     1.413   .     A
C28    C32     1.422   .     A
C29    C581    1.391   .     S
C30    C582    1.392   1_554 S
C31    C608    1.424   .     S
C32    C607    1.424   1_554 S
Cu33   O56     1.929   .     S
Cu33   O52     1.965   .     S
Cu33   O53     1.939   .     S
Cu33   N47     2.013   .     S
Cu33   O49     1.965   .     S
Cu33   Cu162   2.678   1_455 S
Cu34   O51     1.965   .     S
Cu34   O55     1.929   .     S
Cu34   O54     1.939   .     S
Cu34   N48     2.013   .     S
Cu34   O50     1.965   .     S
Cu34   Cu97    2.678   .     S
H39    C88     1.083   .     S
H40    C151    1.083   1_455 S
H41    C149    1.084   1_455 S
O49    C129    1.292   1_455 S
O50    C66     1.291   .     S
O53    C145    1.296   1_455 S
O54    C82     1.297   .     S
O57    H58     0.991   .     S
O59    H60     0.992   .     S
C65    O115    1.292   .     A
C65    C76     1.450   .     S
C65    O177    1.292   .     S
C66    O116    1.292   .     A
C66    C75     1.450   .     S
C67    C69     1.388   .     A
C67    C96     1.428   .     A
C67    O121    1.379   .     S
C68    C70     1.404   .     A
C68    C95     1.426   .     A
C68    O123    1.382   .     S
C69    H99     1.082   .     S
C69    C669    1.391   1_554 S
C70    H100    1.085   .     S
C70    C670    1.392   .     S
C71    C76     1.401   .     A
C71    H125    1.083   .     S
C71    C457    1.384   1_545 S
C72    C75     1.401   .     A
C72    H126    1.083   .     S
C72    C266    1.384   .     S
C73    H107    1.083   .     S
C73    C263    1.384   .     S
C73    C139    1.401   .     S
C74    H108    1.083   .     S
C74    C456    1.384   1_545 S
C76    C138    1.401   .     S
C77    N112    1.367   .     A
C77    H127    1.082   .     S
C77    C79     1.417   .     A
C78    N111    1.367   .     A
C78    H128    1.082   .     S
C78    C80     1.417   .     A
C79    N111    1.367   .     A
C79    H109    1.082   .     S
C80    N112    1.367   .     A
C80    H110    1.082   .     S
C81    O119    1.296   .     A
C81    C83     1.471   .     S
C81    O181    1.296   .     S
C82    O120    1.295   .     A
C82    C84     1.469   .     S
C83    C87     1.400   .     A
C83    C89     1.401   .     A
C84    C88     1.400   .     A
C84    C90     1.398   .     A
C85    C93     1.403   .     A
C85    C87     1.392   .     A
C85    H169    1.084   .     S
C86    H106    1.083   .     S
C86    C88     1.395   .     A
C86    C94     1.404   .     A
C87    H168    1.083   .     S
C89    H102    1.078   .     S
C89    C91     1.407   .     A
C90    H101    1.080   .     S
C90    C92     1.405   .     A
C91    C93     1.417   .     A
C91    C95     1.427   .     A
C92    C94     1.413   .     A
C92    C96     1.422   .     A
C93    C645    1.391   .     S
C94    C646    1.392   1_554 S
C95    C672    1.424   .     S
C96    C671    1.424   1_554 S
Cu97   O120    1.929   .     S
Cu97   O116    1.965   .     S
Cu97   O117    1.939   .     S
Cu97   N111    2.013   .     S
Cu97   O113    1.965   .     S
Cu98   O115    1.965   .     S
Cu98   O119    1.929   .     S
Cu98   O118    1.939   .     S
Cu98   N112    2.013   .     S
Cu98   O114    1.965   .     S
Cu98   Cu161   2.678   .     S
H103   C152    1.083   .     S
O114   C130    1.291   .     S
O118   C146    1.297   .     S
O121   H122    0.991   .     S
O123   H124    0.992   .     S
C129   O179    1.292   .     A
C129   C140    1.450   .     S
C129   O49     1.292   1_655 S
C130   O180    1.292   .     A
C130   C139    1.450   .     S
C131   C133    1.388   .     A
C131   C160    1.428   .     A
C131   O185    1.379   .     S
C132   C134    1.404   .     A
C132   C159    1.426   .     A
C132   O187    1.382   .     S
C133   H163    1.082   .     S
C133   C733    1.391   1_554 S
C134   H164    1.085   .     S
C134   C734    1.392   .     S
C135   C140    1.401   .     A
C135   H189    1.083   .     S
C135   C521    1.384   1_545 S
C136   C139    1.401   .     A
C136   H190    1.083   .     S
C136   C330    1.384   .     S
C137   H171    1.083   .     S
C137   C327    1.384   .     S
C137   C11     1.401   1_655 S
C138   H172    1.083   .     S
C138   C520    1.384   1_545 S
C140   C10     1.401   1_655 S
C141   N176    1.367   .     A
C141   H191    1.082   .     S
C141   C143    1.417   .     A
C142   N175    1.367   .     A
C142   H192    1.082   .     S
C142   C144    1.417   .     A
C143   N175    1.367   .     A
C143   H173    1.082   .     S
C144   N176    1.367   .     A
C144   H174    1.082   .     S
C145   O183    1.296   .     A
C145   C147    1.471   .     S
C145   O53     1.296   1_655 S
C146   O184    1.295   .     A
C146   C148    1.469   .     S
C147   C151    1.400   .     A
C147   C153    1.401   .     A
C148   C152    1.400   .     A
C148   C154    1.398   .     A
C149   C157    1.403   .     A
C149   C151    1.392   .     A
C149   H41     1.084   1_655 S
C150   H170    1.083   .     S
C150   C152    1.395   .     A
C150   C158    1.404   .     A
C151   H40     1.083   1_655 S
C153   H166    1.078   .     S
C153   C155    1.407   .     A
C154   H165    1.080   .     S
C154   C156    1.405   .     A
C155   C157    1.417   .     A
C155   C159    1.427   .     A
C156   C158    1.413   .     A
C156   C160    1.422   .     A
C157   C709    1.391   .     S
C158   C710    1.392   1_554 S
C159   C736    1.424   .     S
C160   C735    1.424   1_554 S
Cu161  O184    1.929   .     S
Cu161  O180    1.965   .     S
Cu161  O181    1.939   .     S
Cu161  N175    2.013   .     S
Cu161  O177    1.965   .     S
Cu162  O179    1.965   .     S
Cu162  O183    1.929   .     S
Cu162  O182    1.939   .     S
Cu162  N176    2.013   .     S
Cu162  O178    1.965   .     S
Cu162  Cu33    2.678   1_655 S
H167   C24     1.083   1_655 S
O178   C2      1.291   1_655 S
O182   C18     1.297   1_655 S
O185   H186    0.991   .     S
O187   H188    0.992   .     S
C193   O243    1.292   .     A
C193   C204    1.450   .     S
C193   O305    1.292   .     S
C194   O244    1.292   .     A
C194   C203    1.450   .     S
C194   O370    1.291   1_455 S
C195   C197    1.388   .     A
C195   C224    1.428   .     A
C195   O249    1.379   .     S
C196   C198    1.404   .     A
C196   C223    1.426   .     A
C196   O251    1.382   .     S
C197   H227    1.082   .     S
C197   C797    1.391   1_554 S
C198   H228    1.085   .     S
C198   C798    1.392   .     S
C199   C204    1.401   .     A
C199   H253    1.083   .     S
C200   C203    1.401   .     A
C200   H254    1.083   .     S
C200   C394    1.384   .     S
C201   H235    1.083   .     S
C201   C391    1.384   .     S
C201   C267    1.401   .     S
C202   H236    1.083   .     S
C202   C332    1.401   1_455 S
C203   C329    1.401   1_455 S
C204   C266    1.401   .     S
C205   N240    1.367   .     A
C205   H255    1.082   .     S
C205   C207    1.417   .     A
C206   N239    1.367   .     A
C206   H256    1.082   .     S
C206   C208    1.417   .     A
C207   N239    1.367   .     A
C207   H237    1.082   .     S
C208   N240    1.367   .     A
C208   H238    1.082   .     S
C209   O247    1.296   .     A
C209   C211    1.471   .     S
C209   O309    1.296   .     S
C210   O248    1.295   .     A
C210   C212    1.469   .     S
C210   O374    1.297   1_455 S
C211   C215    1.400   .     A
C211   C217    1.401   .     A
C212   C216    1.400   .     A
C212   C218    1.398   .     A
C213   C221    1.403   .     A
C213   C215    1.392   .     A
C213   H297    1.084   .     S
C214   H234    1.083   .     S
C214   C216    1.395   .     A
C214   C222    1.404   .     A
C215   H296    1.083   .     S
C216   H359    1.083   1_455 S
C217   H230    1.078   .     S
C217   C219    1.407   .     A
C218   H229    1.080   .     S
C218   C220    1.405   .     A
C219   C221    1.417   .     A
C219   C223    1.427   .     A
C220   C222    1.413   .     A
C220   C224    1.422   .     A
C221   C773    1.391   .     S
C222   C774    1.392   1_554 S
C223   C800    1.424   .     S
C224   C799    1.424   1_554 S
Cu225  O248    1.929   .     S
Cu225  O244    1.965   .     S
Cu225  O245    1.939   .     S
Cu225  N239    2.013   .     S
Cu225  O241    1.965   .     S
Cu225  Cu354   2.678   1_455 S
Cu226  O243    1.965   .     S
Cu226  O247    1.929   .     S
Cu226  O246    1.939   .     S
Cu226  N240    2.013   .     S
Cu226  O242    1.965   .     S
Cu226  Cu289   2.678   .     S
H231   C280    1.083   .     S
H232   C343    1.083   1_455 S
H233   C341    1.084   1_455 S
O241   C321    1.292   1_455 S
O242   C258    1.291   .     S
O245   C337    1.296   1_455 S
O246   C274    1.297   .     S
O249   H250    0.991   .     S
O251   H252    0.992   .     S
C257   O307    1.292   .     A
C257   C268    1.450   .     S
C257   O369    1.292   .     S
C258   O308    1.292   .     A
C258   C267    1.450   .     S
C259   C261    1.388   .     A
C259   C288    1.428   .     A
C259   O313    1.379   .     S
C260   C262    1.404   .     A
C260   C287    1.426   .     A
C260   O315    1.382   .     S
C261   H291    1.082   .     S
C261   C861    1.391   1_554 S
C262   H292    1.085   .     S
C262   C862    1.392   .     S
C263   C268    1.401   .     A
C263   H317    1.083   .     S
C264   C267    1.401   .     A
C264   H318    1.083   .     S
C264   C458    1.384   .     S
C265   H299    1.083   .     S
C265   C455    1.384   .     S
C265   C331    1.401   .     S
C266   H300    1.083   .     S
C268   C330    1.401   .     S
C269   N304    1.367   .     A
C269   H319    1.082   .     S
C269   C271    1.417   .     A
C270   N303    1.367   .     A
C270   H320    1.082   .     S
C270   C272    1.417   .     A
C271   N303    1.367   .     A
C271   H301    1.082   .     S
C272   N304    1.367   .     A
C272   H302    1.082   .     S
C273   O311    1.296   .     A
C273   C275    1.471   .     S
C273   O373    1.296   .     S
C274   O312    1.295   .     A
C274   C276    1.469   .     S
C275   C279    1.400   .     A
C275   C281    1.401   .     A
C276   C280    1.400   .     A
C276   C282    1.398   .     A
C277   C285    1.403   .     A
C277   C279    1.392   .     A
C277   H361    1.084   .     S
C278   H298    1.083   .     S
C278   C280    1.395   .     A
C278   C286    1.404   .     A
C279   H360    1.083   .     S
C281   H294    1.078   .     S
C281   C283    1.407   .     A
C282   H293    1.080   .     S
C282   C284    1.405   .     A
C283   C285    1.417   .     A
C283   C287    1.427   .     A
C284   C286    1.413   .     A
C284   C288    1.422   .     A
C285   C837    1.391   .     S
C286   C838    1.392   1_554 S
C287   C864    1.424   .     S
C288   C863    1.424   1_554 S
Cu289  O312    1.929   .     S
Cu289  O308    1.965   .     S
Cu289  O309    1.939   .     S
Cu289  N303    2.013   .     S
Cu289  O305    1.965   .     S
Cu290  O307    1.965   .     S
Cu290  O311    1.929   .     S
Cu290  O310    1.939   .     S
Cu290  N304    2.013   .     S
Cu290  O306    1.965   .     S
Cu290  Cu353   2.678   .     S
H295   C344    1.083   .     S
O306   C322    1.291   .     S
O310   C338    1.297   .     S
O313   H314    0.991   .     S
O315   H316    0.992   .     S
C321   O371    1.292   .     A
C321   C332    1.450   .     S
C321   O241    1.292   1_655 S
C322   O372    1.292   .     A
C322   C331    1.450   .     S
C323   C325    1.388   .     A
C323   C352    1.428   .     A
C323   O377    1.379   .     S
C324   C326    1.404   .     A
C324   C351    1.426   .     A
C324   O379    1.382   .     S
C325   H355    1.082   .     S
C325   C925    1.391   1_554 S
C326   H356    1.085   .     S
C326   C926    1.392   .     S
C327   C332    1.401   .     A
C327   H381    1.083   .     S
C328   C331    1.401   .     A
C328   H382    1.083   .     S
C328   C522    1.384   .     S
C329   H363    1.083   .     S
C329   C519    1.384   .     S
C329   C203    1.401   1_655 S
C330   H364    1.083   .     S
C332   C202    1.401   1_655 S
C333   N368    1.367   .     A
C333   H383    1.082   .     S
C333   C335    1.417   .     A
C334   N367    1.367   .     A
C334   H384    1.082   .     S
C334   C336    1.417   .     A
C335   N367    1.367   .     A
C335   H365    1.082   .     S
C336   N368    1.367   .     A
C336   H366    1.082   .     S
C337   O375    1.296   .     A
C337   C339    1.471   .     S
C337   O245    1.296   1_655 S
C338   O376    1.295   .     A
C338   C340    1.469   .     S
C339   C343    1.400   .     A
C339   C345    1.401   .     A
C340   C344    1.400   .     A
C340   C346    1.398   .     A
C341   C349    1.403   .     A
C341   C343    1.392   .     A
C341   H233    1.084   1_655 S
C342   H362    1.083   .     S
C342   C344    1.395   .     A
C342   C350    1.404   .     A
C343   H232    1.083   1_655 S
C345   H358    1.078   .     S
C345   C347    1.407   .     A
C346   H357    1.080   .     S
C346   C348    1.405   .     A
C347   C349    1.417   .     A
C347   C351    1.427   .     A
C348   C350    1.413   .     A
C348   C352    1.422   .     A
C349   C901    1.391   .     S
C350   C902    1.392   1_554 S
C351   C928    1.424   .     S
C352   C927    1.424   1_554 S
Cu353  O376    1.929   .     S
Cu353  O372    1.965   .     S
Cu353  O373    1.939   .     S
Cu353  N367    2.013   .     S
Cu353  O369    1.965   .     S
Cu354  O371    1.965   .     S
Cu354  O375    1.929   .     S
Cu354  O374    1.939   .     S
Cu354  N368    2.013   .     S
Cu354  O370    1.965   .     S
Cu354  Cu225   2.678   1_655 S
H359   C216    1.083   1_655 S
O370   C194    1.291   1_655 S
O374   C210    1.297   1_655 S
O377   H378    0.991   .     S
O379   H380    0.992   .     S
C385   O435    1.292   .     A
C385   C396    1.450   .     S
C385   O497    1.292   .     S
C386   O436    1.292   .     A
C386   C395    1.450   .     S
C386   O562    1.291   1_455 S
C387   C389    1.388   .     A
C387   C416    1.428   .     A
C387   O441    1.379   .     S
C388   C390    1.404   .     A
C388   C415    1.426   .     A
C388   O443    1.382   .     S
C389   H419    1.082   .     S
C389   C989    1.391   1_554 S
C390   H420    1.085   .     S
C390   C990    1.392   .     S
C391   C396    1.401   .     A
C391   H445    1.083   .     S
C392   C395    1.401   .     A
C392   H446    1.083   .     S
C392   C10     1.384   1_565 S
C393   H427    1.083   .     S
C393   C7      1.384   1_565 S
C393   C459    1.401   .     S
C394   H428    1.083   .     S
C394   C524    1.401   1_455 S
C395   C521    1.401   1_455 S
C396   C458    1.401   .     S
C397   N432    1.367   .     A
C397   H447    1.082   .     S
C397   C399    1.417   .     A
C398   N431    1.367   .     A
C398   H448    1.082   .     S
C398   C400    1.417   .     A
C399   N431    1.367   .     A
C399   H429    1.082   .     S
C400   N432    1.367   .     A
C400   H430    1.082   .     S
C401   O439    1.296   .     A
C401   C403    1.471   .     S
C401   O501    1.296   .     S
C402   O440    1.295   .     A
C402   C404    1.469   .     S
C402   O566    1.297   1_455 S
C403   C407    1.400   .     A
C403   C409    1.401   .     A
C404   C408    1.400   .     A
C404   C410    1.398   .     A
C405   C413    1.403   .     A
C405   C407    1.392   .     A
C405   H489    1.084   .     S
C406   H426    1.083   .     S
C406   C408    1.395   .     A
C406   C414    1.404   .     A
C407   H488    1.083   .     S
C408   H551    1.083   1_455 S
C409   H422    1.078   .     S
C409   C411    1.407   .     A
C410   H421    1.080   .     S
C410   C412    1.405   .     A
C411   C413    1.417   .     A
C411   C415    1.427   .     A
C412   C414    1.413   .     A
C412   C416    1.422   .     A
C413   C965    1.391   .     S
C414   C966    1.392   1_554 S
C415   C992    1.424   .     S
C416   C991    1.424   1_554 S
Cu417  O440    1.929   .     S
Cu417  O436    1.965   .     S
Cu417  O437    1.939   .     S
Cu417  N431    2.013   .     S
Cu417  O433    1.965   .     S
Cu417  Cu546   2.678   1_455 S
Cu418  O435    1.965   .     S
Cu418  O439    1.929   .     S
Cu418  O438    1.939   .     S
Cu418  N432    2.013   .     S
Cu418  O434    1.965   .     S
Cu418  Cu481   2.678   .     S
H423   C472    1.083   .     S
H424   C535    1.083   1_455 S
H425   C533    1.084   1_455 S
O433   C513    1.292   1_455 S
O434   C450    1.291   .     S
O437   C529    1.296   1_455 S
O438   C466    1.297   .     S
O441   H442    0.991   .     S
O443   H444    0.992   .     S
C449   O499    1.292   .     A
C449   C460    1.450   .     S
C449   O561    1.292   .     S
C450   O500    1.292   .     A
C450   C459    1.450   .     S
C451   C453    1.388   .     A
C451   C480    1.428   .     A
C451   O505    1.379   .     S
C452   C454    1.404   .     A
C452   C479    1.426   .     A
C452   O507    1.382   .     S
C453   H483    1.082   .     S
C453   C1053   1.391   1_554 S
C454   H484    1.085   .     S
C454   C1054   1.392   .     S
C455   C460    1.401   .     A
C455   H509    1.083   .     S
C456   C459    1.401   .     A
C456   H510    1.083   .     S
C456   C74     1.384   1_565 S
C457   H491    1.083   .     S
C457   C71     1.384   1_565 S
C457   C523    1.401   .     S
C458   H492    1.083   .     S
C460   C522    1.401   .     S
C461   N496    1.367   .     A
C461   H511    1.082   .     S
C461   C463    1.417   .     A
C462   N495    1.367   .     A
C462   H512    1.082   .     S
C462   C464    1.417   .     A
C463   N495    1.367   .     A
C463   H493    1.082   .     S
C464   N496    1.367   .     A
C464   H494    1.082   .     S
C465   O503    1.296   .     A
C465   C467    1.471   .     S
C465   O565    1.296   .     S
C466   O504    1.295   .     A
C466   C468    1.469   .     S
C467   C471    1.400   .     A
C467   C473    1.401   .     A
C468   C472    1.400   .     A
C468   C474    1.398   .     A
C469   C477    1.403   .     A
C469   C471    1.392   .     A
C469   H553    1.084   .     S
C470   H490    1.083   .     S
C470   C472    1.395   .     A
C470   C478    1.404   .     A
C471   H552    1.083   .     S
C473   H486    1.078   .     S
C473   C475    1.407   .     A
C474   H485    1.080   .     S
C474   C476    1.405   .     A
C475   C477    1.417   .     A
C475   C479    1.427   .     A
C476   C478    1.413   .     A
C476   C480    1.422   .     A
C477   C1029   1.391   .     S
C478   C1030   1.392   1_554 S
C479   C1056   1.424   .     S
C480   C1055   1.424   1_554 S
Cu481  O504    1.929   .     S
Cu481  O500    1.965   .     S
Cu481  O501    1.939   .     S
Cu481  N495    2.013   .     S
Cu481  O497    1.965   .     S
Cu482  O499    1.965   .     S
Cu482  O503    1.929   .     S
Cu482  O502    1.939   .     S
Cu482  N496    2.013   .     S
Cu482  O498    1.965   .     S
Cu482  Cu545   2.678   .     S
H487   C536    1.083   .     S
O498   C514    1.291   .     S
O502   C530    1.297   .     S
O505   H506    0.991   .     S
O507   H508    0.992   .     S
C513   O563    1.292   .     A
C513   C524    1.450   .     S
C513   O433    1.292   1_655 S
C514   O564    1.292   .     A
C514   C523    1.450   .     S
C515   C517    1.388   .     A
C515   C544    1.428   .     A
C515   O569    1.379   .     S
C516   C518    1.404   .     A
C516   C543    1.426   .     A
C516   O571    1.382   .     S
C517   H547    1.082   .     S
C517   C1117   1.391   1_554 S
C518   H548    1.085   .     S
C518   C1118   1.392   .     S
C519   C524    1.401   .     A
C519   H573    1.083   .     S
C520   C523    1.401   .     A
C520   H574    1.083   .     S
C520   C138    1.384   1_565 S
C521   H555    1.083   .     S
C521   C135    1.384   1_565 S
C521   C395    1.401   1_655 S
C522   H556    1.083   .     S
C524   C394    1.401   1_655 S
C525   N560    1.367   .     A
C525   H575    1.082   .     S
C525   C527    1.417   .     A
C526   N559    1.367   .     A
C526   H576    1.082   .     S
C526   C528    1.417   .     A
C527   N559    1.367   .     A
C527   H557    1.082   .     S
C528   N560    1.367   .     A
C528   H558    1.082   .     S
C529   O567    1.296   .     A
C529   C531    1.471   .     S
C529   O437    1.296   1_655 S
C530   O568    1.295   .     A
C530   C532    1.469   .     S
C531   C535    1.400   .     A
C531   C537    1.401   .     A
C532   C536    1.400   .     A
C532   C538    1.398   .     A
C533   C541    1.403   .     A
C533   C535    1.392   .     A
C533   H425    1.084   1_655 S
C534   H554    1.083   .     S
C534   C536    1.395   .     A
C534   C542    1.404   .     A
C535   H424    1.083   1_655 S
C537   H550    1.078   .     S
C537   C539    1.407   .     A
C538   H549    1.080   .     S
C538   C540    1.405   .     A
C539   C541    1.417   .     A
C539   C543    1.427   .     A
C540   C542    1.413   .     A
C540   C544    1.422   .     A
C541   C1093   1.391   .     S
C542   C1094   1.392   1_554 S
C543   C1120   1.424   .     S
C544   C1119   1.424   1_554 S
Cu545  O568    1.929   .     S
Cu545  O564    1.965   .     S
Cu545  O565    1.939   .     S
Cu545  N559    2.013   .     S
Cu545  O561    1.965   .     S
Cu546  O563    1.965   .     S
Cu546  O567    1.929   .     S
Cu546  O566    1.939   .     S
Cu546  N560    2.013   .     S
Cu546  O562    1.965   .     S
Cu546  Cu417   2.678   1_655 S
H551   C408    1.083   1_655 S
O562   C386    1.291   1_655 S
O566   C402    1.297   1_655 S
O569   H570    0.991   .     S
O571   H572    0.992   .     S
C577   O627    1.292   .     A
C577   C588    1.450   .     S
C577   O689    1.292   .     S
C578   O628    1.292   .     A
C578   C587    1.450   .     S
C578   O754    1.291   1_455 S
C579   C581    1.388   .     A
C579   C608    1.428   .     A
C579   O633    1.379   .     S
C580   C582    1.404   .     A
C580   C607    1.426   .     A
C580   O635    1.382   .     S
C581   H611    1.082   .     S
C582   H612    1.085   .     S
C582   C30     1.392   1_556 S
C583   C588    1.401   .     A
C583   H637    1.083   .     S
C583   C969    1.384   1_545 S
C584   C587    1.401   .     A
C584   H638    1.083   .     S
C584   C778    1.384   .     S
C585   H619    1.083   .     S
C585   C775    1.384   .     S
C585   C651    1.401   .     S
C586   H620    1.083   .     S
C586   C968    1.384   1_545 S
C586   C716    1.401   1_455 S
C587   C713    1.401   1_455 S
C588   C650    1.401   .     S
C589   N624    1.367   .     A
C589   H639    1.082   .     S
C589   C591    1.417   .     A
C590   N623    1.367   .     A
C590   H640    1.082   .     S
C590   C592    1.417   .     A
C591   N623    1.367   .     A
C591   H621    1.082   .     S
C592   N624    1.367   .     A
C592   H622    1.082   .     S
C593   O631    1.296   .     A
C593   C595    1.471   .     S
C593   O693    1.296   .     S
C594   O632    1.295   .     A
C594   C596    1.469   .     S
C594   O758    1.297   1_455 S
C595   C599    1.400   .     A
C595   C601    1.401   .     A
C596   C600    1.400   .     A
C596   C602    1.398   .     A
C597   C605    1.403   .     A
C597   C599    1.392   .     A
C597   H681    1.084   .     S
C598   H618    1.083   .     S
C598   C600    1.395   .     A
C598   C606    1.404   .     A
C599   H680    1.083   .     S
C600   H743    1.083   1_455 S
C601   H614    1.078   .     S
C601   C603    1.407   .     A
C602   H613    1.080   .     S
C602   C604    1.405   .     A
C603   C605    1.417   .     A
C603   C607    1.427   .     A
C604   C606    1.413   .     A
C604   C608    1.422   .     A
C605   C5      1.391   1_556 S
C607   C32     1.424   1_556 S
Cu609  O632    1.929   .     S
Cu609  O628    1.965   .     S
Cu609  O629    1.939   .     S
Cu609  N623    2.013   .     S
Cu609  O625    1.965   .     S
Cu609  Cu738   2.678   1_455 S
Cu610  O627    1.965   .     S
Cu610  O631    1.929   .     S
Cu610  O630    1.939   .     S
Cu610  N624    2.013   .     S
Cu610  O626    1.965   .     S
Cu610  Cu673   2.678   .     S
H615   C664    1.083   .     S
H616   C727    1.083   1_455 S
H617   C725    1.084   1_455 S
O625   C705    1.292   1_455 S
O626   C642    1.291   .     S
O629   C721    1.296   1_455 S
O630   C658    1.297   .     S
O633   H634    0.991   .     S
O635   H636    0.992   .     S
C641   O691    1.292   .     A
C641   C652    1.450   .     S
C641   O753    1.292   .     S
C642   O692    1.292   .     A
C642   C651    1.450   .     S
C643   C645    1.388   .     A
C643   C672    1.428   .     A
C643   O697    1.379   .     S
C644   C646    1.404   .     A
C644   C671    1.426   .     A
C644   O699    1.382   .     S
C645   H675    1.082   .     S
C646   H676    1.085   .     S
C646   C94     1.392   1_556 S
C647   C652    1.401   .     A
C647   H701    1.083   .     S
C647   C1033   1.384   1_545 S
C648   C651    1.401   .     A
C648   H702    1.083   .     S
C648   C842    1.384   .     S
C649   H683    1.083   .     S
C649   C839    1.384   .     S
C649   C715    1.401   .     S
C650   H684    1.083   .     S
C650   C1032   1.384   1_545 S
C652   C714    1.401   .     S
C653   N688    1.367   .     A
C653   H703    1.082   .     S
C653   C655    1.417   .     A
C654   N687    1.367   .     A
C654   H704    1.082   .     S
C654   C656    1.417   .     A
C655   N687    1.367   .     A
C655   H685    1.082   .     S
C656   N688    1.367   .     A
C656   H686    1.082   .     S
C657   O695    1.296   .     A
C657   C659    1.471   .     S
C657   O757    1.296   .     S
C658   O696    1.295   .     A
C658   C660    1.469   .     S
C659   C663    1.400   .     A
C659   C665    1.401   .     A
C660   C664    1.400   .     A
C660   C666    1.398   .     A
C661   C669    1.403   .     A
C661   C663    1.392   .     A
C661   H745    1.084   .     S
C662   H682    1.083   .     S
C662   C664    1.395   .     A
C662   C670    1.404   .     A
C663   H744    1.083   .     S
C665   H678    1.078   .     S
C665   C667    1.407   .     A
C666   H677    1.080   .     S
C666   C668    1.405   .     A
C667   C669    1.417   .     A
C667   C671    1.427   .     A
C668   C670    1.413   .     A
C668   C672    1.422   .     A
C669   C69     1.391   1_556 S
C671   C96     1.424   1_556 S
Cu673  O696    1.929   .     S
Cu673  O692    1.965   .     S
Cu673  O693    1.939   .     S
Cu673  N687    2.013   .     S
Cu673  O689    1.965   .     S
Cu674  O691    1.965   .     S
Cu674  O695    1.929   .     S
Cu674  O694    1.939   .     S
Cu674  N688    2.013   .     S
Cu674  O690    1.965   .     S
Cu674  Cu737   2.678   .     S
H679   C728    1.083   .     S
O690   C706    1.291   .     S
O694   C722    1.297   .     S
O697   H698    0.991   .     S
O699   H700    0.992   .     S
C705   O755    1.292   .     A
C705   C716    1.450   .     S
C705   O625    1.292   1_655 S
C706   O756    1.292   .     A
C706   C715    1.450   .     S
C707   C709    1.388   .     A
C707   C736    1.428   .     A
C707   O761    1.379   .     S
C708   C710    1.404   .     A
C708   C735    1.426   .     A
C708   O763    1.382   .     S
C709   H739    1.082   .     S
C710   H740    1.085   .     S
C710   C158    1.392   1_556 S
C711   C716    1.401   .     A
C711   H765    1.083   .     S
C711   C1097   1.384   1_545 S
C712   C715    1.401   .     A
C712   H766    1.083   .     S
C712   C906    1.384   .     S
C713   H747    1.083   .     S
C713   C903    1.384   .     S
C713   C587    1.401   1_655 S
C714   H748    1.083   .     S
C714   C1096   1.384   1_545 S
C716   C586    1.401   1_655 S
C717   N752    1.367   .     A
C717   H767    1.082   .     S
C717   C719    1.417   .     A
C718   N751    1.367   .     A
C718   H768    1.082   .     S
C718   C720    1.417   .     A
C719   N751    1.367   .     A
C719   H749    1.082   .     S
C720   N752    1.367   .     A
C720   H750    1.082   .     S
C721   O759    1.296   .     A
C721   C723    1.471   .     S
C721   O629    1.296   1_655 S
C722   O760    1.295   .     A
C722   C724    1.469   .     S
C723   C727    1.400   .     A
C723   C729    1.401   .     A
C724   C728    1.400   .     A
C724   C730    1.398   .     A
C725   C733    1.403   .     A
C725   C727    1.392   .     A
C725   H617    1.084   1_655 S
C726   H746    1.083   .     S
C726   C728    1.395   .     A
C726   C734    1.404   .     A
C727   H616    1.083   1_655 S
C729   H742    1.078   .     S
C729   C731    1.407   .     A
C730   H741    1.080   .     S
C730   C732    1.405   .     A
C731   C733    1.417   .     A
C731   C735    1.427   .     A
C732   C734    1.413   .     A
C732   C736    1.422   .     A
C733   C133    1.391   1_556 S
C735   C160    1.424   1_556 S
Cu737  O760    1.929   .     S
Cu737  O756    1.965   .     S
Cu737  O757    1.939   .     S
Cu737  N751    2.013   .     S
Cu737  O753    1.965   .     S
Cu738  O755    1.965   .     S
Cu738  O759    1.929   .     S
Cu738  O758    1.939   .     S
Cu738  N752    2.013   .     S
Cu738  O754    1.965   .     S
Cu738  Cu609   2.678   1_655 S
H743   C600    1.083   1_655 S
O754   C578    1.291   1_655 S
O758   C594    1.297   1_655 S
O761   H762    0.991   .     S
O763   H764    0.992   .     S
C769   O819    1.292   .     A
C769   C780    1.450   .     S
C769   O881    1.292   .     S
C770   O820    1.292   .     A
C770   C779    1.450   .     S
C770   O946    1.291   1_455 S
C771   C773    1.388   .     A
C771   C800    1.428   .     A
C771   O825    1.379   .     S
C772   C774    1.404   .     A
C772   C799    1.426   .     A
C772   O827    1.382   .     S
C773   H803    1.082   .     S
C774   H804    1.085   .     S
C774   C222    1.392   1_556 S
C775   C780    1.401   .     A
C775   H829    1.083   .     S
C776   C779    1.401   .     A
C776   H830    1.083   .     S
C776   C970    1.384   .     S
C777   H811    1.083   .     S
C777   C967    1.384   .     S
C777   C843    1.401   .     S
C778   H812    1.083   .     S
C778   C908    1.401   1_455 S
C779   C905    1.401   1_455 S
C780   C842    1.401   .     S
C781   N816    1.367   .     A
C781   H831    1.082   .     S
C781   C783    1.417   .     A
C782   N815    1.367   .     A
C782   H832    1.082   .     S
C782   C784    1.417   .     A
C783   N815    1.367   .     A
C783   H813    1.082   .     S
C784   N816    1.367   .     A
C784   H814    1.082   .     S
C785   O823    1.296   .     A
C785   C787    1.471   .     S
C785   O885    1.296   .     S
C786   O824    1.295   .     A
C786   C788    1.469   .     S
C786   O950    1.297   1_455 S
C787   C791    1.400   .     A
C787   C793    1.401   .     A
C788   C792    1.400   .     A
C788   C794    1.398   .     A
C789   C797    1.403   .     A
C789   C791    1.392   .     A
C789   H873    1.084   .     S
C790   H810    1.083   .     S
C790   C792    1.395   .     A
C790   C798    1.404   .     A
C791   H872    1.083   .     S
C792   H935    1.083   1_455 S
C793   H806    1.078   .     S
C793   C795    1.407   .     A
C794   H805    1.080   .     S
C794   C796    1.405   .     A
C795   C797    1.417   .     A
C795   C799    1.427   .     A
C796   C798    1.413   .     A
C796   C800    1.422   .     A
C797   C197    1.391   1_556 S
C799   C224    1.424   1_556 S
Cu801  O824    1.929   .     S
Cu801  O820    1.965   .     S
Cu801  O821    1.939   .     S
Cu801  N815    2.013   .     S
Cu801  O817    1.965   .     S
Cu801  Cu930   2.678   1_455 S
Cu802  O819    1.965   .     S
Cu802  O823    1.929   .     S
Cu802  O822    1.939   .     S
Cu802  N816    2.013   .     S
Cu802  O818    1.965   .     S
Cu802  Cu865   2.678   .     S
H807   C856    1.083   .     S
H808   C919    1.083   1_455 S
H809   C917    1.084   1_455 S
O817   C897    1.292   1_455 S
O818   C834    1.291   .     S
O821   C913    1.296   1_455 S
O822   C850    1.297   .     S
O825   H826    0.991   .     S
O827   H828    0.992   .     S
C833   O883    1.292   .     A
C833   C844    1.450   .     S
C833   O945    1.292   .     S
C834   O884    1.292   .     A
C834   C843    1.450   .     S
C835   C837    1.388   .     A
C835   C864    1.428   .     A
C835   O889    1.379   .     S
C836   C838    1.404   .     A
C836   C863    1.426   .     A
C836   O891    1.382   .     S
C837   H867    1.082   .     S
C838   H868    1.085   .     S
C838   C286    1.392   1_556 S
C839   C844    1.401   .     A
C839   H893    1.083   .     S
C840   C843    1.401   .     A
C840   H894    1.083   .     S
C840   C1034   1.384   .     S
C841   H875    1.083   .     S
C841   C1031   1.384   .     S
C841   C907    1.401   .     S
C842   H876    1.083   .     S
C844   C906    1.401   .     S
C845   N880    1.367   .     A
C845   H895    1.082   .     S
C845   C847    1.417   .     A
C846   N879    1.367   .     A
C846   H896    1.082   .     S
C846   C848    1.417   .     A
C847   N879    1.367   .     A
C847   H877    1.082   .     S
C848   N880    1.367   .     A
C848   H878    1.082   .     S
C849   O887    1.296   .     A
C849   C851    1.471   .     S
C849   O949    1.296   .     S
C850   O888    1.295   .     A
C850   C852    1.469   .     S
C851   C855    1.400   .     A
C851   C857    1.401   .     A
C852   C856    1.400   .     A
C852   C858    1.398   .     A
C853   C861    1.403   .     A
C853   C855    1.392   .     A
C853   H937    1.084   .     S
C854   H874    1.083   .     S
C854   C856    1.395   .     A
C854   C862    1.404   .     A
C855   H936    1.083   .     S
C857   H870    1.078   .     S
C857   C859    1.407   .     A
C858   H869    1.080   .     S
C858   C860    1.405   .     A
C859   C861    1.417   .     A
C859   C863    1.427   .     A
C860   C862    1.413   .     A
C860   C864    1.422   .     A
C861   C261    1.391   1_556 S
C863   C288    1.424   1_556 S
Cu865  O888    1.929   .     S
Cu865  O884    1.965   .     S
Cu865  O885    1.939   .     S
Cu865  N879    2.013   .     S
Cu865  O881    1.965   .     S
Cu866  O883    1.965   .     S
Cu866  O887    1.929   .     S
Cu866  O886    1.939   .     S
Cu866  N880    2.013   .     S
Cu866  O882    1.965   .     S
Cu866  Cu929   2.678   .     S
H871   C920    1.083   .     S
O882   C898    1.291   .     S
O886   C914    1.297   .     S
O889   H890    0.991   .     S
O891   H892    0.992   .     S
C897   O947    1.292   .     A
C897   C908    1.450   .     S
C897   O817    1.292   1_655 S
C898   O948    1.292   .     A
C898   C907    1.450   .     S
C899   C901    1.388   .     A
C899   C928    1.428   .     A
C899   O953    1.379   .     S
C900   C902    1.404   .     A
C900   C927    1.426   .     A
C900   O955    1.382   .     S
C901   H931    1.082   .     S
C902   H932    1.085   .     S
C902   C350    1.392   1_556 S
C903   C908    1.401   .     A
C903   H957    1.083   .     S
C904   C907    1.401   .     A
C904   H958    1.083   .     S
C904   C1098   1.384   .     S
C905   H939    1.083   .     S
C905   C1095   1.384   .     S
C905   C779    1.401   1_655 S
C906   H940    1.083   .     S
C908   C778    1.401   1_655 S
C909   N944    1.367   .     A
C909   H959    1.082   .     S
C909   C911    1.417   .     A
C910   N943    1.367   .     A
C910   H960    1.082   .     S
C910   C912    1.417   .     A
C911   N943    1.367   .     A
C911   H941    1.082   .     S
C912   N944    1.367   .     A
C912   H942    1.082   .     S
C913   O951    1.296   .     A
C913   C915    1.471   .     S
C913   O821    1.296   1_655 S
C914   O952    1.295   .     A
C914   C916    1.469   .     S
C915   C919    1.400   .     A
C915   C921    1.401   .     A
C916   C920    1.400   .     A
C916   C922    1.398   .     A
C917   C925    1.403   .     A
C917   C919    1.392   .     A
C917   H809    1.084   1_655 S
C918   H938    1.083   .     S
C918   C920    1.395   .     A
C918   C926    1.404   .     A
C919   H808    1.083   1_655 S
C921   H934    1.078   .     S
C921   C923    1.407   .     A
C922   H933    1.080   .     S
C922   C924    1.405   .     A
C923   C925    1.417   .     A
C923   C927    1.427   .     A
C924   C926    1.413   .     A
C924   C928    1.422   .     A
C925   C325    1.391   1_556 S
C927   C352    1.424   1_556 S
Cu929  O952    1.929   .     S
Cu929  O948    1.965   .     S
Cu929  O949    1.939   .     S
Cu929  N943    2.013   .     S
Cu929  O945    1.965   .     S
Cu930  O947    1.965   .     S
Cu930  O951    1.929   .     S
Cu930  O950    1.939   .     S
Cu930  N944    2.013   .     S
Cu930  O946    1.965   .     S
Cu930  Cu801   2.678   1_655 S
H935   C792    1.083   1_655 S
O946   C770    1.291   1_655 S
O950   C786    1.297   1_655 S
O953   H954    0.991   .     S
O955   H956    0.992   .     S
C961   O1011   1.292   .     A
C961   C972    1.450   .     S
C961   O1073   1.292   .     S
C962   O1012   1.292   .     A
C962   C971    1.450   .     S
C962   O1138   1.291   1_455 S
C963   C965    1.388   .     A
C963   C992    1.428   .     A
C963   O1017   1.379   .     S
C964   C966    1.404   .     A
C964   C991    1.426   .     A
C964   O1019   1.382   .     S
C965   H995    1.082   .     S
C966   H996    1.085   .     S
C966   C414    1.392   1_556 S
C967   C972    1.401   .     A
C967   H1021   1.083   .     S
C968   C971    1.401   .     A
C968   H1022   1.083   .     S
C968   C586    1.384   1_565 S
C969   H1003   1.083   .     S
C969   C583    1.384   1_565 S
C969   C1035   1.401   .     S
C970   H1004   1.083   .     S
C970   C1100   1.401   1_455 S
C971   C1097   1.401   1_455 S
C972   C1034   1.401   .     S
C973   N1008   1.367   .     A
C973   H1023   1.082   .     S
C973   C975    1.417   .     A
C974   N1007   1.367   .     A
C974   H1024   1.082   .     S
C974   C976    1.417   .     A
C975   N1007   1.367   .     A
C975   H1005   1.082   .     S
C976   N1008   1.367   .     A
C976   H1006   1.082   .     S
C977   O1015   1.296   .     A
C977   C979    1.471   .     S
C977   O1077   1.296   .     S
C978   O1016   1.295   .     A
C978   C980    1.469   .     S
C978   O1142   1.297   1_455 S
C979   C983    1.400   .     A
C979   C985    1.401   .     A
C980   C984    1.400   .     A
C980   C986    1.398   .     A
C981   C989    1.403   .     A
C981   C983    1.392   .     A
C981   H1065   1.084   .     S
C982   H1002   1.083   .     S
C982   C984    1.395   .     A
C982   C990    1.404   .     A
C983   H1064   1.083   .     S
C984   H1127   1.083   1_455 S
C985   H998    1.078   .     S
C985   C987    1.407   .     A
C986   H997    1.080   .     S
C986   C988    1.405   .     A
C987   C989    1.417   .     A
C987   C991    1.427   .     A
C988   C990    1.413   .     A
C988   C992    1.422   .     A
C989   C389    1.391   1_556 S
C991   C416    1.424   1_556 S
Cu993  O1016   1.929   .     S
Cu993  O1012   1.965   .     S
Cu993  O1013   1.939   .     S
Cu993  N1007   2.013   .     S
Cu993  O1009   1.965   .     S
Cu993  Cu1122  2.678   1_455 S
Cu994  O1011   1.965   .     S
Cu994  O1015   1.929   .     S
Cu994  O1014   1.939   .     S
Cu994  N1008   2.013   .     S
Cu994  O1010   1.965   .     S
Cu994  Cu1057  2.678   .     S
H999   C1048   1.083   .     S
H1000  C1111   1.083   1_455 S
H1001  C1109   1.084   1_455 S
O1009  C1089   1.292   1_455 S
O1010  C1026   1.291   .     S
O1013  C1105   1.296   1_455 S
O1014  C1042   1.297   .     S
O1017  H1018   0.991   .     S
O1019  H1020   0.992   .     S
C1025  O1075   1.292   .     A
C1025  C1036   1.450   .     S
C1025  O1137   1.292   .     S
C1026  O1076   1.292   .     A
C1026  C1035   1.450   .     S
C1027  C1029   1.388   .     A
C1027  C1056   1.428   .     A
C1027  O1081   1.379   .     S
C1028  C1030   1.404   .     A
C1028  C1055   1.426   .     A
C1028  O1083   1.382   .     S
C1029  H1059   1.082   .     S
C1030  H1060   1.085   .     S
C1030  C478    1.392   1_556 S
C1031  C1036   1.401   .     A
C1031  H1085   1.083   .     S
C1032  C1035   1.401   .     A
C1032  H1086   1.083   .     S
C1032  C650    1.384   1_565 S
C1033  H1067   1.083   .     S
C1033  C647    1.384   1_565 S
C1033  C1099   1.401   .     S
C1034  H1068   1.083   .     S
C1036  C1098   1.401   .     S
C1037  N1072   1.367   .     A
C1037  H1087   1.082   .     S
C1037  C1039   1.417   .     A
C1038  N1071   1.367   .     A
C1038  H1088   1.082   .     S
C1038  C1040   1.417   .     A
C1039  N1071   1.367   .     A
C1039  H1069   1.082   .     S
C1040  N1072   1.367   .     A
C1040  H1070   1.082   .     S
C1041  O1079   1.296   .     A
C1041  C1043   1.471   .     S
C1041  O1141   1.296   .     S
C1042  O1080   1.295   .     A
C1042  C1044   1.469   .     S
C1043  C1047   1.400   .     A
C1043  C1049   1.401   .     A
C1044  C1048   1.400   .     A
C1044  C1050   1.398   .     A
C1045  C1053   1.403   .     A
C1045  C1047   1.392   .     A
C1045  H1129   1.084   .     S
C1046  H1066   1.083   .     S
C1046  C1048   1.395   .     A
C1046  C1054   1.404   .     A
C1047  H1128   1.083   .     S
C1049  H1062   1.078   .     S
C1049  C1051   1.407   .     A
C1050  H1061   1.080   .     S
C1050  C1052   1.405   .     A
C1051  C1053   1.417   .     A
C1051  C1055   1.427   .     A
C1052  C1054   1.413   .     A
C1052  C1056   1.422   .     A
C1053  C453    1.391   1_556 S
C1055  C480    1.424   1_556 S
Cu1057 O1080   1.929   .     S
Cu1057 O1076   1.965   .     S
Cu1057 O1077   1.939   .     S
Cu1057 N1071   2.013   .     S
Cu1057 O1073   1.965   .     S
Cu1058 O1075   1.965   .     S
Cu1058 O1079   1.929   .     S
Cu1058 O1078   1.939   .     S
Cu1058 N1072   2.013   .     S
Cu1058 O1074   1.965   .     S
Cu1058 Cu1121  2.678   .     S
H1063  C1112   1.083   .     S
O1074  C1090   1.291   .     S
O1078  C1106   1.297   .     S
O1081  H1082   0.991   .     S
O1083  H1084   0.992   .     S
C1089  O1139   1.292   .     A
C1089  C1100   1.450   .     S
C1089  O1009   1.292   1_655 S
C1090  O1140   1.292   .     A
C1090  C1099   1.450   .     S
C1091  C1093   1.388   .     A
C1091  C1120   1.428   .     A
C1091  O1145   1.379   .     S
C1092  C1094   1.404   .     A
C1092  C1119   1.426   .     A
C1092  O1147   1.382   .     S
C1093  H1123   1.082   .     S
C1094  H1124   1.085   .     S
C1094  C542    1.392   1_556 S
C1095  C1100   1.401   .     A
C1095  H1149   1.083   .     S
C1096  C1099   1.401   .     A
C1096  H1150   1.083   .     S
C1096  C714    1.384   1_565 S
C1097  H1131   1.083   .     S
C1097  C711    1.384   1_565 S
C1097  C971    1.401   1_655 S
C1098  H1132   1.083   .     S
C1100  C970    1.401   1_655 S
C1101  N1136   1.367   .     A
C1101  H1151   1.082   .     S
C1101  C1103   1.417   .     A
C1102  N1135   1.367   .     A
C1102  H1152   1.082   .     S
C1102  C1104   1.417   .     A
C1103  N1135   1.367   .     A
C1103  H1133   1.082   .     S
C1104  N1136   1.367   .     A
C1104  H1134   1.082   .     S
C1105  O1143   1.296   .     A
C1105  C1107   1.471   .     S
C1105  O1013   1.296   1_655 S
C1106  O1144   1.295   .     A
C1106  C1108   1.469   .     S
C1107  C1111   1.400   .     A
C1107  C1113   1.401   .     A
C1108  C1112   1.400   .     A
C1108  C1114   1.398   .     A
C1109  C1117   1.403   .     A
C1109  C1111   1.392   .     A
C1109  H1001   1.084   1_655 S
C1110  H1130   1.083   .     S
C1110  C1112   1.395   .     A
C1110  C1118   1.404   .     A
C1111  H1000   1.083   1_655 S
C1113  H1126   1.078   .     S
C1113  C1115   1.407   .     A
C1114  H1125   1.080   .     S
C1114  C1116   1.405   .     A
C1115  C1117   1.417   .     A
C1115  C1119   1.427   .     A
C1116  C1118   1.413   .     A
C1116  C1120   1.422   .     A
C1117  C517    1.391   1_556 S
C1119  C544    1.424   1_556 S
Cu1121 O1144   1.929   .     S
Cu1121 O1140   1.965   .     S
Cu1121 O1141   1.939   .     S
Cu1121 N1135   2.013   .     S
Cu1121 O1137   1.965   .     S
Cu1122 O1139   1.965   .     S
Cu1122 O1143   1.929   .     S
Cu1122 O1142   1.939   .     S
Cu1122 N1136   2.013   .     S
Cu1122 O1138   1.965   .     S
Cu1122 Cu993   2.678   1_655 S
H1127  C984    1.083   1_655 S
O1138  C962    1.291   1_655 S
O1142  C978    1.297   1_655 S
O1145  H1146   0.991   .     S
O1147  H1148   0.992   .     S
