data_str_m2_o10_o17_pcu_sym.81
_audit_creation_date              2020-01-03
_audit_creation_method            'Materials Studio'
_symmetry_space_group_name_H-M    'P1'
_symmetry_Int_Tables_number       1
_symmetry_cell_setting            triclinic
loop_
_symmetry_equiv_pos_as_xyz
  x,y,z
_cell_length_a                    29.9125
_cell_length_b                    26.1207
_cell_length_c                    22.3131
_cell_angle_alpha                 102.3711
_cell_angle_beta                  93.8083
_cell_angle_gamma                 92.4779
loop_
_atom_site_label
_atom_site_type_symbol
_atom_site_fract_x
_atom_site_fract_y
_atom_site_fract_z
_atom_site_U_iso_or_equiv
_atom_site_adp_type
_atom_site_occupancy
C1     C     0.24717   0.06683   0.15168   0.00000  Uiso   1.00
C2     C     0.09061   0.11985   0.14287   0.00000  Uiso   1.00
C3     C     0.38351   0.16767   0.16340   0.00000  Uiso   1.00
C4     C     0.11649   0.16566   0.16994   0.00000  Uiso   1.00
C5     C     0.40332   0.12217   0.13600   0.00000  Uiso   1.00
C6     C     0.09668   0.21116   0.19733   0.00000  Uiso   1.00
C7     C     0.44987   0.12131   0.13799   0.00000  Uiso   1.00
C8     C     0.05013   0.21202   0.19534   0.00000  Uiso   1.00
C9     C     0.47656   0.16742   0.16524   0.00000  Uiso   1.00
C10    C     0.02344   0.16592   0.16809   0.00000  Uiso   1.00
C11    C     0.45625   0.21487   0.18963   0.00000  Uiso   1.00
C12    C     0.25283   0.26650   0.18165   0.00000  Uiso   1.00
C13    C     0.04375   0.11846   0.14370   0.00000  Uiso   1.00
C14    C     0.46984   0.07446   0.11491   0.00000  Uiso   1.00
C15    C     0.03016   0.25887   0.21842   0.00000  Uiso   1.00
C16    C     0.03512   0.01932   0.10070   0.00000  Uiso   1.00
C17    C     0.46488   0.31401   0.23263   0.00000  Uiso   1.00
C18    C     0.19939   0.31999   0.10381   0.00000  Uiso   1.00
C19    C     0.30060   0.01335   0.22953   0.00000  Uiso   1.00
C20    C     0.01655   0.07185   0.11907   0.00000  Uiso   1.00
C21    C     0.48344   0.26148   0.21426   0.00000  Uiso   1.00
C22    C     0.23884   0.01173   0.14634   0.00000  Uiso   1.00
C23    C     0.26115   0.32160   0.18699   0.00000  Uiso   1.00
C24    C     0.16455   0.16637   0.16767   0.00000  Uiso   1.00
C25    C     0.33545   0.16696   0.16567   0.00000  Uiso   1.00
C26    C     0.40939   0.21348   0.19046   0.00000  Uiso   1.00
Cu27   Cu    0.25500   0.17246   0.22813   0.00000  Uiso   1.00
Cu28   Cu    0.24499   0.16087   0.10521   0.00000  Uiso   1.00
H29    H     0.39242   0.24727   0.21286   0.00000  Uiso   1.00
H30    H     0.41958   0.03145   0.21474   0.00000  Uiso   1.00
H31    H     0.16548   0.31146   0.02067   0.00000  Uiso   1.00
H32    H     0.33450   0.02189   0.31269   0.00000  Uiso   1.00
H33    H     0.10758   0.08606   0.12048   0.00000  Uiso   1.00
H34    H     0.38242   0.08694   0.11559   0.00000  Uiso   1.00
H35    H     0.11758   0.24639   0.21775   0.00000  Uiso   1.00
H36    H     0.44875   0.03914   0.09572   0.00000  Uiso   1.00
H37    H     0.05125   0.29419   0.23762   0.00000  Uiso   1.00
H38    H     0.21526   0.12593   0.31632   0.00000  Uiso   1.00
H39    H     0.28474   0.20740   0.01701   0.00000  Uiso   1.00
H40    H     0.08042   0.30188   0.11859   0.00000  Uiso   1.00
N41    N     0.23744   0.15214   0.01284   0.00000  Uiso   1.00
N42    N     0.26255   0.18119   0.32049   0.00000  Uiso   1.00
O43    O     0.25325   0.09538   0.20659   0.00000  Uiso   1.00
O44    O     0.07195   0.00586   0.13484   0.00000  Uiso   1.00
O45    O     0.48328   0.01329   0.27586   0.00000  Uiso   1.00
O46    O     0.42805   0.32747   0.19850   0.00000  Uiso   1.00
O47    O     0.17138   0.29197   0.12108   0.00000  Uiso   1.00
O48    O     0.19361   0.33015   0.04482   0.00000  Uiso   1.00
O49    O     0.32862   0.04135   0.21225   0.00000  Uiso   1.00
O50    O     0.30637   0.00321   0.28852   0.00000  Uiso   1.00
O51    O     0.24674   0.23796   0.12674   0.00000  Uiso   1.00
O52    O     0.24480   0.08559   0.10279   0.00000  Uiso   1.00
O53    O     0.25520   0.24774   0.23055   0.00000  Uiso   1.00
O54    O     0.18935   0.17155   0.21857   0.00000  Uiso   1.00
O55    O     0.31064   0.16179   0.11476   0.00000  Uiso   1.00
O56    O     0.18090   0.16176   0.11477   0.00000  Uiso   1.00
O57    O     0.31910   0.17157   0.21857   0.00000  Uiso   1.00
O58    O     0.01672   0.32004   0.05747   0.00000  Uiso   1.00
C59    C     0.74717   0.06683   0.15168   0.00000  Uiso   1.00
C60    C     0.59061   0.11985   0.14287   0.00000  Uiso   1.00
C61    C     0.88351   0.16767   0.16340   0.00000  Uiso   1.00
C62    C     0.61649   0.16566   0.16994   0.00000  Uiso   1.00
C63    C     0.90332   0.12217   0.13600   0.00000  Uiso   1.00
C64    C     0.59668   0.21116   0.19733   0.00000  Uiso   1.00
C65    C     0.94987   0.12131   0.13799   0.00000  Uiso   1.00
C66    C     0.55013   0.21202   0.19534   0.00000  Uiso   1.00
C67    C     0.97656   0.16742   0.16524   0.00000  Uiso   1.00
C68    C     0.52344   0.16592   0.16809   0.00000  Uiso   1.00
C69    C     0.95625   0.21487   0.18963   0.00000  Uiso   1.00
C70    C     0.75283   0.26650   0.18165   0.00000  Uiso   1.00
C71    C     0.54375   0.11846   0.14370   0.00000  Uiso   1.00
C72    C     0.96984   0.07446   0.11491   0.00000  Uiso   1.00
C73    C     0.53016   0.25887   0.21842   0.00000  Uiso   1.00
C74    C     0.53512   0.01932   0.10070   0.00000  Uiso   1.00
C75    C     0.96488   0.31401   0.23263   0.00000  Uiso   1.00
C76    C     0.69939   0.31999   0.10381   0.00000  Uiso   1.00
C77    C     0.80060   0.01335   0.22953   0.00000  Uiso   1.00
C78    C     0.51655   0.07185   0.11907   0.00000  Uiso   1.00
C79    C     0.98344   0.26148   0.21426   0.00000  Uiso   1.00
C80    C     0.73884   0.01173   0.14634   0.00000  Uiso   1.00
C81    C     0.76115   0.32160   0.18699   0.00000  Uiso   1.00
C82    C     0.66455   0.16637   0.16767   0.00000  Uiso   1.00
C83    C     0.83545   0.16696   0.16567   0.00000  Uiso   1.00
C84    C     0.90939   0.21348   0.19046   0.00000  Uiso   1.00
Cu85   Cu    0.75500   0.17246   0.22813   0.00000  Uiso   1.00
Cu86   Cu    0.74499   0.16087   0.10521   0.00000  Uiso   1.00
H87    H     0.89242   0.24727   0.21286   0.00000  Uiso   1.00
H88    H     0.91958   0.03145   0.21474   0.00000  Uiso   1.00
H89    H     0.66548   0.31146   0.02067   0.00000  Uiso   1.00
H90    H     0.83450   0.02189   0.31269   0.00000  Uiso   1.00
H91    H     0.60758   0.08606   0.12048   0.00000  Uiso   1.00
H92    H     0.88242   0.08694   0.11559   0.00000  Uiso   1.00
H93    H     0.61758   0.24639   0.21775   0.00000  Uiso   1.00
H94    H     0.94875   0.03914   0.09572   0.00000  Uiso   1.00
H95    H     0.55125   0.29419   0.23762   0.00000  Uiso   1.00
H96    H     0.71526   0.12593   0.31632   0.00000  Uiso   1.00
H97    H     0.78474   0.20740   0.01701   0.00000  Uiso   1.00
H98    H     0.58042   0.30188   0.11859   0.00000  Uiso   1.00
N99    N     0.73744   0.15214   0.01284   0.00000  Uiso   1.00
N100   N     0.76255   0.18119   0.32049   0.00000  Uiso   1.00
O101   O     0.75325   0.09538   0.20659   0.00000  Uiso   1.00
O102   O     0.57195   0.00586   0.13484   0.00000  Uiso   1.00
O103   O     0.98328   0.01329   0.27586   0.00000  Uiso   1.00
O104   O     0.92805   0.32747   0.19850   0.00000  Uiso   1.00
O105   O     0.67138   0.29197   0.12108   0.00000  Uiso   1.00
O106   O     0.69361   0.33015   0.04482   0.00000  Uiso   1.00
O107   O     0.82862   0.04135   0.21225   0.00000  Uiso   1.00
O108   O     0.80637   0.00321   0.28852   0.00000  Uiso   1.00
O109   O     0.74674   0.23796   0.12674   0.00000  Uiso   1.00
O110   O     0.74480   0.08559   0.10279   0.00000  Uiso   1.00
O111   O     0.75520   0.24774   0.23055   0.00000  Uiso   1.00
O112   O     0.68935   0.17155   0.21857   0.00000  Uiso   1.00
O113   O     0.81064   0.16179   0.11476   0.00000  Uiso   1.00
O114   O     0.68090   0.16176   0.11477   0.00000  Uiso   1.00
O115   O     0.81910   0.17157   0.21857   0.00000  Uiso   1.00
O116   O     0.51672   0.32004   0.05747   0.00000  Uiso   1.00
C117   C     0.24717   0.40017   0.15168   0.00000  Uiso   1.00
C118   C     0.09061   0.45318   0.14287   0.00000  Uiso   1.00
C119   C     0.38351   0.50101   0.16340   0.00000  Uiso   1.00
C120   C     0.11649   0.49899   0.16994   0.00000  Uiso   1.00
C121   C     0.40332   0.45551   0.13600   0.00000  Uiso   1.00
C122   C     0.09668   0.54449   0.19733   0.00000  Uiso   1.00
C123   C     0.44987   0.45465   0.13799   0.00000  Uiso   1.00
C124   C     0.05013   0.54535   0.19534   0.00000  Uiso   1.00
C125   C     0.47656   0.50075   0.16524   0.00000  Uiso   1.00
C126   C     0.02344   0.49925   0.16809   0.00000  Uiso   1.00
C127   C     0.45625   0.54820   0.18963   0.00000  Uiso   1.00
C128   C     0.25283   0.59983   0.18165   0.00000  Uiso   1.00
C129   C     0.04375   0.45180   0.14370   0.00000  Uiso   1.00
C130   C     0.46984   0.40779   0.11491   0.00000  Uiso   1.00
C131   C     0.03016   0.59221   0.21842   0.00000  Uiso   1.00
C132   C     0.03512   0.35266   0.10070   0.00000  Uiso   1.00
C133   C     0.46488   0.64734   0.23263   0.00000  Uiso   1.00
C134   C     0.19939   0.65332   0.10381   0.00000  Uiso   1.00
C135   C     0.30060   0.34668   0.22953   0.00000  Uiso   1.00
C136   C     0.01655   0.40519   0.11907   0.00000  Uiso   1.00
C137   C     0.48344   0.59481   0.21426   0.00000  Uiso   1.00
C138   C     0.23884   0.34506   0.14634   0.00000  Uiso   1.00
C139   C     0.26115   0.65494   0.18699   0.00000  Uiso   1.00
C140   C     0.16455   0.49970   0.16767   0.00000  Uiso   1.00
C141   C     0.33545   0.50030   0.16567   0.00000  Uiso   1.00
C142   C     0.40939   0.54682   0.19046   0.00000  Uiso   1.00
Cu143  Cu    0.25500   0.50579   0.22813   0.00000  Uiso   1.00
Cu144  Cu    0.24499   0.49421   0.10521   0.00000  Uiso   1.00
H145   H     0.39242   0.58060   0.21286   0.00000  Uiso   1.00
H146   H     0.41958   0.36479   0.21474   0.00000  Uiso   1.00
H147   H     0.16548   0.64480   0.02067   0.00000  Uiso   1.00
H148   H     0.33450   0.35522   0.31269   0.00000  Uiso   1.00
H149   H     0.10758   0.41940   0.12048   0.00000  Uiso   1.00
H150   H     0.38242   0.42027   0.11559   0.00000  Uiso   1.00
H151   H     0.11758   0.57973   0.21775   0.00000  Uiso   1.00
H152   H     0.44875   0.37247   0.09572   0.00000  Uiso   1.00
H153   H     0.05125   0.62753   0.23762   0.00000  Uiso   1.00
H154   H     0.21526   0.45926   0.31632   0.00000  Uiso   1.00
H155   H     0.28474   0.54074   0.01701   0.00000  Uiso   1.00
H156   H     0.08042   0.63521   0.11859   0.00000  Uiso   1.00
N157   N     0.23744   0.48547   0.01284   0.00000  Uiso   1.00
N158   N     0.26255   0.51453   0.32049   0.00000  Uiso   1.00
O159   O     0.25325   0.42871   0.20659   0.00000  Uiso   1.00
O160   O     0.07195   0.33919   0.13484   0.00000  Uiso   1.00
O161   O     0.48328   0.34662   0.27586   0.00000  Uiso   1.00
O162   O     0.42805   0.66081   0.19850   0.00000  Uiso   1.00
O163   O     0.17138   0.62530   0.12108   0.00000  Uiso   1.00
O164   O     0.19361   0.66348   0.04482   0.00000  Uiso   1.00
O165   O     0.32862   0.37468   0.21225   0.00000  Uiso   1.00
O166   O     0.30637   0.33654   0.28852   0.00000  Uiso   1.00
O167   O     0.24674   0.57129   0.12674   0.00000  Uiso   1.00
O168   O     0.24480   0.41892   0.10279   0.00000  Uiso   1.00
O169   O     0.25520   0.58108   0.23055   0.00000  Uiso   1.00
O170   O     0.18935   0.50488   0.21857   0.00000  Uiso   1.00
O171   O     0.31064   0.49512   0.11476   0.00000  Uiso   1.00
O172   O     0.18090   0.49510   0.11477   0.00000  Uiso   1.00
O173   O     0.31910   0.50490   0.21857   0.00000  Uiso   1.00
O174   O     0.01672   0.65338   0.05747   0.00000  Uiso   1.00
C175   C     0.74717   0.40017   0.15168   0.00000  Uiso   1.00
C176   C     0.59061   0.45318   0.14287   0.00000  Uiso   1.00
C177   C     0.88351   0.50101   0.16340   0.00000  Uiso   1.00
C178   C     0.61649   0.49899   0.16994   0.00000  Uiso   1.00
C179   C     0.90332   0.45551   0.13600   0.00000  Uiso   1.00
C180   C     0.59668   0.54449   0.19733   0.00000  Uiso   1.00
C181   C     0.94987   0.45465   0.13799   0.00000  Uiso   1.00
C182   C     0.55013   0.54535   0.19534   0.00000  Uiso   1.00
C183   C     0.97656   0.50075   0.16524   0.00000  Uiso   1.00
C184   C     0.52344   0.49925   0.16809   0.00000  Uiso   1.00
C185   C     0.95625   0.54820   0.18963   0.00000  Uiso   1.00
C186   C     0.75283   0.59983   0.18165   0.00000  Uiso   1.00
C187   C     0.54375   0.45180   0.14370   0.00000  Uiso   1.00
C188   C     0.96984   0.40779   0.11491   0.00000  Uiso   1.00
C189   C     0.53016   0.59221   0.21842   0.00000  Uiso   1.00
C190   C     0.53512   0.35266   0.10070   0.00000  Uiso   1.00
C191   C     0.96488   0.64734   0.23263   0.00000  Uiso   1.00
C192   C     0.69939   0.65332   0.10381   0.00000  Uiso   1.00
C193   C     0.80060   0.34668   0.22953   0.00000  Uiso   1.00
C194   C     0.51655   0.40519   0.11907   0.00000  Uiso   1.00
C195   C     0.98344   0.59481   0.21426   0.00000  Uiso   1.00
C196   C     0.73884   0.34506   0.14634   0.00000  Uiso   1.00
C197   C     0.76115   0.65494   0.18699   0.00000  Uiso   1.00
C198   C     0.66455   0.49970   0.16767   0.00000  Uiso   1.00
C199   C     0.83545   0.50030   0.16567   0.00000  Uiso   1.00
C200   C     0.90939   0.54682   0.19046   0.00000  Uiso   1.00
Cu201  Cu    0.75500   0.50579   0.22813   0.00000  Uiso   1.00
Cu202  Cu    0.74499   0.49421   0.10521   0.00000  Uiso   1.00
H203   H     0.89242   0.58060   0.21286   0.00000  Uiso   1.00
H204   H     0.91958   0.36479   0.21474   0.00000  Uiso   1.00
H205   H     0.66548   0.64480   0.02067   0.00000  Uiso   1.00
H206   H     0.83450   0.35522   0.31269   0.00000  Uiso   1.00
H207   H     0.60758   0.41940   0.12048   0.00000  Uiso   1.00
H208   H     0.88242   0.42027   0.11559   0.00000  Uiso   1.00
H209   H     0.61758   0.57973   0.21775   0.00000  Uiso   1.00
H210   H     0.94875   0.37247   0.09572   0.00000  Uiso   1.00
H211   H     0.55125   0.62753   0.23762   0.00000  Uiso   1.00
H212   H     0.71526   0.45926   0.31632   0.00000  Uiso   1.00
H213   H     0.78474   0.54074   0.01701   0.00000  Uiso   1.00
H214   H     0.58042   0.63521   0.11859   0.00000  Uiso   1.00
N215   N     0.73744   0.48547   0.01284   0.00000  Uiso   1.00
N216   N     0.76255   0.51453   0.32049   0.00000  Uiso   1.00
O217   O     0.75325   0.42871   0.20659   0.00000  Uiso   1.00
O218   O     0.57195   0.33919   0.13484   0.00000  Uiso   1.00
O219   O     0.98328   0.34662   0.27586   0.00000  Uiso   1.00
O220   O     0.92805   0.66081   0.19850   0.00000  Uiso   1.00
O221   O     0.67138   0.62530   0.12108   0.00000  Uiso   1.00
O222   O     0.69361   0.66348   0.04482   0.00000  Uiso   1.00
O223   O     0.82862   0.37468   0.21225   0.00000  Uiso   1.00
O224   O     0.80637   0.33654   0.28852   0.00000  Uiso   1.00
O225   O     0.74674   0.57129   0.12674   0.00000  Uiso   1.00
O226   O     0.74480   0.41892   0.10279   0.00000  Uiso   1.00
O227   O     0.75520   0.58108   0.23055   0.00000  Uiso   1.00
O228   O     0.68935   0.50488   0.21857   0.00000  Uiso   1.00
O229   O     0.81064   0.49512   0.11476   0.00000  Uiso   1.00
O230   O     0.68090   0.49510   0.11477   0.00000  Uiso   1.00
O231   O     0.81910   0.50490   0.21857   0.00000  Uiso   1.00
O232   O     0.51672   0.65338   0.05747   0.00000  Uiso   1.00
C233   C     0.24717   0.73350   0.15168   0.00000  Uiso   1.00
C234   C     0.09061   0.78652   0.14287   0.00000  Uiso   1.00
C235   C     0.38351   0.83434   0.16340   0.00000  Uiso   1.00
C236   C     0.11649   0.83233   0.16994   0.00000  Uiso   1.00
C237   C     0.40332   0.78884   0.13600   0.00000  Uiso   1.00
C238   C     0.09668   0.87783   0.19733   0.00000  Uiso   1.00
C239   C     0.44987   0.78798   0.13799   0.00000  Uiso   1.00
C240   C     0.05013   0.87869   0.19534   0.00000  Uiso   1.00
C241   C     0.47656   0.83408   0.16524   0.00000  Uiso   1.00
C242   C     0.02344   0.83258   0.16809   0.00000  Uiso   1.00
C243   C     0.45625   0.88154   0.18963   0.00000  Uiso   1.00
C244   C     0.25283   0.93317   0.18165   0.00000  Uiso   1.00
C245   C     0.04375   0.78513   0.14370   0.00000  Uiso   1.00
C246   C     0.46984   0.74113   0.11491   0.00000  Uiso   1.00
C247   C     0.03016   0.92554   0.21842   0.00000  Uiso   1.00
C248   C     0.03512   0.68599   0.10070   0.00000  Uiso   1.00
C249   C     0.46488   0.98068   0.23263   0.00000  Uiso   1.00
C250   C     0.19939   0.98666   0.10381   0.00000  Uiso   1.00
C251   C     0.30060   0.68001   0.22953   0.00000  Uiso   1.00
C252   C     0.01655   0.73852   0.11907   0.00000  Uiso   1.00
C253   C     0.48344   0.92814   0.21426   0.00000  Uiso   1.00
C254   C     0.23884   0.67840   0.14634   0.00000  Uiso   1.00
C255   C     0.26115   0.98827   0.18699   0.00000  Uiso   1.00
C256   C     0.16455   0.83304   0.16767   0.00000  Uiso   1.00
C257   C     0.33545   0.83363   0.16567   0.00000  Uiso   1.00
C258   C     0.40939   0.88015   0.19046   0.00000  Uiso   1.00
Cu259  Cu    0.25500   0.83913   0.22813   0.00000  Uiso   1.00
Cu260  Cu    0.24499   0.82754   0.10521   0.00000  Uiso   1.00
H261   H     0.39242   0.91394   0.21286   0.00000  Uiso   1.00
H262   H     0.41958   0.69812   0.21474   0.00000  Uiso   1.00
H263   H     0.16548   0.97813   0.02067   0.00000  Uiso   1.00
H264   H     0.33450   0.68856   0.31269   0.00000  Uiso   1.00
H265   H     0.10758   0.75273   0.12048   0.00000  Uiso   1.00
H266   H     0.38242   0.75361   0.11559   0.00000  Uiso   1.00
H267   H     0.11758   0.91306   0.21775   0.00000  Uiso   1.00
H268   H     0.44875   0.70580   0.09572   0.00000  Uiso   1.00
H269   H     0.05125   0.96086   0.23762   0.00000  Uiso   1.00
H270   H     0.21526   0.79260   0.31632   0.00000  Uiso   1.00
H271   H     0.28474   0.87407   0.01701   0.00000  Uiso   1.00
H272   H     0.08042   0.96855   0.11859   0.00000  Uiso   1.00
N273   N     0.23744   0.81881   0.01284   0.00000  Uiso   1.00
N274   N     0.26255   0.84786   0.32049   0.00000  Uiso   1.00
O275   O     0.25325   0.76204   0.20659   0.00000  Uiso   1.00
O276   O     0.07195   0.67253   0.13484   0.00000  Uiso   1.00
O277   O     0.48328   0.67995   0.27586   0.00000  Uiso   1.00
O278   O     0.42805   0.99414   0.19850   0.00000  Uiso   1.00
O279   O     0.17138   0.95864   0.12108   0.00000  Uiso   1.00
O280   O     0.19361   0.99681   0.04482   0.00000  Uiso   1.00
O281   O     0.32862   0.70802   0.21225   0.00000  Uiso   1.00
O282   O     0.30637   0.66988   0.28852   0.00000  Uiso   1.00
O283   O     0.24674   0.90462   0.12674   0.00000  Uiso   1.00
O284   O     0.24480   0.75226   0.10279   0.00000  Uiso   1.00
O285   O     0.25520   0.91441   0.23055   0.00000  Uiso   1.00
O286   O     0.18935   0.83821   0.21857   0.00000  Uiso   1.00
O287   O     0.31064   0.82845   0.11476   0.00000  Uiso   1.00
O288   O     0.18090   0.82843   0.11477   0.00000  Uiso   1.00
O289   O     0.31910   0.83824   0.21857   0.00000  Uiso   1.00
O290   O     0.01672   0.98671   0.05747   0.00000  Uiso   1.00
C291   C     0.74717   0.73350   0.15168   0.00000  Uiso   1.00
C292   C     0.59061   0.78652   0.14287   0.00000  Uiso   1.00
C293   C     0.88351   0.83434   0.16340   0.00000  Uiso   1.00
C294   C     0.61649   0.83233   0.16994   0.00000  Uiso   1.00
C295   C     0.90332   0.78884   0.13600   0.00000  Uiso   1.00
C296   C     0.59668   0.87783   0.19733   0.00000  Uiso   1.00
C297   C     0.94987   0.78798   0.13799   0.00000  Uiso   1.00
C298   C     0.55013   0.87869   0.19534   0.00000  Uiso   1.00
C299   C     0.97656   0.83408   0.16524   0.00000  Uiso   1.00
C300   C     0.52344   0.83258   0.16809   0.00000  Uiso   1.00
C301   C     0.95625   0.88154   0.18963   0.00000  Uiso   1.00
C302   C     0.75283   0.93317   0.18165   0.00000  Uiso   1.00
C303   C     0.54375   0.78513   0.14370   0.00000  Uiso   1.00
C304   C     0.96984   0.74113   0.11491   0.00000  Uiso   1.00
C305   C     0.53016   0.92554   0.21842   0.00000  Uiso   1.00
C306   C     0.53512   0.68599   0.10070   0.00000  Uiso   1.00
C307   C     0.96488   0.98068   0.23263   0.00000  Uiso   1.00
C308   C     0.69939   0.98666   0.10381   0.00000  Uiso   1.00
C309   C     0.80060   0.68001   0.22953   0.00000  Uiso   1.00
C310   C     0.51655   0.73852   0.11907   0.00000  Uiso   1.00
C311   C     0.98344   0.92814   0.21426   0.00000  Uiso   1.00
C312   C     0.73884   0.67840   0.14634   0.00000  Uiso   1.00
C313   C     0.76115   0.98827   0.18699   0.00000  Uiso   1.00
C314   C     0.66455   0.83304   0.16767   0.00000  Uiso   1.00
C315   C     0.83545   0.83363   0.16567   0.00000  Uiso   1.00
C316   C     0.90939   0.88015   0.19046   0.00000  Uiso   1.00
Cu317  Cu    0.75500   0.83913   0.22813   0.00000  Uiso   1.00
Cu318  Cu    0.74499   0.82754   0.10521   0.00000  Uiso   1.00
H319   H     0.89242   0.91394   0.21286   0.00000  Uiso   1.00
H320   H     0.91958   0.69812   0.21474   0.00000  Uiso   1.00
H321   H     0.66548   0.97813   0.02067   0.00000  Uiso   1.00
H322   H     0.83450   0.68856   0.31269   0.00000  Uiso   1.00
H323   H     0.60758   0.75273   0.12048   0.00000  Uiso   1.00
H324   H     0.88242   0.75361   0.11559   0.00000  Uiso   1.00
H325   H     0.61758   0.91306   0.21775   0.00000  Uiso   1.00
H326   H     0.94875   0.70580   0.09572   0.00000  Uiso   1.00
H327   H     0.55125   0.96086   0.23762   0.00000  Uiso   1.00
H328   H     0.71526   0.79260   0.31632   0.00000  Uiso   1.00
H329   H     0.78474   0.87407   0.01701   0.00000  Uiso   1.00
H330   H     0.58042   0.96855   0.11859   0.00000  Uiso   1.00
N331   N     0.73744   0.81881   0.01284   0.00000  Uiso   1.00
N332   N     0.76255   0.84786   0.32049   0.00000  Uiso   1.00
O333   O     0.75325   0.76204   0.20659   0.00000  Uiso   1.00
O334   O     0.57195   0.67253   0.13484   0.00000  Uiso   1.00
O335   O     0.98328   0.67995   0.27586   0.00000  Uiso   1.00
O336   O     0.92805   0.99414   0.19850   0.00000  Uiso   1.00
O337   O     0.67138   0.95864   0.12108   0.00000  Uiso   1.00
O338   O     0.69361   0.99681   0.04482   0.00000  Uiso   1.00
O339   O     0.82862   0.70802   0.21225   0.00000  Uiso   1.00
O340   O     0.80637   0.66988   0.28852   0.00000  Uiso   1.00
O341   O     0.74674   0.90462   0.12674   0.00000  Uiso   1.00
O342   O     0.74480   0.75226   0.10279   0.00000  Uiso   1.00
O343   O     0.75520   0.91441   0.23055   0.00000  Uiso   1.00
O344   O     0.68935   0.83821   0.21857   0.00000  Uiso   1.00
O345   O     0.81064   0.82845   0.11476   0.00000  Uiso   1.00
O346   O     0.68090   0.82843   0.11477   0.00000  Uiso   1.00
O347   O     0.81910   0.83824   0.21857   0.00000  Uiso   1.00
O348   O     0.51672   0.98671   0.05747   0.00000  Uiso   1.00
C349   C     0.24717   0.06683   0.48502   0.00000  Uiso   1.00
C350   C     0.09061   0.11985   0.47621   0.00000  Uiso   1.00
C351   C     0.38351   0.16767   0.49673   0.00000  Uiso   1.00
C352   C     0.11649   0.16566   0.50327   0.00000  Uiso   1.00
C353   C     0.40332   0.12217   0.46933   0.00000  Uiso   1.00
C354   C     0.09668   0.21116   0.53067   0.00000  Uiso   1.00
C355   C     0.44987   0.12131   0.47132   0.00000  Uiso   1.00
C356   C     0.05013   0.21202   0.52868   0.00000  Uiso   1.00
C357   C     0.47656   0.16742   0.49857   0.00000  Uiso   1.00
C358   C     0.02344   0.16592   0.50143   0.00000  Uiso   1.00
C359   C     0.45625   0.21487   0.52296   0.00000  Uiso   1.00
C360   C     0.25283   0.26650   0.51498   0.00000  Uiso   1.00
C361   C     0.04375   0.11846   0.47704   0.00000  Uiso   1.00
C362   C     0.46984   0.07446   0.44825   0.00000  Uiso   1.00
C363   C     0.03016   0.25887   0.55175   0.00000  Uiso   1.00
C364   C     0.03512   0.01932   0.43403   0.00000  Uiso   1.00
C365   C     0.46488   0.31401   0.56597   0.00000  Uiso   1.00
C366   C     0.19939   0.31999   0.43714   0.00000  Uiso   1.00
C367   C     0.30060   0.01335   0.56286   0.00000  Uiso   1.00
C368   C     0.01655   0.07185   0.45240   0.00000  Uiso   1.00
C369   C     0.48344   0.26148   0.54760   0.00000  Uiso   1.00
C370   C     0.23884   0.01173   0.47968   0.00000  Uiso   1.00
C371   C     0.26115   0.32160   0.52032   0.00000  Uiso   1.00
C372   C     0.16455   0.16637   0.50100   0.00000  Uiso   1.00
C373   C     0.33545   0.16696   0.49900   0.00000  Uiso   1.00
C374   C     0.40939   0.21348   0.52379   0.00000  Uiso   1.00
Cu375  Cu    0.25500   0.17246   0.56146   0.00000  Uiso   1.00
Cu376  Cu    0.24499   0.16087   0.43854   0.00000  Uiso   1.00
H377   H     0.39242   0.24727   0.54619   0.00000  Uiso   1.00
H378   H     0.41958   0.03145   0.54807   0.00000  Uiso   1.00
H379   H     0.16548   0.31146   0.35400   0.00000  Uiso   1.00
H380   H     0.33450   0.02189   0.64602   0.00000  Uiso   1.00
H381   H     0.10758   0.08606   0.45381   0.00000  Uiso   1.00
H382   H     0.38242   0.08694   0.44892   0.00000  Uiso   1.00
H383   H     0.11758   0.24639   0.55108   0.00000  Uiso   1.00
H384   H     0.44875   0.03914   0.42905   0.00000  Uiso   1.00
H385   H     0.05125   0.29419   0.57095   0.00000  Uiso   1.00
H386   H     0.21526   0.12593   0.64966   0.00000  Uiso   1.00
H387   H     0.28474   0.20740   0.35034   0.00000  Uiso   1.00
H388   H     0.08042   0.30188   0.45193   0.00000  Uiso   1.00
N389   N     0.23744   0.15214   0.34617   0.00000  Uiso   1.00
N390   N     0.26255   0.18119   0.65383   0.00000  Uiso   1.00
O391   O     0.25325   0.09538   0.53992   0.00000  Uiso   1.00
O392   O     0.07195   0.00586   0.46817   0.00000  Uiso   1.00
O393   O     0.48328   0.01329   0.60919   0.00000  Uiso   1.00
O394   O     0.42805   0.32747   0.53183   0.00000  Uiso   1.00
O395   O     0.17138   0.29197   0.45441   0.00000  Uiso   1.00
O396   O     0.19361   0.33015   0.37816   0.00000  Uiso   1.00
O397   O     0.32862   0.04135   0.54559   0.00000  Uiso   1.00
O398   O     0.30637   0.00321   0.62186   0.00000  Uiso   1.00
O399   O     0.24674   0.23796   0.46008   0.00000  Uiso   1.00
O400   O     0.24480   0.08559   0.43612   0.00000  Uiso   1.00
O401   O     0.25520   0.24774   0.56388   0.00000  Uiso   1.00
O402   O     0.18935   0.17155   0.55191   0.00000  Uiso   1.00
O403   O     0.31064   0.16179   0.44809   0.00000  Uiso   1.00
O404   O     0.18090   0.16176   0.44810   0.00000  Uiso   1.00
O405   O     0.31910   0.17157   0.55190   0.00000  Uiso   1.00
O406   O     0.01672   0.32004   0.39081   0.00000  Uiso   1.00
C407   C     0.74717   0.06683   0.48502   0.00000  Uiso   1.00
C408   C     0.59061   0.11985   0.47621   0.00000  Uiso   1.00
C409   C     0.88351   0.16767   0.49673   0.00000  Uiso   1.00
C410   C     0.61649   0.16566   0.50327   0.00000  Uiso   1.00
C411   C     0.90332   0.12217   0.46933   0.00000  Uiso   1.00
C412   C     0.59668   0.21116   0.53067   0.00000  Uiso   1.00
C413   C     0.94987   0.12131   0.47132   0.00000  Uiso   1.00
C414   C     0.55013   0.21202   0.52868   0.00000  Uiso   1.00
C415   C     0.97656   0.16742   0.49857   0.00000  Uiso   1.00
C416   C     0.52344   0.16592   0.50143   0.00000  Uiso   1.00
C417   C     0.95625   0.21487   0.52296   0.00000  Uiso   1.00
C418   C     0.75283   0.26650   0.51498   0.00000  Uiso   1.00
C419   C     0.54375   0.11846   0.47704   0.00000  Uiso   1.00
C420   C     0.96984   0.07446   0.44825   0.00000  Uiso   1.00
C421   C     0.53016   0.25887   0.55175   0.00000  Uiso   1.00
C422   C     0.53512   0.01932   0.43403   0.00000  Uiso   1.00
C423   C     0.96488   0.31401   0.56597   0.00000  Uiso   1.00
C424   C     0.69939   0.31999   0.43714   0.00000  Uiso   1.00
C425   C     0.80060   0.01335   0.56286   0.00000  Uiso   1.00
C426   C     0.51655   0.07185   0.45240   0.00000  Uiso   1.00
C427   C     0.98344   0.26148   0.54760   0.00000  Uiso   1.00
C428   C     0.73884   0.01173   0.47968   0.00000  Uiso   1.00
C429   C     0.76115   0.32160   0.52032   0.00000  Uiso   1.00
C430   C     0.66455   0.16637   0.50100   0.00000  Uiso   1.00
C431   C     0.83545   0.16696   0.49900   0.00000  Uiso   1.00
C432   C     0.90939   0.21348   0.52379   0.00000  Uiso   1.00
Cu433  Cu    0.75500   0.17246   0.56146   0.00000  Uiso   1.00
Cu434  Cu    0.74499   0.16087   0.43854   0.00000  Uiso   1.00
H435   H     0.89242   0.24727   0.54619   0.00000  Uiso   1.00
H436   H     0.91958   0.03145   0.54807   0.00000  Uiso   1.00
H437   H     0.66548   0.31146   0.35400   0.00000  Uiso   1.00
H438   H     0.83450   0.02189   0.64602   0.00000  Uiso   1.00
H439   H     0.60758   0.08606   0.45381   0.00000  Uiso   1.00
H440   H     0.88242   0.08694   0.44892   0.00000  Uiso   1.00
H441   H     0.61758   0.24639   0.55108   0.00000  Uiso   1.00
H442   H     0.94875   0.03914   0.42905   0.00000  Uiso   1.00
H443   H     0.55125   0.29419   0.57095   0.00000  Uiso   1.00
H444   H     0.71526   0.12593   0.64966   0.00000  Uiso   1.00
H445   H     0.78474   0.20740   0.35034   0.00000  Uiso   1.00
H446   H     0.58042   0.30188   0.45193   0.00000  Uiso   1.00
N447   N     0.73744   0.15214   0.34617   0.00000  Uiso   1.00
N448   N     0.76255   0.18119   0.65383   0.00000  Uiso   1.00
O449   O     0.75325   0.09538   0.53992   0.00000  Uiso   1.00
O450   O     0.57195   0.00586   0.46817   0.00000  Uiso   1.00
O451   O     0.98328   0.01329   0.60919   0.00000  Uiso   1.00
O452   O     0.92805   0.32747   0.53183   0.00000  Uiso   1.00
O453   O     0.67138   0.29197   0.45441   0.00000  Uiso   1.00
O454   O     0.69361   0.33015   0.37816   0.00000  Uiso   1.00
O455   O     0.82862   0.04135   0.54559   0.00000  Uiso   1.00
O456   O     0.80637   0.00321   0.62186   0.00000  Uiso   1.00
O457   O     0.74674   0.23796   0.46008   0.00000  Uiso   1.00
O458   O     0.74480   0.08559   0.43612   0.00000  Uiso   1.00
O459   O     0.75520   0.24774   0.56388   0.00000  Uiso   1.00
O460   O     0.68935   0.17155   0.55191   0.00000  Uiso   1.00
O461   O     0.81064   0.16179   0.44809   0.00000  Uiso   1.00
O462   O     0.68090   0.16176   0.44810   0.00000  Uiso   1.00
O463   O     0.81910   0.17157   0.55190   0.00000  Uiso   1.00
O464   O     0.51672   0.32004   0.39081   0.00000  Uiso   1.00
C465   C     0.24717   0.40017   0.48502   0.00000  Uiso   1.00
C466   C     0.09061   0.45318   0.47621   0.00000  Uiso   1.00
C467   C     0.38351   0.50101   0.49673   0.00000  Uiso   1.00
C468   C     0.11649   0.49899   0.50327   0.00000  Uiso   1.00
C469   C     0.40332   0.45551   0.46933   0.00000  Uiso   1.00
C470   C     0.09668   0.54449   0.53067   0.00000  Uiso   1.00
C471   C     0.44987   0.45465   0.47132   0.00000  Uiso   1.00
C472   C     0.05013   0.54535   0.52868   0.00000  Uiso   1.00
C473   C     0.47656   0.50075   0.49857   0.00000  Uiso   1.00
C474   C     0.02344   0.49925   0.50143   0.00000  Uiso   1.00
C475   C     0.45625   0.54820   0.52296   0.00000  Uiso   1.00
C476   C     0.25283   0.59983   0.51498   0.00000  Uiso   1.00
C477   C     0.04375   0.45180   0.47704   0.00000  Uiso   1.00
C478   C     0.46984   0.40779   0.44825   0.00000  Uiso   1.00
C479   C     0.03016   0.59221   0.55175   0.00000  Uiso   1.00
C480   C     0.03512   0.35266   0.43403   0.00000  Uiso   1.00
C481   C     0.46488   0.64734   0.56597   0.00000  Uiso   1.00
C482   C     0.19939   0.65332   0.43714   0.00000  Uiso   1.00
C483   C     0.30060   0.34668   0.56286   0.00000  Uiso   1.00
C484   C     0.01655   0.40519   0.45240   0.00000  Uiso   1.00
C485   C     0.48344   0.59481   0.54760   0.00000  Uiso   1.00
C486   C     0.23884   0.34506   0.47968   0.00000  Uiso   1.00
C487   C     0.26115   0.65494   0.52032   0.00000  Uiso   1.00
C488   C     0.16455   0.49970   0.50100   0.00000  Uiso   1.00
C489   C     0.33545   0.50030   0.49900   0.00000  Uiso   1.00
C490   C     0.40939   0.54682   0.52379   0.00000  Uiso   1.00
Cu491  Cu    0.25500   0.50579   0.56146   0.00000  Uiso   1.00
Cu492  Cu    0.24499   0.49421   0.43854   0.00000  Uiso   1.00
H493   H     0.39242   0.58060   0.54619   0.00000  Uiso   1.00
H494   H     0.41958   0.36479   0.54807   0.00000  Uiso   1.00
H495   H     0.16548   0.64480   0.35400   0.00000  Uiso   1.00
H496   H     0.33450   0.35522   0.64602   0.00000  Uiso   1.00
H497   H     0.10758   0.41940   0.45381   0.00000  Uiso   1.00
H498   H     0.38242   0.42027   0.44892   0.00000  Uiso   1.00
H499   H     0.11758   0.57973   0.55108   0.00000  Uiso   1.00
H500   H     0.44875   0.37247   0.42905   0.00000  Uiso   1.00
H501   H     0.05125   0.62753   0.57095   0.00000  Uiso   1.00
H502   H     0.21526   0.45926   0.64966   0.00000  Uiso   1.00
H503   H     0.28474   0.54074   0.35034   0.00000  Uiso   1.00
H504   H     0.08042   0.63521   0.45193   0.00000  Uiso   1.00
N505   N     0.23744   0.48547   0.34617   0.00000  Uiso   1.00
N506   N     0.26255   0.51453   0.65383   0.00000  Uiso   1.00
O507   O     0.25325   0.42871   0.53992   0.00000  Uiso   1.00
O508   O     0.07195   0.33919   0.46817   0.00000  Uiso   1.00
O509   O     0.48328   0.34662   0.60919   0.00000  Uiso   1.00
O510   O     0.42805   0.66081   0.53183   0.00000  Uiso   1.00
O511   O     0.17138   0.62530   0.45441   0.00000  Uiso   1.00
O512   O     0.19361   0.66348   0.37816   0.00000  Uiso   1.00
O513   O     0.32862   0.37468   0.54559   0.00000  Uiso   1.00
O514   O     0.30637   0.33654   0.62186   0.00000  Uiso   1.00
O515   O     0.24674   0.57129   0.46008   0.00000  Uiso   1.00
O516   O     0.24480   0.41892   0.43612   0.00000  Uiso   1.00
O517   O     0.25520   0.58108   0.56388   0.00000  Uiso   1.00
O518   O     0.18935   0.50488   0.55191   0.00000  Uiso   1.00
O519   O     0.31064   0.49512   0.44809   0.00000  Uiso   1.00
O520   O     0.18090   0.49510   0.44810   0.00000  Uiso   1.00
O521   O     0.31910   0.50490   0.55190   0.00000  Uiso   1.00
O522   O     0.01672   0.65338   0.39081   0.00000  Uiso   1.00
C523   C     0.74717   0.40017   0.48502   0.00000  Uiso   1.00
C524   C     0.59061   0.45318   0.47621   0.00000  Uiso   1.00
C525   C     0.88351   0.50101   0.49673   0.00000  Uiso   1.00
C526   C     0.61649   0.49899   0.50327   0.00000  Uiso   1.00
C527   C     0.90332   0.45551   0.46933   0.00000  Uiso   1.00
C528   C     0.59668   0.54449   0.53067   0.00000  Uiso   1.00
C529   C     0.94987   0.45465   0.47132   0.00000  Uiso   1.00
C530   C     0.55013   0.54535   0.52868   0.00000  Uiso   1.00
C531   C     0.97656   0.50075   0.49857   0.00000  Uiso   1.00
C532   C     0.52344   0.49925   0.50143   0.00000  Uiso   1.00
C533   C     0.95625   0.54820   0.52296   0.00000  Uiso   1.00
C534   C     0.75283   0.59983   0.51498   0.00000  Uiso   1.00
C535   C     0.54375   0.45180   0.47704   0.00000  Uiso   1.00
C536   C     0.96984   0.40779   0.44825   0.00000  Uiso   1.00
C537   C     0.53016   0.59221   0.55175   0.00000  Uiso   1.00
C538   C     0.53512   0.35266   0.43403   0.00000  Uiso   1.00
C539   C     0.96488   0.64734   0.56597   0.00000  Uiso   1.00
C540   C     0.69939   0.65332   0.43714   0.00000  Uiso   1.00
C541   C     0.80060   0.34668   0.56286   0.00000  Uiso   1.00
C542   C     0.51655   0.40519   0.45240   0.00000  Uiso   1.00
C543   C     0.98344   0.59481   0.54760   0.00000  Uiso   1.00
C544   C     0.73884   0.34506   0.47968   0.00000  Uiso   1.00
C545   C     0.76115   0.65494   0.52032   0.00000  Uiso   1.00
C546   C     0.66455   0.49970   0.50100   0.00000  Uiso   1.00
C547   C     0.83545   0.50030   0.49900   0.00000  Uiso   1.00
C548   C     0.90939   0.54682   0.52379   0.00000  Uiso   1.00
Cu549  Cu    0.75500   0.50579   0.56146   0.00000  Uiso   1.00
Cu550  Cu    0.74499   0.49421   0.43854   0.00000  Uiso   1.00
H551   H     0.89242   0.58060   0.54619   0.00000  Uiso   1.00
H552   H     0.91958   0.36479   0.54807   0.00000  Uiso   1.00
H553   H     0.66548   0.64480   0.35400   0.00000  Uiso   1.00
H554   H     0.83450   0.35522   0.64602   0.00000  Uiso   1.00
H555   H     0.60758   0.41940   0.45381   0.00000  Uiso   1.00
H556   H     0.88242   0.42027   0.44892   0.00000  Uiso   1.00
H557   H     0.61758   0.57973   0.55108   0.00000  Uiso   1.00
H558   H     0.94875   0.37247   0.42905   0.00000  Uiso   1.00
H559   H     0.55125   0.62753   0.57095   0.00000  Uiso   1.00
H560   H     0.71526   0.45926   0.64966   0.00000  Uiso   1.00
H561   H     0.78474   0.54074   0.35034   0.00000  Uiso   1.00
H562   H     0.58042   0.63521   0.45193   0.00000  Uiso   1.00
N563   N     0.73744   0.48547   0.34617   0.00000  Uiso   1.00
N564   N     0.76255   0.51453   0.65383   0.00000  Uiso   1.00
O565   O     0.75325   0.42871   0.53992   0.00000  Uiso   1.00
O566   O     0.57195   0.33919   0.46817   0.00000  Uiso   1.00
O567   O     0.98328   0.34662   0.60919   0.00000  Uiso   1.00
O568   O     0.92805   0.66081   0.53183   0.00000  Uiso   1.00
O569   O     0.67138   0.62530   0.45441   0.00000  Uiso   1.00
O570   O     0.69361   0.66348   0.37816   0.00000  Uiso   1.00
O571   O     0.82862   0.37468   0.54559   0.00000  Uiso   1.00
O572   O     0.80637   0.33654   0.62186   0.00000  Uiso   1.00
O573   O     0.74674   0.57129   0.46008   0.00000  Uiso   1.00
O574   O     0.74480   0.41892   0.43612   0.00000  Uiso   1.00
O575   O     0.75520   0.58108   0.56388   0.00000  Uiso   1.00
O576   O     0.68935   0.50488   0.55191   0.00000  Uiso   1.00
O577   O     0.81064   0.49512   0.44809   0.00000  Uiso   1.00
O578   O     0.68090   0.49510   0.44810   0.00000  Uiso   1.00
O579   O     0.81910   0.50490   0.55190   0.00000  Uiso   1.00
O580   O     0.51672   0.65338   0.39081   0.00000  Uiso   1.00
C581   C     0.24717   0.73350   0.48502   0.00000  Uiso   1.00
C582   C     0.09061   0.78652   0.47621   0.00000  Uiso   1.00
C583   C     0.38351   0.83434   0.49673   0.00000  Uiso   1.00
C584   C     0.11649   0.83233   0.50327   0.00000  Uiso   1.00
C585   C     0.40332   0.78884   0.46933   0.00000  Uiso   1.00
C586   C     0.09668   0.87783   0.53067   0.00000  Uiso   1.00
C587   C     0.44987   0.78798   0.47132   0.00000  Uiso   1.00
C588   C     0.05013   0.87869   0.52868   0.00000  Uiso   1.00
C589   C     0.47656   0.83408   0.49857   0.00000  Uiso   1.00
C590   C     0.02344   0.83258   0.50143   0.00000  Uiso   1.00
C591   C     0.45625   0.88154   0.52296   0.00000  Uiso   1.00
C592   C     0.25283   0.93317   0.51498   0.00000  Uiso   1.00
C593   C     0.04375   0.78513   0.47704   0.00000  Uiso   1.00
C594   C     0.46984   0.74113   0.44825   0.00000  Uiso   1.00
C595   C     0.03016   0.92554   0.55175   0.00000  Uiso   1.00
C596   C     0.03512   0.68599   0.43403   0.00000  Uiso   1.00
C597   C     0.46488   0.98068   0.56597   0.00000  Uiso   1.00
C598   C     0.19939   0.98666   0.43714   0.00000  Uiso   1.00
C599   C     0.30060   0.68001   0.56286   0.00000  Uiso   1.00
C600   C     0.01655   0.73852   0.45240   0.00000  Uiso   1.00
C601   C     0.48344   0.92814   0.54760   0.00000  Uiso   1.00
C602   C     0.23884   0.67840   0.47968   0.00000  Uiso   1.00
C603   C     0.26115   0.98827   0.52032   0.00000  Uiso   1.00
C604   C     0.16455   0.83304   0.50100   0.00000  Uiso   1.00
C605   C     0.33545   0.83363   0.49900   0.00000  Uiso   1.00
C606   C     0.40939   0.88015   0.52379   0.00000  Uiso   1.00
Cu607  Cu    0.25500   0.83913   0.56146   0.00000  Uiso   1.00
Cu608  Cu    0.24499   0.82754   0.43854   0.00000  Uiso   1.00
H609   H     0.39242   0.91394   0.54619   0.00000  Uiso   1.00
H610   H     0.41958   0.69812   0.54807   0.00000  Uiso   1.00
H611   H     0.16548   0.97813   0.35400   0.00000  Uiso   1.00
H612   H     0.33450   0.68856   0.64602   0.00000  Uiso   1.00
H613   H     0.10758   0.75273   0.45381   0.00000  Uiso   1.00
H614   H     0.38242   0.75361   0.44892   0.00000  Uiso   1.00
H615   H     0.11758   0.91306   0.55108   0.00000  Uiso   1.00
H616   H     0.44875   0.70580   0.42905   0.00000  Uiso   1.00
H617   H     0.05125   0.96086   0.57095   0.00000  Uiso   1.00
H618   H     0.21526   0.79260   0.64966   0.00000  Uiso   1.00
H619   H     0.28474   0.87407   0.35034   0.00000  Uiso   1.00
H620   H     0.08042   0.96855   0.45193   0.00000  Uiso   1.00
N621   N     0.23744   0.81881   0.34617   0.00000  Uiso   1.00
N622   N     0.26255   0.84786   0.65383   0.00000  Uiso   1.00
O623   O     0.25325   0.76204   0.53992   0.00000  Uiso   1.00
O624   O     0.07195   0.67253   0.46817   0.00000  Uiso   1.00
O625   O     0.48328   0.67995   0.60919   0.00000  Uiso   1.00
O626   O     0.42805   0.99414   0.53183   0.00000  Uiso   1.00
O627   O     0.17138   0.95864   0.45441   0.00000  Uiso   1.00
O628   O     0.19361   0.99681   0.37816   0.00000  Uiso   1.00
O629   O     0.32862   0.70802   0.54559   0.00000  Uiso   1.00
O630   O     0.30637   0.66988   0.62186   0.00000  Uiso   1.00
O631   O     0.24674   0.90462   0.46008   0.00000  Uiso   1.00
O632   O     0.24480   0.75226   0.43612   0.00000  Uiso   1.00
O633   O     0.25520   0.91441   0.56388   0.00000  Uiso   1.00
O634   O     0.18935   0.83821   0.55191   0.00000  Uiso   1.00
O635   O     0.31064   0.82845   0.44809   0.00000  Uiso   1.00
O636   O     0.18090   0.82843   0.44810   0.00000  Uiso   1.00
O637   O     0.31910   0.83824   0.55190   0.00000  Uiso   1.00
O638   O     0.01672   0.98671   0.39081   0.00000  Uiso   1.00
C639   C     0.74717   0.73350   0.48502   0.00000  Uiso   1.00
C640   C     0.59061   0.78652   0.47621   0.00000  Uiso   1.00
C641   C     0.88351   0.83434   0.49673   0.00000  Uiso   1.00
C642   C     0.61649   0.83233   0.50327   0.00000  Uiso   1.00
C643   C     0.90332   0.78884   0.46933   0.00000  Uiso   1.00
C644   C     0.59668   0.87783   0.53067   0.00000  Uiso   1.00
C645   C     0.94987   0.78798   0.47132   0.00000  Uiso   1.00
C646   C     0.55013   0.87869   0.52868   0.00000  Uiso   1.00
C647   C     0.97656   0.83408   0.49857   0.00000  Uiso   1.00
C648   C     0.52344   0.83258   0.50143   0.00000  Uiso   1.00
C649   C     0.95625   0.88154   0.52296   0.00000  Uiso   1.00
C650   C     0.75283   0.93317   0.51498   0.00000  Uiso   1.00
C651   C     0.54375   0.78513   0.47704   0.00000  Uiso   1.00
C652   C     0.96984   0.74113   0.44825   0.00000  Uiso   1.00
C653   C     0.53016   0.92554   0.55175   0.00000  Uiso   1.00
C654   C     0.53512   0.68599   0.43403   0.00000  Uiso   1.00
C655   C     0.96488   0.98068   0.56597   0.00000  Uiso   1.00
C656   C     0.69939   0.98666   0.43714   0.00000  Uiso   1.00
C657   C     0.80060   0.68001   0.56286   0.00000  Uiso   1.00
C658   C     0.51655   0.73852   0.45240   0.00000  Uiso   1.00
C659   C     0.98344   0.92814   0.54760   0.00000  Uiso   1.00
C660   C     0.73884   0.67840   0.47968   0.00000  Uiso   1.00
C661   C     0.76115   0.98827   0.52032   0.00000  Uiso   1.00
C662   C     0.66455   0.83304   0.50100   0.00000  Uiso   1.00
C663   C     0.83545   0.83363   0.49900   0.00000  Uiso   1.00
C664   C     0.90939   0.88015   0.52379   0.00000  Uiso   1.00
Cu665  Cu    0.75500   0.83913   0.56146   0.00000  Uiso   1.00
Cu666  Cu    0.74499   0.82754   0.43854   0.00000  Uiso   1.00
H667   H     0.89242   0.91394   0.54619   0.00000  Uiso   1.00
H668   H     0.91958   0.69812   0.54807   0.00000  Uiso   1.00
H669   H     0.66548   0.97813   0.35400   0.00000  Uiso   1.00
H670   H     0.83450   0.68856   0.64602   0.00000  Uiso   1.00
H671   H     0.60758   0.75273   0.45381   0.00000  Uiso   1.00
H672   H     0.88242   0.75361   0.44892   0.00000  Uiso   1.00
H673   H     0.61758   0.91306   0.55108   0.00000  Uiso   1.00
H674   H     0.94875   0.70580   0.42905   0.00000  Uiso   1.00
H675   H     0.55125   0.96086   0.57095   0.00000  Uiso   1.00
H676   H     0.71526   0.79260   0.64966   0.00000  Uiso   1.00
H677   H     0.78474   0.87407   0.35034   0.00000  Uiso   1.00
H678   H     0.58042   0.96855   0.45193   0.00000  Uiso   1.00
N679   N     0.73744   0.81881   0.34617   0.00000  Uiso   1.00
N680   N     0.76255   0.84786   0.65383   0.00000  Uiso   1.00
O681   O     0.75325   0.76204   0.53992   0.00000  Uiso   1.00
O682   O     0.57195   0.67253   0.46817   0.00000  Uiso   1.00
O683   O     0.98328   0.67995   0.60919   0.00000  Uiso   1.00
O684   O     0.92805   0.99414   0.53183   0.00000  Uiso   1.00
O685   O     0.67138   0.95864   0.45441   0.00000  Uiso   1.00
O686   O     0.69361   0.99681   0.37816   0.00000  Uiso   1.00
O687   O     0.82862   0.70802   0.54559   0.00000  Uiso   1.00
O688   O     0.80637   0.66988   0.62186   0.00000  Uiso   1.00
O689   O     0.74674   0.90462   0.46008   0.00000  Uiso   1.00
O690   O     0.74480   0.75226   0.43612   0.00000  Uiso   1.00
O691   O     0.75520   0.91441   0.56388   0.00000  Uiso   1.00
O692   O     0.68935   0.83821   0.55191   0.00000  Uiso   1.00
O693   O     0.81064   0.82845   0.44809   0.00000  Uiso   1.00
O694   O     0.68090   0.82843   0.44810   0.00000  Uiso   1.00
O695   O     0.81910   0.83824   0.55190   0.00000  Uiso   1.00
O696   O     0.51672   0.98671   0.39081   0.00000  Uiso   1.00
C697   C     0.24717   0.06683   0.81835   0.00000  Uiso   1.00
C698   C     0.09061   0.11985   0.80954   0.00000  Uiso   1.00
C699   C     0.38351   0.16767   0.83006   0.00000  Uiso   1.00
C700   C     0.11649   0.16566   0.83660   0.00000  Uiso   1.00
C701   C     0.40332   0.12217   0.80267   0.00000  Uiso   1.00
C702   C     0.09668   0.21116   0.86400   0.00000  Uiso   1.00
C703   C     0.44987   0.12131   0.80466   0.00000  Uiso   1.00
C704   C     0.05013   0.21202   0.86201   0.00000  Uiso   1.00
C705   C     0.47656   0.16742   0.83191   0.00000  Uiso   1.00
C706   C     0.02344   0.16592   0.83476   0.00000  Uiso   1.00
C707   C     0.45625   0.21487   0.85630   0.00000  Uiso   1.00
C708   C     0.25283   0.26650   0.84832   0.00000  Uiso   1.00
C709   C     0.04375   0.11846   0.81037   0.00000  Uiso   1.00
C710   C     0.46984   0.07446   0.78158   0.00000  Uiso   1.00
C711   C     0.03016   0.25887   0.88509   0.00000  Uiso   1.00
C712   C     0.03512   0.01932   0.76737   0.00000  Uiso   1.00
C713   C     0.46488   0.31401   0.89930   0.00000  Uiso   1.00
C714   C     0.19939   0.31999   0.77048   0.00000  Uiso   1.00
C715   C     0.30060   0.01335   0.89620   0.00000  Uiso   1.00
C716   C     0.01655   0.07185   0.78574   0.00000  Uiso   1.00
C717   C     0.48344   0.26148   0.88093   0.00000  Uiso   1.00
C718   C     0.23884   0.01173   0.81301   0.00000  Uiso   1.00
C719   C     0.26115   0.32160   0.85366   0.00000  Uiso   1.00
C720   C     0.16455   0.16637   0.83433   0.00000  Uiso   1.00
C721   C     0.33545   0.16696   0.83233   0.00000  Uiso   1.00
C722   C     0.40939   0.21348   0.85713   0.00000  Uiso   1.00
Cu723  Cu    0.25500   0.17246   0.89479   0.00000  Uiso   1.00
Cu724  Cu    0.24499   0.16087   0.77187   0.00000  Uiso   1.00
H725   H     0.39242   0.24727   0.87952   0.00000  Uiso   1.00
H726   H     0.41958   0.03145   0.88141   0.00000  Uiso   1.00
H727   H     0.16548   0.31146   0.68733   0.00000  Uiso   1.00
H728   H     0.33450   0.02189   0.97935   0.00000  Uiso   1.00
H729   H     0.10758   0.08606   0.78714   0.00000  Uiso   1.00
H730   H     0.38242   0.08694   0.78225   0.00000  Uiso   1.00
H731   H     0.11758   0.24639   0.88441   0.00000  Uiso   1.00
H732   H     0.44875   0.03914   0.76238   0.00000  Uiso   1.00
H733   H     0.05125   0.29419   0.90428   0.00000  Uiso   1.00
H734   H     0.21526   0.12593   0.98299   0.00000  Uiso   1.00
H735   H     0.28474   0.20740   0.68367   0.00000  Uiso   1.00
H736   H     0.08042   0.30188   0.78526   0.00000  Uiso   1.00
N737   N     0.23744   0.15214   0.67951   0.00000  Uiso   1.00
N738   N     0.26255   0.18119   0.98716   0.00000  Uiso   1.00
O739   O     0.25325   0.09538   0.87326   0.00000  Uiso   1.00
O740   O     0.07195   0.00586   0.80150   0.00000  Uiso   1.00
O741   O     0.48328   0.01329   0.94253   0.00000  Uiso   1.00
O742   O     0.42805   0.32747   0.86516   0.00000  Uiso   1.00
O743   O     0.17138   0.29197   0.78774   0.00000  Uiso   1.00
O744   O     0.19361   0.33015   0.71149   0.00000  Uiso   1.00
O745   O     0.32862   0.04135   0.87892   0.00000  Uiso   1.00
O746   O     0.30637   0.00321   0.95519   0.00000  Uiso   1.00
O747   O     0.24674   0.23796   0.79341   0.00000  Uiso   1.00
O748   O     0.24480   0.08559   0.76945   0.00000  Uiso   1.00
O749   O     0.25520   0.24774   0.89721   0.00000  Uiso   1.00
O750   O     0.18935   0.17155   0.88524   0.00000  Uiso   1.00
O751   O     0.31064   0.16179   0.78143   0.00000  Uiso   1.00
O752   O     0.18090   0.16176   0.78143   0.00000  Uiso   1.00
O753   O     0.31910   0.17157   0.88523   0.00000  Uiso   1.00
O754   O     0.01672   0.32004   0.72414   0.00000  Uiso   1.00
C755   C     0.74717   0.06683   0.81835   0.00000  Uiso   1.00
C756   C     0.59061   0.11985   0.80954   0.00000  Uiso   1.00
C757   C     0.88351   0.16767   0.83006   0.00000  Uiso   1.00
C758   C     0.61649   0.16566   0.83660   0.00000  Uiso   1.00
C759   C     0.90332   0.12217   0.80267   0.00000  Uiso   1.00
C760   C     0.59668   0.21116   0.86400   0.00000  Uiso   1.00
C761   C     0.94987   0.12131   0.80466   0.00000  Uiso   1.00
C762   C     0.55013   0.21202   0.86201   0.00000  Uiso   1.00
C763   C     0.97656   0.16742   0.83191   0.00000  Uiso   1.00
C764   C     0.52344   0.16592   0.83476   0.00000  Uiso   1.00
C765   C     0.95625   0.21487   0.85630   0.00000  Uiso   1.00
C766   C     0.75283   0.26650   0.84832   0.00000  Uiso   1.00
C767   C     0.54375   0.11846   0.81037   0.00000  Uiso   1.00
C768   C     0.96984   0.07446   0.78158   0.00000  Uiso   1.00
C769   C     0.53016   0.25887   0.88509   0.00000  Uiso   1.00
C770   C     0.53512   0.01932   0.76737   0.00000  Uiso   1.00
C771   C     0.96488   0.31401   0.89930   0.00000  Uiso   1.00
C772   C     0.69939   0.31999   0.77048   0.00000  Uiso   1.00
C773   C     0.80060   0.01335   0.89620   0.00000  Uiso   1.00
C774   C     0.51655   0.07185   0.78574   0.00000  Uiso   1.00
C775   C     0.98344   0.26148   0.88093   0.00000  Uiso   1.00
C776   C     0.73884   0.01173   0.81301   0.00000  Uiso   1.00
C777   C     0.76115   0.32160   0.85366   0.00000  Uiso   1.00
C778   C     0.66455   0.16637   0.83433   0.00000  Uiso   1.00
C779   C     0.83545   0.16696   0.83233   0.00000  Uiso   1.00
C780   C     0.90939   0.21348   0.85713   0.00000  Uiso   1.00
Cu781  Cu    0.75500   0.17246   0.89479   0.00000  Uiso   1.00
Cu782  Cu    0.74499   0.16087   0.77187   0.00000  Uiso   1.00
H783   H     0.89242   0.24727   0.87952   0.00000  Uiso   1.00
H784   H     0.91958   0.03145   0.88141   0.00000  Uiso   1.00
H785   H     0.66548   0.31146   0.68733   0.00000  Uiso   1.00
H786   H     0.83450   0.02189   0.97935   0.00000  Uiso   1.00
H787   H     0.60758   0.08606   0.78714   0.00000  Uiso   1.00
H788   H     0.88242   0.08694   0.78225   0.00000  Uiso   1.00
H789   H     0.61758   0.24639   0.88441   0.00000  Uiso   1.00
H790   H     0.94875   0.03914   0.76238   0.00000  Uiso   1.00
H791   H     0.55125   0.29419   0.90428   0.00000  Uiso   1.00
H792   H     0.71526   0.12593   0.98299   0.00000  Uiso   1.00
H793   H     0.78474   0.20740   0.68367   0.00000  Uiso   1.00
H794   H     0.58042   0.30188   0.78526   0.00000  Uiso   1.00
N795   N     0.73744   0.15214   0.67951   0.00000  Uiso   1.00
N796   N     0.76255   0.18119   0.98716   0.00000  Uiso   1.00
O797   O     0.75325   0.09538   0.87326   0.00000  Uiso   1.00
O798   O     0.57195   0.00586   0.80150   0.00000  Uiso   1.00
O799   O     0.98328   0.01329   0.94253   0.00000  Uiso   1.00
O800   O     0.92805   0.32747   0.86516   0.00000  Uiso   1.00
O801   O     0.67138   0.29197   0.78774   0.00000  Uiso   1.00
O802   O     0.69361   0.33015   0.71149   0.00000  Uiso   1.00
O803   O     0.82862   0.04135   0.87892   0.00000  Uiso   1.00
O804   O     0.80637   0.00321   0.95519   0.00000  Uiso   1.00
O805   O     0.74674   0.23796   0.79341   0.00000  Uiso   1.00
O806   O     0.74480   0.08559   0.76945   0.00000  Uiso   1.00
O807   O     0.75520   0.24774   0.89721   0.00000  Uiso   1.00
O808   O     0.68935   0.17155   0.88524   0.00000  Uiso   1.00
O809   O     0.81064   0.16179   0.78143   0.00000  Uiso   1.00
O810   O     0.68090   0.16176   0.78143   0.00000  Uiso   1.00
O811   O     0.81910   0.17157   0.88523   0.00000  Uiso   1.00
O812   O     0.51672   0.32004   0.72414   0.00000  Uiso   1.00
C813   C     0.24717   0.40017   0.81835   0.00000  Uiso   1.00
C814   C     0.09061   0.45318   0.80954   0.00000  Uiso   1.00
C815   C     0.38351   0.50101   0.83006   0.00000  Uiso   1.00
C816   C     0.11649   0.49899   0.83660   0.00000  Uiso   1.00
C817   C     0.40332   0.45551   0.80267   0.00000  Uiso   1.00
C818   C     0.09668   0.54449   0.86400   0.00000  Uiso   1.00
C819   C     0.44987   0.45465   0.80466   0.00000  Uiso   1.00
C820   C     0.05013   0.54535   0.86201   0.00000  Uiso   1.00
C821   C     0.47656   0.50075   0.83191   0.00000  Uiso   1.00
C822   C     0.02344   0.49925   0.83476   0.00000  Uiso   1.00
C823   C     0.45625   0.54820   0.85630   0.00000  Uiso   1.00
C824   C     0.25283   0.59983   0.84832   0.00000  Uiso   1.00
C825   C     0.04375   0.45180   0.81037   0.00000  Uiso   1.00
C826   C     0.46984   0.40779   0.78158   0.00000  Uiso   1.00
C827   C     0.03016   0.59221   0.88509   0.00000  Uiso   1.00
C828   C     0.03512   0.35266   0.76737   0.00000  Uiso   1.00
C829   C     0.46488   0.64734   0.89930   0.00000  Uiso   1.00
C830   C     0.19939   0.65332   0.77048   0.00000  Uiso   1.00
C831   C     0.30060   0.34668   0.89620   0.00000  Uiso   1.00
C832   C     0.01655   0.40519   0.78574   0.00000  Uiso   1.00
C833   C     0.48344   0.59481   0.88093   0.00000  Uiso   1.00
C834   C     0.23884   0.34506   0.81301   0.00000  Uiso   1.00
C835   C     0.26115   0.65494   0.85366   0.00000  Uiso   1.00
C836   C     0.16455   0.49970   0.83433   0.00000  Uiso   1.00
C837   C     0.33545   0.50030   0.83233   0.00000  Uiso   1.00
C838   C     0.40939   0.54682   0.85713   0.00000  Uiso   1.00
Cu839  Cu    0.25500   0.50579   0.89479   0.00000  Uiso   1.00
Cu840  Cu    0.24499   0.49421   0.77187   0.00000  Uiso   1.00
H841   H     0.39242   0.58060   0.87952   0.00000  Uiso   1.00
H842   H     0.41958   0.36479   0.88141   0.00000  Uiso   1.00
H843   H     0.16548   0.64480   0.68733   0.00000  Uiso   1.00
H844   H     0.33450   0.35522   0.97935   0.00000  Uiso   1.00
H845   H     0.10758   0.41940   0.78714   0.00000  Uiso   1.00
H846   H     0.38242   0.42027   0.78225   0.00000  Uiso   1.00
H847   H     0.11758   0.57973   0.88441   0.00000  Uiso   1.00
H848   H     0.44875   0.37247   0.76238   0.00000  Uiso   1.00
H849   H     0.05125   0.62753   0.90428   0.00000  Uiso   1.00
H850   H     0.21526   0.45926   0.98299   0.00000  Uiso   1.00
H851   H     0.28474   0.54074   0.68367   0.00000  Uiso   1.00
H852   H     0.08042   0.63521   0.78526   0.00000  Uiso   1.00
N853   N     0.23744   0.48547   0.67951   0.00000  Uiso   1.00
N854   N     0.26255   0.51453   0.98716   0.00000  Uiso   1.00
O855   O     0.25325   0.42871   0.87326   0.00000  Uiso   1.00
O856   O     0.07195   0.33919   0.80150   0.00000  Uiso   1.00
O857   O     0.48328   0.34662   0.94253   0.00000  Uiso   1.00
O858   O     0.42805   0.66081   0.86516   0.00000  Uiso   1.00
O859   O     0.17138   0.62530   0.78774   0.00000  Uiso   1.00
O860   O     0.19361   0.66348   0.71149   0.00000  Uiso   1.00
O861   O     0.32862   0.37468   0.87892   0.00000  Uiso   1.00
O862   O     0.30637   0.33654   0.95519   0.00000  Uiso   1.00
O863   O     0.24674   0.57129   0.79341   0.00000  Uiso   1.00
O864   O     0.24480   0.41892   0.76945   0.00000  Uiso   1.00
O865   O     0.25520   0.58108   0.89721   0.00000  Uiso   1.00
O866   O     0.18935   0.50488   0.88524   0.00000  Uiso   1.00
O867   O     0.31064   0.49512   0.78143   0.00000  Uiso   1.00
O868   O     0.18090   0.49510   0.78143   0.00000  Uiso   1.00
O869   O     0.31910   0.50490   0.88523   0.00000  Uiso   1.00
O870   O     0.01672   0.65338   0.72414   0.00000  Uiso   1.00
C871   C     0.74717   0.40017   0.81835   0.00000  Uiso   1.00
C872   C     0.59061   0.45318   0.80954   0.00000  Uiso   1.00
C873   C     0.88351   0.50101   0.83006   0.00000  Uiso   1.00
C874   C     0.61649   0.49899   0.83660   0.00000  Uiso   1.00
C875   C     0.90332   0.45551   0.80267   0.00000  Uiso   1.00
C876   C     0.59668   0.54449   0.86400   0.00000  Uiso   1.00
C877   C     0.94987   0.45465   0.80466   0.00000  Uiso   1.00
C878   C     0.55013   0.54535   0.86201   0.00000  Uiso   1.00
C879   C     0.97656   0.50075   0.83191   0.00000  Uiso   1.00
C880   C     0.52344   0.49925   0.83476   0.00000  Uiso   1.00
C881   C     0.95625   0.54820   0.85630   0.00000  Uiso   1.00
C882   C     0.75283   0.59983   0.84832   0.00000  Uiso   1.00
C883   C     0.54375   0.45180   0.81037   0.00000  Uiso   1.00
C884   C     0.96984   0.40779   0.78158   0.00000  Uiso   1.00
C885   C     0.53016   0.59221   0.88509   0.00000  Uiso   1.00
C886   C     0.53512   0.35266   0.76737   0.00000  Uiso   1.00
C887   C     0.96488   0.64734   0.89930   0.00000  Uiso   1.00
C888   C     0.69939   0.65332   0.77048   0.00000  Uiso   1.00
C889   C     0.80060   0.34668   0.89620   0.00000  Uiso   1.00
C890   C     0.51655   0.40519   0.78574   0.00000  Uiso   1.00
C891   C     0.98344   0.59481   0.88093   0.00000  Uiso   1.00
C892   C     0.73884   0.34506   0.81301   0.00000  Uiso   1.00
C893   C     0.76115   0.65494   0.85366   0.00000  Uiso   1.00
C894   C     0.66455   0.49970   0.83433   0.00000  Uiso   1.00
C895   C     0.83545   0.50030   0.83233   0.00000  Uiso   1.00
C896   C     0.90939   0.54682   0.85713   0.00000  Uiso   1.00
Cu897  Cu    0.75500   0.50579   0.89479   0.00000  Uiso   1.00
Cu898  Cu    0.74499   0.49421   0.77187   0.00000  Uiso   1.00
H899   H     0.89242   0.58060   0.87952   0.00000  Uiso   1.00
H900   H     0.91958   0.36479   0.88141   0.00000  Uiso   1.00
H901   H     0.66548   0.64480   0.68733   0.00000  Uiso   1.00
H902   H     0.83450   0.35522   0.97935   0.00000  Uiso   1.00
H903   H     0.60758   0.41940   0.78714   0.00000  Uiso   1.00
H904   H     0.88242   0.42027   0.78225   0.00000  Uiso   1.00
H905   H     0.61758   0.57973   0.88441   0.00000  Uiso   1.00
H906   H     0.94875   0.37247   0.76238   0.00000  Uiso   1.00
H907   H     0.55125   0.62753   0.90428   0.00000  Uiso   1.00
H908   H     0.71526   0.45926   0.98299   0.00000  Uiso   1.00
H909   H     0.78474   0.54074   0.68367   0.00000  Uiso   1.00
H910   H     0.58042   0.63521   0.78526   0.00000  Uiso   1.00
N911   N     0.73744   0.48547   0.67951   0.00000  Uiso   1.00
N912   N     0.76255   0.51453   0.98716   0.00000  Uiso   1.00
O913   O     0.75325   0.42871   0.87326   0.00000  Uiso   1.00
O914   O     0.57195   0.33919   0.80150   0.00000  Uiso   1.00
O915   O     0.98328   0.34662   0.94253   0.00000  Uiso   1.00
O916   O     0.92805   0.66081   0.86516   0.00000  Uiso   1.00
O917   O     0.67138   0.62530   0.78774   0.00000  Uiso   1.00
O918   O     0.69361   0.66348   0.71149   0.00000  Uiso   1.00
O919   O     0.82862   0.37468   0.87892   0.00000  Uiso   1.00
O920   O     0.80637   0.33654   0.95519   0.00000  Uiso   1.00
O921   O     0.74674   0.57129   0.79341   0.00000  Uiso   1.00
O922   O     0.74480   0.41892   0.76945   0.00000  Uiso   1.00
O923   O     0.75520   0.58108   0.89721   0.00000  Uiso   1.00
O924   O     0.68935   0.50488   0.88524   0.00000  Uiso   1.00
O925   O     0.81064   0.49512   0.78143   0.00000  Uiso   1.00
O926   O     0.68090   0.49510   0.78143   0.00000  Uiso   1.00
O927   O     0.81910   0.50490   0.88523   0.00000  Uiso   1.00
O928   O     0.51672   0.65338   0.72414   0.00000  Uiso   1.00
C929   C     0.24717   0.73350   0.81835   0.00000  Uiso   1.00
C930   C     0.09061   0.78652   0.80954   0.00000  Uiso   1.00
C931   C     0.38351   0.83434   0.83006   0.00000  Uiso   1.00
C932   C     0.11649   0.83233   0.83660   0.00000  Uiso   1.00
C933   C     0.40332   0.78884   0.80267   0.00000  Uiso   1.00
C934   C     0.09668   0.87783   0.86400   0.00000  Uiso   1.00
C935   C     0.44987   0.78798   0.80466   0.00000  Uiso   1.00
C936   C     0.05013   0.87869   0.86201   0.00000  Uiso   1.00
C937   C     0.47656   0.83408   0.83191   0.00000  Uiso   1.00
C938   C     0.02344   0.83258   0.83476   0.00000  Uiso   1.00
C939   C     0.45625   0.88154   0.85630   0.00000  Uiso   1.00
C940   C     0.25283   0.93317   0.84832   0.00000  Uiso   1.00
C941   C     0.04375   0.78513   0.81037   0.00000  Uiso   1.00
C942   C     0.46984   0.74113   0.78158   0.00000  Uiso   1.00
C943   C     0.03016   0.92554   0.88509   0.00000  Uiso   1.00
C944   C     0.03512   0.68599   0.76737   0.00000  Uiso   1.00
C945   C     0.46488   0.98068   0.89930   0.00000  Uiso   1.00
C946   C     0.19939   0.98666   0.77048   0.00000  Uiso   1.00
C947   C     0.30060   0.68001   0.89620   0.00000  Uiso   1.00
C948   C     0.01655   0.73852   0.78574   0.00000  Uiso   1.00
C949   C     0.48344   0.92814   0.88093   0.00000  Uiso   1.00
C950   C     0.23884   0.67840   0.81301   0.00000  Uiso   1.00
C951   C     0.26115   0.98827   0.85366   0.00000  Uiso   1.00
C952   C     0.16455   0.83304   0.83433   0.00000  Uiso   1.00
C953   C     0.33545   0.83363   0.83233   0.00000  Uiso   1.00
C954   C     0.40939   0.88015   0.85713   0.00000  Uiso   1.00
Cu955  Cu    0.25500   0.83913   0.89479   0.00000  Uiso   1.00
Cu956  Cu    0.24499   0.82754   0.77187   0.00000  Uiso   1.00
H957   H     0.39242   0.91394   0.87952   0.00000  Uiso   1.00
H958   H     0.41958   0.69812   0.88141   0.00000  Uiso   1.00
H959   H     0.16548   0.97813   0.68733   0.00000  Uiso   1.00
H960   H     0.33450   0.68856   0.97935   0.00000  Uiso   1.00
H961   H     0.10758   0.75273   0.78714   0.00000  Uiso   1.00
H962   H     0.38242   0.75361   0.78225   0.00000  Uiso   1.00
H963   H     0.11758   0.91306   0.88441   0.00000  Uiso   1.00
H964   H     0.44875   0.70580   0.76238   0.00000  Uiso   1.00
H965   H     0.05125   0.96086   0.90428   0.00000  Uiso   1.00
H966   H     0.21526   0.79260   0.98299   0.00000  Uiso   1.00
H967   H     0.28474   0.87407   0.68367   0.00000  Uiso   1.00
H968   H     0.08042   0.96855   0.78526   0.00000  Uiso   1.00
N969   N     0.23744   0.81881   0.67951   0.00000  Uiso   1.00
N970   N     0.26255   0.84786   0.98716   0.00000  Uiso   1.00
O971   O     0.25325   0.76204   0.87326   0.00000  Uiso   1.00
O972   O     0.07195   0.67253   0.80150   0.00000  Uiso   1.00
O973   O     0.48328   0.67995   0.94253   0.00000  Uiso   1.00
O974   O     0.42805   0.99414   0.86516   0.00000  Uiso   1.00
O975   O     0.17138   0.95864   0.78774   0.00000  Uiso   1.00
O976   O     0.19361   0.99681   0.71149   0.00000  Uiso   1.00
O977   O     0.32862   0.70802   0.87892   0.00000  Uiso   1.00
O978   O     0.30637   0.66988   0.95519   0.00000  Uiso   1.00
O979   O     0.24674   0.90462   0.79341   0.00000  Uiso   1.00
O980   O     0.24480   0.75226   0.76945   0.00000  Uiso   1.00
O981   O     0.25520   0.91441   0.89721   0.00000  Uiso   1.00
O982   O     0.18935   0.83821   0.88524   0.00000  Uiso   1.00
O983   O     0.31064   0.82845   0.78143   0.00000  Uiso   1.00
O984   O     0.18090   0.82843   0.78143   0.00000  Uiso   1.00
O985   O     0.31910   0.83824   0.88523   0.00000  Uiso   1.00
O986   O     0.01672   0.98671   0.72414   0.00000  Uiso   1.00
C987   C     0.74717   0.73350   0.81835   0.00000  Uiso   1.00
C988   C     0.59061   0.78652   0.80954   0.00000  Uiso   1.00
C989   C     0.88351   0.83434   0.83006   0.00000  Uiso   1.00
C990   C     0.61649   0.83233   0.83660   0.00000  Uiso   1.00
C991   C     0.90332   0.78884   0.80267   0.00000  Uiso   1.00
C992   C     0.59668   0.87783   0.86400   0.00000  Uiso   1.00
C993   C     0.94987   0.78798   0.80466   0.00000  Uiso   1.00
C994   C     0.55013   0.87869   0.86201   0.00000  Uiso   1.00
C995   C     0.97656   0.83408   0.83191   0.00000  Uiso   1.00
C996   C     0.52344   0.83258   0.83476   0.00000  Uiso   1.00
C997   C     0.95625   0.88154   0.85630   0.00000  Uiso   1.00
C998   C     0.75283   0.93317   0.84832   0.00000  Uiso   1.00
C999   C     0.54375   0.78513   0.81037   0.00000  Uiso   1.00
C1000  C     0.96984   0.74113   0.78158   0.00000  Uiso   1.00
C1001  C     0.53016   0.92554   0.88509   0.00000  Uiso   1.00
C1002  C     0.53512   0.68599   0.76737   0.00000  Uiso   1.00
C1003  C     0.96488   0.98068   0.89930   0.00000  Uiso   1.00
C1004  C     0.69939   0.98666   0.77048   0.00000  Uiso   1.00
C1005  C     0.80060   0.68001   0.89620   0.00000  Uiso   1.00
C1006  C     0.51655   0.73852   0.78574   0.00000  Uiso   1.00
C1007  C     0.98344   0.92814   0.88093   0.00000  Uiso   1.00
C1008  C     0.73884   0.67840   0.81301   0.00000  Uiso   1.00
C1009  C     0.76115   0.98827   0.85366   0.00000  Uiso   1.00
C1010  C     0.66455   0.83304   0.83433   0.00000  Uiso   1.00
C1011  C     0.83545   0.83363   0.83233   0.00000  Uiso   1.00
C1012  C     0.90939   0.88015   0.85713   0.00000  Uiso   1.00
Cu1013 Cu    0.75500   0.83913   0.89479   0.00000  Uiso   1.00
Cu1014 Cu    0.74499   0.82754   0.77187   0.00000  Uiso   1.00
H1015  H     0.89242   0.91394   0.87952   0.00000  Uiso   1.00
H1016  H     0.91958   0.69812   0.88141   0.00000  Uiso   1.00
H1017  H     0.66548   0.97813   0.68733   0.00000  Uiso   1.00
H1018  H     0.83450   0.68856   0.97935   0.00000  Uiso   1.00
H1019  H     0.60758   0.75273   0.78714   0.00000  Uiso   1.00
H1020  H     0.88242   0.75361   0.78225   0.00000  Uiso   1.00
H1021  H     0.61758   0.91306   0.88441   0.00000  Uiso   1.00
H1022  H     0.94875   0.70580   0.76238   0.00000  Uiso   1.00
H1023  H     0.55125   0.96086   0.90428   0.00000  Uiso   1.00
H1024  H     0.71526   0.79260   0.98299   0.00000  Uiso   1.00
H1025  H     0.78474   0.87407   0.68367   0.00000  Uiso   1.00
H1026  H     0.58042   0.96855   0.78526   0.00000  Uiso   1.00
N1027  N     0.73744   0.81881   0.67951   0.00000  Uiso   1.00
N1028  N     0.76255   0.84786   0.98716   0.00000  Uiso   1.00
O1029  O     0.75325   0.76204   0.87326   0.00000  Uiso   1.00
O1030  O     0.57195   0.67253   0.80150   0.00000  Uiso   1.00
O1031  O     0.98328   0.67995   0.94253   0.00000  Uiso   1.00
O1032  O     0.92805   0.99414   0.86516   0.00000  Uiso   1.00
O1033  O     0.67138   0.95864   0.78774   0.00000  Uiso   1.00
O1034  O     0.69361   0.99681   0.71149   0.00000  Uiso   1.00
O1035  O     0.82862   0.70802   0.87892   0.00000  Uiso   1.00
O1036  O     0.80637   0.66988   0.95519   0.00000  Uiso   1.00
O1037  O     0.74674   0.90462   0.79341   0.00000  Uiso   1.00
O1038  O     0.74480   0.75226   0.76945   0.00000  Uiso   1.00
O1039  O     0.75520   0.91441   0.89721   0.00000  Uiso   1.00
O1040  O     0.68935   0.83821   0.88524   0.00000  Uiso   1.00
O1041  O     0.81064   0.82845   0.78143   0.00000  Uiso   1.00
O1042  O     0.68090   0.82843   0.78143   0.00000  Uiso   1.00
O1043  O     0.81910   0.83824   0.88523   0.00000  Uiso   1.00
O1044  O     0.51672   0.98671   0.72414   0.00000  Uiso   1.00
loop_
_geom_bond_atom_site_label_1
_geom_bond_atom_site_label_2
_geom_bond_distance
_geom_bond_site_symmetry_2
_ccdc_geom_bond_type
C1     C22     1.428   .     S
C1     O52     1.287   .     A
C1     O43     1.287   .     A
C2     C4      1.394   .     A
C2     H33     1.081   .     S
C2     C13     1.402   .     A
C3     C25     1.441   .     S
C3     C26     1.394   .     A
C3     C5      1.391   .     A
C4     C6      1.391   .     A
C4     C24     1.441   .     S
C5     H34     1.085   .     S
C5     C7      1.392   .     A
C6     C8      1.392   .     A
C6     H35     1.085   .     S
C7     C9      1.413   .     A
C7     C14     1.398   .     A
C8     C15     1.398   .     A
C8     C10     1.413   .     A
C9     C11     1.422   .     A
C9     C68     1.402   .     S
C10    C13     1.422   .     A
C10    C67     1.402   1_455 S
C11    C26     1.402   .     A
C11    C21     1.419   .     A
C12    O53     1.287   .     A
C12    O51     1.287   .     A
C12    C23     1.428   .     S
C13    C20     1.419   .     A
C14    H36     1.085   .     S
C14    C78     1.400   .     S
C15    H37     1.085   .     S
C15    C79     1.400   1_455 S
C16    C20     1.488   .     S
C16    O44     1.398   .     S
C16    O290    1.223   1_545 S
C17    C21     1.488   .     S
C17    O46     1.398   .     S
C17    O161    1.223   .     S
C18    O47     1.223   .     D
C18    O48     1.399   .     S
C18    C138    1.497   .     S
C19    O49     1.223   .     D
C19    O50     1.399   .     S
C19    C255    1.497   1_545 S
C20    C72     1.400   1_455 S
C21    C73     1.400   .     S
C22    C250    1.497   1_545 S
C22    C255    1.355   1_545 S
C23    C135    1.497   .     S
C23    C138    1.355   .     S
C24    O56     1.291   .     A
C24    O54     1.293   .     A
C25    O57     1.291   .     A
C25    O55     1.293   .     A
C26    H29     1.081   .     S
Cu27   O53     1.955   .     S
Cu27   O43     1.965   .     S
Cu27   O54     1.960   .     S
Cu27   O57     1.944   .     S
Cu27   N42     2.021   .     S
Cu27   Cu28    2.689   .     S
Cu28   O56     1.944   .     S
Cu28   O52     1.955   .     S
Cu28   O55     1.960   .     S
Cu28   O51     1.965   .     S
Cu28   N41     2.021   .     S
H30    O278    1.014   1_545 S
H31    O48     1.014   .     S
H32    O50     1.014   .     S
H38    N389    1.029   .     S
H39    N738    1.029   1_554 S
H40    O160    1.014   .     S
N41    H734    1.029   1_554 S
N41    N738    1.289   1_554 S
N42    N389    1.289   .     S
N42    H387    1.029   .     S
O44    H272    1.014   1_545 S
O45    C249    1.223   1_545 S
O46    H146    1.014   .     S
O58    C132    1.223   .     S
C59    C80     1.428   .     S
C59    O110    1.287   .     A
C59    O101    1.287   .     A
C60    C62     1.394   .     A
C60    H91     1.081   .     S
C60    C71     1.402   .     A
C61    C83     1.441   .     S
C61    C84     1.394   .     A
C61    C63     1.391   .     A
C62    C64     1.391   .     A
C62    C82     1.441   .     S
C63    H92     1.085   .     S
C63    C65     1.392   .     A
C64    C66     1.392   .     A
C64    H93     1.085   .     S
C65    C67     1.413   .     A
C65    C72     1.398   .     A
C66    C73     1.398   .     A
C66    C68     1.413   .     A
C67    C69     1.422   .     A
C67    C10     1.402   1_655 S
C68    C71     1.422   .     A
C69    C84     1.402   .     A
C69    C79     1.419   .     A
C70    O111    1.287   .     A
C70    O109    1.287   .     A
C70    C81     1.428   .     S
C71    C78     1.419   .     A
C72    H94     1.085   .     S
C72    C20     1.400   1_655 S
C73    H95     1.085   .     S
C74    C78     1.488   .     S
C74    O102    1.398   .     S
C74    O348    1.223   1_545 S
C75    C79     1.488   .     S
C75    O104    1.398   .     S
C75    O219    1.223   .     S
C76    O105    1.223   .     D
C76    O106    1.399   .     S
C76    C196    1.497   .     S
C77    O107    1.223   .     D
C77    O108    1.399   .     S
C77    C313    1.497   1_545 S
C79    C15     1.400   1_655 S
C80    C308    1.497   1_545 S
C80    C313    1.355   1_545 S
C81    C193    1.497   .     S
C81    C196    1.355   .     S
C82    O114    1.291   .     A
C82    O112    1.293   .     A
C83    O115    1.291   .     A
C83    O113    1.293   .     A
C84    H87     1.081   .     S
Cu85   O111    1.955   .     S
Cu85   O101    1.965   .     S
Cu85   O112    1.960   .     S
Cu85   O115    1.944   .     S
Cu85   N100    2.021   .     S
Cu85   Cu86    2.689   .     S
Cu86   O114    1.944   .     S
Cu86   O110    1.955   .     S
Cu86   O113    1.960   .     S
Cu86   O109    1.965   .     S
Cu86   N99     2.021   .     S
H88    O336    1.014   1_545 S
H89    O106    1.014   .     S
H90    O108    1.014   .     S
H96    N447    1.029   .     S
H97    N796    1.029   1_554 S
H98    O218    1.014   .     S
N99    H792    1.029   1_554 S
N99    N796    1.289   1_554 S
N100   N447    1.289   .     S
N100   H445    1.029   .     S
O102   H330    1.014   1_545 S
O103   C307    1.223   1_545 S
O104   H204    1.014   .     S
O116   C190    1.223   .     S
C117   C138    1.428   .     S
C117   O168    1.287   .     A
C117   O159    1.287   .     A
C118   C120    1.394   .     A
C118   H149    1.081   .     S
C118   C129    1.402   .     A
C119   C141    1.441   .     S
C119   C142    1.394   .     A
C119   C121    1.391   .     A
C120   C122    1.391   .     A
C120   C140    1.441   .     S
C121   H150    1.085   .     S
C121   C123    1.392   .     A
C122   C124    1.392   .     A
C122   H151    1.085   .     S
C123   C125    1.413   .     A
C123   C130    1.398   .     A
C124   C131    1.398   .     A
C124   C126    1.413   .     A
C125   C127    1.422   .     A
C125   C184    1.402   .     S
C126   C129    1.422   .     A
C126   C183    1.402   1_455 S
C127   C142    1.402   .     A
C127   C137    1.419   .     A
C128   O169    1.287   .     A
C128   O167    1.287   .     A
C128   C139    1.428   .     S
C129   C136    1.419   .     A
C130   H152    1.085   .     S
C130   C194    1.400   .     S
C131   H153    1.085   .     S
C131   C195    1.400   1_455 S
C132   C136    1.488   .     S
C132   O160    1.398   .     S
C133   C137    1.488   .     S
C133   O162    1.398   .     S
C133   O277    1.223   .     S
C134   O163    1.223   .     D
C134   O164    1.399   .     S
C134   C254    1.497   .     S
C135   O165    1.223   .     D
C135   O166    1.399   .     S
C136   C188    1.400   1_455 S
C137   C189    1.400   .     S
C139   C251    1.497   .     S
C139   C254    1.355   .     S
C140   O172    1.291   .     A
C140   O170    1.293   .     A
C141   O173    1.291   .     A
C141   O171    1.293   .     A
C142   H145    1.081   .     S
Cu143  O169    1.955   .     S
Cu143  O159    1.965   .     S
Cu143  O170    1.960   .     S
Cu143  O173    1.944   .     S
Cu143  N158    2.021   .     S
Cu143  Cu144   2.689   .     S
Cu144  O172    1.944   .     S
Cu144  O168    1.955   .     S
Cu144  O171    1.960   .     S
Cu144  O167    1.965   .     S
Cu144  N157    2.021   .     S
H147   O164    1.014   .     S
H148   O166    1.014   .     S
H154   N505    1.029   .     S
H155   N854    1.029   1_554 S
H156   O276    1.014   .     S
N157   H850    1.029   1_554 S
N157   N854    1.289   1_554 S
N158   N505    1.289   .     S
N158   H503    1.029   .     S
O162   H262    1.014   .     S
O174   C248    1.223   .     S
C175   C196    1.428   .     S
C175   O226    1.287   .     A
C175   O217    1.287   .     A
C176   C178    1.394   .     A
C176   H207    1.081   .     S
C176   C187    1.402   .     A
C177   C199    1.441   .     S
C177   C200    1.394   .     A
C177   C179    1.391   .     A
C178   C180    1.391   .     A
C178   C198    1.441   .     S
C179   H208    1.085   .     S
C179   C181    1.392   .     A
C180   C182    1.392   .     A
C180   H209    1.085   .     S
C181   C183    1.413   .     A
C181   C188    1.398   .     A
C182   C189    1.398   .     A
C182   C184    1.413   .     A
C183   C185    1.422   .     A
C183   C126    1.402   1_655 S
C184   C187    1.422   .     A
C185   C200    1.402   .     A
C185   C195    1.419   .     A
C186   O227    1.287   .     A
C186   O225    1.287   .     A
C186   C197    1.428   .     S
C187   C194    1.419   .     A
C188   H210    1.085   .     S
C188   C136    1.400   1_655 S
C189   H211    1.085   .     S
C190   C194    1.488   .     S
C190   O218    1.398   .     S
C191   C195    1.488   .     S
C191   O220    1.398   .     S
C191   O335    1.223   .     S
C192   O221    1.223   .     D
C192   O222    1.399   .     S
C192   C312    1.497   .     S
C193   O223    1.223   .     D
C193   O224    1.399   .     S
C195   C131    1.400   1_655 S
C197   C309    1.497   .     S
C197   C312    1.355   .     S
C198   O230    1.291   .     A
C198   O228    1.293   .     A
C199   O231    1.291   .     A
C199   O229    1.293   .     A
C200   H203    1.081   .     S
Cu201  O227    1.955   .     S
Cu201  O217    1.965   .     S
Cu201  O228    1.960   .     S
Cu201  O231    1.944   .     S
Cu201  N216    2.021   .     S
Cu201  Cu202   2.689   .     S
Cu202  O230    1.944   .     S
Cu202  O226    1.955   .     S
Cu202  O229    1.960   .     S
Cu202  O225    1.965   .     S
Cu202  N215    2.021   .     S
H205   O222    1.014   .     S
H206   O224    1.014   .     S
H212   N563    1.029   .     S
H213   N912    1.029   1_554 S
H214   O334    1.014   .     S
N215   H908    1.029   1_554 S
N215   N912    1.289   1_554 S
N216   N563    1.289   .     S
N216   H561    1.029   .     S
O220   H320    1.014   .     S
O232   C306    1.223   .     S
C233   C254    1.428   .     S
C233   O284    1.287   .     A
C233   O275    1.287   .     A
C234   C236    1.394   .     A
C234   H265    1.081   .     S
C234   C245    1.402   .     A
C235   C257    1.441   .     S
C235   C258    1.394   .     A
C235   C237    1.391   .     A
C236   C238    1.391   .     A
C236   C256    1.441   .     S
C237   H266    1.085   .     S
C237   C239    1.392   .     A
C238   C240    1.392   .     A
C238   H267    1.085   .     S
C239   C241    1.413   .     A
C239   C246    1.398   .     A
C240   C247    1.398   .     A
C240   C242    1.413   .     A
C241   C243    1.422   .     A
C241   C300    1.402   .     S
C242   C245    1.422   .     A
C242   C299    1.402   1_455 S
C243   C258    1.402   .     A
C243   C253    1.419   .     A
C244   O285    1.287   .     A
C244   O283    1.287   .     A
C244   C255    1.428   .     S
C245   C252    1.419   .     A
C246   H268    1.085   .     S
C246   C310    1.400   .     S
C247   H269    1.085   .     S
C247   C311    1.400   1_455 S
C248   C252    1.488   .     S
C248   O276    1.398   .     S
C249   C253    1.488   .     S
C249   O278    1.398   .     S
C249   O45     1.223   1_565 S
C250   O279    1.223   .     D
C250   O280    1.399   .     S
C250   C22     1.497   1_565 S
C251   O281    1.223   .     D
C251   O282    1.399   .     S
C252   C304    1.400   1_455 S
C253   C305    1.400   .     S
C255   C19     1.497   1_565 S
C255   C22     1.355   1_565 S
C256   O288    1.291   .     A
C256   O286    1.293   .     A
C257   O289    1.291   .     A
C257   O287    1.293   .     A
C258   H261    1.081   .     S
Cu259  O285    1.955   .     S
Cu259  O275    1.965   .     S
Cu259  O286    1.960   .     S
Cu259  O289    1.944   .     S
Cu259  N274    2.021   .     S
Cu259  Cu260   2.689   .     S
Cu260  O288    1.944   .     S
Cu260  O284    1.955   .     S
Cu260  O287    1.960   .     S
Cu260  O283    1.965   .     S
Cu260  N273    2.021   .     S
H263   O280    1.014   .     S
H264   O282    1.014   .     S
H270   N621    1.029   .     S
H271   N970    1.029   1_554 S
H272   O44     1.014   1_565 S
N273   H966    1.029   1_554 S
N273   N970    1.289   1_554 S
N274   N621    1.289   .     S
N274   H619    1.029   .     S
O278   H30     1.014   1_565 S
O290   C16     1.223   1_565 S
C291   C312    1.428   .     S
C291   O342    1.287   .     A
C291   O333    1.287   .     A
C292   C294    1.394   .     A
C292   H323    1.081   .     S
C292   C303    1.402   .     A
C293   C315    1.441   .     S
C293   C316    1.394   .     A
C293   C295    1.391   .     A
C294   C296    1.391   .     A
C294   C314    1.441   .     S
C295   H324    1.085   .     S
C295   C297    1.392   .     A
C296   C298    1.392   .     A
C296   H325    1.085   .     S
C297   C299    1.413   .     A
C297   C304    1.398   .     A
C298   C305    1.398   .     A
C298   C300    1.413   .     A
C299   C301    1.422   .     A
C299   C242    1.402   1_655 S
C300   C303    1.422   .     A
C301   C316    1.402   .     A
C301   C311    1.419   .     A
C302   O343    1.287   .     A
C302   O341    1.287   .     A
C302   C313    1.428   .     S
C303   C310    1.419   .     A
C304   H326    1.085   .     S
C304   C252    1.400   1_655 S
C305   H327    1.085   .     S
C306   C310    1.488   .     S
C306   O334    1.398   .     S
C307   C311    1.488   .     S
C307   O336    1.398   .     S
C307   O103    1.223   1_565 S
C308   O337    1.223   .     D
C308   O338    1.399   .     S
C308   C80     1.497   1_565 S
C309   O339    1.223   .     D
C309   O340    1.399   .     S
C311   C247    1.400   1_655 S
C313   C77     1.497   1_565 S
C313   C80     1.355   1_565 S
C314   O346    1.291   .     A
C314   O344    1.293   .     A
C315   O347    1.291   .     A
C315   O345    1.293   .     A
C316   H319    1.081   .     S
Cu317  O343    1.955   .     S
Cu317  O333    1.965   .     S
Cu317  O344    1.960   .     S
Cu317  O347    1.944   .     S
Cu317  N332    2.021   .     S
Cu317  Cu318   2.689   .     S
Cu318  O346    1.944   .     S
Cu318  O342    1.955   .     S
Cu318  O345    1.960   .     S
Cu318  O341    1.965   .     S
Cu318  N331    2.021   .     S
H321   O338    1.014   .     S
H322   O340    1.014   .     S
H328   N679    1.029   .     S
H329   N1028   1.029   1_554 S
H330   O102    1.014   1_565 S
N331   H1024   1.029   1_554 S
N331   N1028   1.289   1_554 S
N332   N679    1.289   .     S
N332   H677    1.029   .     S
O336   H88     1.014   1_565 S
O348   C74     1.223   1_565 S
C349   C370    1.428   .     S
C349   O400    1.287   .     A
C349   O391    1.287   .     A
C350   C352    1.394   .     A
C350   H381    1.081   .     S
C350   C361    1.402   .     A
C351   C373    1.441   .     S
C351   C374    1.394   .     A
C351   C353    1.391   .     A
C352   C354    1.391   .     A
C352   C372    1.441   .     S
C353   H382    1.085   .     S
C353   C355    1.392   .     A
C354   C356    1.392   .     A
C354   H383    1.085   .     S
C355   C357    1.413   .     A
C355   C362    1.398   .     A
C356   C363    1.398   .     A
C356   C358    1.413   .     A
C357   C359    1.422   .     A
C357   C416    1.402   .     S
C358   C361    1.422   .     A
C358   C415    1.402   1_455 S
C359   C374    1.402   .     A
C359   C369    1.419   .     A
C360   O401    1.287   .     A
C360   O399    1.287   .     A
C360   C371    1.428   .     S
C361   C368    1.419   .     A
C362   H384    1.085   .     S
C362   C426    1.400   .     S
C363   H385    1.085   .     S
C363   C427    1.400   1_455 S
C364   C368    1.488   .     S
C364   O392    1.398   .     S
C364   O638    1.223   1_545 S
C365   C369    1.488   .     S
C365   O394    1.398   .     S
C365   O509    1.223   .     S
C366   O395    1.223   .     D
C366   O396    1.399   .     S
C366   C486    1.497   .     S
C367   O397    1.223   .     D
C367   O398    1.399   .     S
C367   C603    1.497   1_545 S
C368   C420    1.400   1_455 S
C369   C421    1.400   .     S
C370   C598    1.497   1_545 S
C370   C603    1.355   1_545 S
C371   C483    1.497   .     S
C371   C486    1.355   .     S
C372   O404    1.291   .     A
C372   O402    1.293   .     A
C373   O405    1.291   .     A
C373   O403    1.293   .     A
C374   H377    1.081   .     S
Cu375  O401    1.955   .     S
Cu375  O391    1.965   .     S
Cu375  O402    1.960   .     S
Cu375  O405    1.944   .     S
Cu375  N390    2.021   .     S
Cu375  Cu376   2.689   .     S
Cu376  O404    1.944   .     S
Cu376  O400    1.955   .     S
Cu376  O403    1.960   .     S
Cu376  O399    1.965   .     S
Cu376  N389    2.021   .     S
H378   O626    1.014   1_545 S
H379   O396    1.014   .     S
H380   O398    1.014   .     S
H386   N737    1.029   .     S
H388   O508    1.014   .     S
N390   N737    1.289   .     S
N390   H735    1.029   .     S
O392   H620    1.014   1_545 S
O393   C597    1.223   1_545 S
O394   H494    1.014   .     S
O406   C480    1.223   .     S
C407   C428    1.428   .     S
C407   O458    1.287   .     A
C407   O449    1.287   .     A
C408   C410    1.394   .     A
C408   H439    1.081   .     S
C408   C419    1.402   .     A
C409   C431    1.441   .     S
C409   C432    1.394   .     A
C409   C411    1.391   .     A
C410   C412    1.391   .     A
C410   C430    1.441   .     S
C411   H440    1.085   .     S
C411   C413    1.392   .     A
C412   C414    1.392   .     A
C412   H441    1.085   .     S
C413   C415    1.413   .     A
C413   C420    1.398   .     A
C414   C421    1.398   .     A
C414   C416    1.413   .     A
C415   C417    1.422   .     A
C415   C358    1.402   1_655 S
C416   C419    1.422   .     A
C417   C432    1.402   .     A
C417   C427    1.419   .     A
C418   O459    1.287   .     A
C418   O457    1.287   .     A
C418   C429    1.428   .     S
C419   C426    1.419   .     A
C420   H442    1.085   .     S
C420   C368    1.400   1_655 S
C421   H443    1.085   .     S
C422   C426    1.488   .     S
C422   O450    1.398   .     S
C422   O696    1.223   1_545 S
C423   C427    1.488   .     S
C423   O452    1.398   .     S
C423   O567    1.223   .     S
C424   O453    1.223   .     D
C424   O454    1.399   .     S
C424   C544    1.497   .     S
C425   O455    1.223   .     D
C425   O456    1.399   .     S
C425   C661    1.497   1_545 S
C427   C363    1.400   1_655 S
C428   C656    1.497   1_545 S
C428   C661    1.355   1_545 S
C429   C541    1.497   .     S
C429   C544    1.355   .     S
C430   O462    1.291   .     A
C430   O460    1.293   .     A
C431   O463    1.291   .     A
C431   O461    1.293   .     A
C432   H435    1.081   .     S
Cu433  O459    1.955   .     S
Cu433  O449    1.965   .     S
Cu433  O460    1.960   .     S
Cu433  O463    1.944   .     S
Cu433  N448    2.021   .     S
Cu433  Cu434   2.689   .     S
Cu434  O462    1.944   .     S
Cu434  O458    1.955   .     S
Cu434  O461    1.960   .     S
Cu434  O457    1.965   .     S
Cu434  N447    2.021   .     S
H436   O684    1.014   1_545 S
H437   O454    1.014   .     S
H438   O456    1.014   .     S
H444   N795    1.029   .     S
H446   O566    1.014   .     S
N448   N795    1.289   .     S
N448   H793    1.029   .     S
O450   H678    1.014   1_545 S
O451   C655    1.223   1_545 S
O452   H552    1.014   .     S
O464   C538    1.223   .     S
C465   C486    1.428   .     S
C465   O516    1.287   .     A
C465   O507    1.287   .     A
C466   C468    1.394   .     A
C466   H497    1.081   .     S
C466   C477    1.402   .     A
C467   C489    1.441   .     S
C467   C490    1.394   .     A
C467   C469    1.391   .     A
C468   C470    1.391   .     A
C468   C488    1.441   .     S
C469   H498    1.085   .     S
C469   C471    1.392   .     A
C470   C472    1.392   .     A
C470   H499    1.085   .     S
C471   C473    1.413   .     A
C471   C478    1.398   .     A
C472   C479    1.398   .     A
C472   C474    1.413   .     A
C473   C475    1.422   .     A
C473   C532    1.402   .     S
C474   C477    1.422   .     A
C474   C531    1.402   1_455 S
C475   C490    1.402   .     A
C475   C485    1.419   .     A
C476   O517    1.287   .     A
C476   O515    1.287   .     A
C476   C487    1.428   .     S
C477   C484    1.419   .     A
C478   H500    1.085   .     S
C478   C542    1.400   .     S
C479   H501    1.085   .     S
C479   C543    1.400   1_455 S
C480   C484    1.488   .     S
C480   O508    1.398   .     S
C481   C485    1.488   .     S
C481   O510    1.398   .     S
C481   O625    1.223   .     S
C482   O511    1.223   .     D
C482   O512    1.399   .     S
C482   C602    1.497   .     S
C483   O513    1.223   .     D
C483   O514    1.399   .     S
C484   C536    1.400   1_455 S
C485   C537    1.400   .     S
C487   C599    1.497   .     S
C487   C602    1.355   .     S
C488   O520    1.291   .     A
C488   O518    1.293   .     A
C489   O521    1.291   .     A
C489   O519    1.293   .     A
C490   H493    1.081   .     S
Cu491  O517    1.955   .     S
Cu491  O507    1.965   .     S
Cu491  O518    1.960   .     S
Cu491  O521    1.944   .     S
Cu491  N506    2.021   .     S
Cu491  Cu492   2.689   .     S
Cu492  O520    1.944   .     S
Cu492  O516    1.955   .     S
Cu492  O519    1.960   .     S
Cu492  O515    1.965   .     S
Cu492  N505    2.021   .     S
H495   O512    1.014   .     S
H496   O514    1.014   .     S
H502   N853    1.029   .     S
H504   O624    1.014   .     S
N506   N853    1.289   .     S
N506   H851    1.029   .     S
O510   H610    1.014   .     S
O522   C596    1.223   .     S
C523   C544    1.428   .     S
C523   O574    1.287   .     A
C523   O565    1.287   .     A
C524   C526    1.394   .     A
C524   H555    1.081   .     S
C524   C535    1.402   .     A
C525   C547    1.441   .     S
C525   C548    1.394   .     A
C525   C527    1.391   .     A
C526   C528    1.391   .     A
C526   C546    1.441   .     S
C527   H556    1.085   .     S
C527   C529    1.392   .     A
C528   C530    1.392   .     A
C528   H557    1.085   .     S
C529   C531    1.413   .     A
C529   C536    1.398   .     A
C530   C537    1.398   .     A
C530   C532    1.413   .     A
C531   C533    1.422   .     A
C531   C474    1.402   1_655 S
C532   C535    1.422   .     A
C533   C548    1.402   .     A
C533   C543    1.419   .     A
C534   O575    1.287   .     A
C534   O573    1.287   .     A
C534   C545    1.428   .     S
C535   C542    1.419   .     A
C536   H558    1.085   .     S
C536   C484    1.400   1_655 S
C537   H559    1.085   .     S
C538   C542    1.488   .     S
C538   O566    1.398   .     S
C539   C543    1.488   .     S
C539   O568    1.398   .     S
C539   O683    1.223   .     S
C540   O569    1.223   .     D
C540   O570    1.399   .     S
C540   C660    1.497   .     S
C541   O571    1.223   .     D
C541   O572    1.399   .     S
C543   C479    1.400   1_655 S
C545   C657    1.497   .     S
C545   C660    1.355   .     S
C546   O578    1.291   .     A
C546   O576    1.293   .     A
C547   O579    1.291   .     A
C547   O577    1.293   .     A
C548   H551    1.081   .     S
Cu549  O575    1.955   .     S
Cu549  O565    1.965   .     S
Cu549  O576    1.960   .     S
Cu549  O579    1.944   .     S
Cu549  N564    2.021   .     S
Cu549  Cu550   2.689   .     S
Cu550  O578    1.944   .     S
Cu550  O574    1.955   .     S
Cu550  O577    1.960   .     S
Cu550  O573    1.965   .     S
Cu550  N563    2.021   .     S
H553   O570    1.014   .     S
H554   O572    1.014   .     S
H560   N911    1.029   .     S
H562   O682    1.014   .     S
N564   N911    1.289   .     S
N564   H909    1.029   .     S
O568   H668    1.014   .     S
O580   C654    1.223   .     S
C581   C602    1.428   .     S
C581   O632    1.287   .     A
C581   O623    1.287   .     A
C582   C584    1.394   .     A
C582   H613    1.081   .     S
C582   C593    1.402   .     A
C583   C605    1.441   .     S
C583   C606    1.394   .     A
C583   C585    1.391   .     A
C584   C586    1.391   .     A
C584   C604    1.441   .     S
C585   H614    1.085   .     S
C585   C587    1.392   .     A
C586   C588    1.392   .     A
C586   H615    1.085   .     S
C587   C589    1.413   .     A
C587   C594    1.398   .     A
C588   C595    1.398   .     A
C588   C590    1.413   .     A
C589   C591    1.422   .     A
C589   C648    1.402   .     S
C590   C593    1.422   .     A
C590   C647    1.402   1_455 S
C591   C606    1.402   .     A
C591   C601    1.419   .     A
C592   O633    1.287   .     A
C592   O631    1.287   .     A
C592   C603    1.428   .     S
C593   C600    1.419   .     A
C594   H616    1.085   .     S
C594   C658    1.400   .     S
C595   H617    1.085   .     S
C595   C659    1.400   1_455 S
C596   C600    1.488   .     S
C596   O624    1.398   .     S
C597   C601    1.488   .     S
C597   O626    1.398   .     S
C597   O393    1.223   1_565 S
C598   O627    1.223   .     D
C598   O628    1.399   .     S
C598   C370    1.497   1_565 S
C599   O629    1.223   .     D
C599   O630    1.399   .     S
C600   C652    1.400   1_455 S
C601   C653    1.400   .     S
C603   C367    1.497   1_565 S
C603   C370    1.355   1_565 S
C604   O636    1.291   .     A
C604   O634    1.293   .     A
C605   O637    1.291   .     A
C605   O635    1.293   .     A
C606   H609    1.081   .     S
Cu607  O633    1.955   .     S
Cu607  O623    1.965   .     S
Cu607  O634    1.960   .     S
Cu607  O637    1.944   .     S
Cu607  N622    2.021   .     S
Cu607  Cu608   2.689   .     S
Cu608  O636    1.944   .     S
Cu608  O632    1.955   .     S
Cu608  O635    1.960   .     S
Cu608  O631    1.965   .     S
Cu608  N621    2.021   .     S
H611   O628    1.014   .     S
H612   O630    1.014   .     S
H618   N969    1.029   .     S
H620   O392    1.014   1_565 S
N622   N969    1.289   .     S
N622   H967    1.029   .     S
O626   H378    1.014   1_565 S
O638   C364    1.223   1_565 S
C639   C660    1.428   .     S
C639   O690    1.287   .     A
C639   O681    1.287   .     A
C640   C642    1.394   .     A
C640   H671    1.081   .     S
C640   C651    1.402   .     A
C641   C663    1.441   .     S
C641   C664    1.394   .     A
C641   C643    1.391   .     A
C642   C644    1.391   .     A
C642   C662    1.441   .     S
C643   H672    1.085   .     S
C643   C645    1.392   .     A
C644   C646    1.392   .     A
C644   H673    1.085   .     S
C645   C647    1.413   .     A
C645   C652    1.398   .     A
C646   C653    1.398   .     A
C646   C648    1.413   .     A
C647   C649    1.422   .     A
C647   C590    1.402   1_655 S
C648   C651    1.422   .     A
C649   C664    1.402   .     A
C649   C659    1.419   .     A
C650   O691    1.287   .     A
C650   O689    1.287   .     A
C650   C661    1.428   .     S
C651   C658    1.419   .     A
C652   H674    1.085   .     S
C652   C600    1.400   1_655 S
C653   H675    1.085   .     S
C654   C658    1.488   .     S
C654   O682    1.398   .     S
C655   C659    1.488   .     S
C655   O684    1.398   .     S
C655   O451    1.223   1_565 S
C656   O685    1.223   .     D
C656   O686    1.399   .     S
C656   C428    1.497   1_565 S
C657   O687    1.223   .     D
C657   O688    1.399   .     S
C659   C595    1.400   1_655 S
C661   C425    1.497   1_565 S
C661   C428    1.355   1_565 S
C662   O694    1.291   .     A
C662   O692    1.293   .     A
C663   O695    1.291   .     A
C663   O693    1.293   .     A
C664   H667    1.081   .     S
Cu665  O691    1.955   .     S
Cu665  O681    1.965   .     S
Cu665  O692    1.960   .     S
Cu665  O695    1.944   .     S
Cu665  N680    2.021   .     S
Cu665  Cu666   2.689   .     S
Cu666  O694    1.944   .     S
Cu666  O690    1.955   .     S
Cu666  O693    1.960   .     S
Cu666  O689    1.965   .     S
Cu666  N679    2.021   .     S
H669   O686    1.014   .     S
H670   O688    1.014   .     S
H676   N1027   1.029   .     S
H678   O450    1.014   1_565 S
N680   N1027   1.289   .     S
N680   H1025   1.029   .     S
O684   H436    1.014   1_565 S
O696   C422    1.223   1_565 S
C697   C718    1.428   .     S
C697   O748    1.287   .     A
C697   O739    1.287   .     A
C698   C700    1.394   .     A
C698   H729    1.081   .     S
C698   C709    1.402   .     A
C699   C721    1.441   .     S
C699   C722    1.394   .     A
C699   C701    1.391   .     A
C700   C702    1.391   .     A
C700   C720    1.441   .     S
C701   H730    1.085   .     S
C701   C703    1.392   .     A
C702   C704    1.392   .     A
C702   H731    1.085   .     S
C703   C705    1.413   .     A
C703   C710    1.398   .     A
C704   C711    1.398   .     A
C704   C706    1.413   .     A
C705   C707    1.422   .     A
C705   C764    1.402   .     S
C706   C709    1.422   .     A
C706   C763    1.402   1_455 S
C707   C722    1.402   .     A
C707   C717    1.419   .     A
C708   O749    1.287   .     A
C708   O747    1.287   .     A
C708   C719    1.428   .     S
C709   C716    1.419   .     A
C710   H732    1.085   .     S
C710   C774    1.400   .     S
C711   H733    1.085   .     S
C711   C775    1.400   1_455 S
C712   C716    1.488   .     S
C712   O740    1.398   .     S
C712   O986    1.223   1_545 S
C713   C717    1.488   .     S
C713   O742    1.398   .     S
C713   O857    1.223   .     S
C714   O743    1.223   .     D
C714   O744    1.399   .     S
C714   C834    1.497   .     S
C715   O745    1.223   .     D
C715   O746    1.399   .     S
C715   C951    1.497   1_545 S
C716   C768    1.400   1_455 S
C717   C769    1.400   .     S
C718   C946    1.497   1_545 S
C718   C951    1.355   1_545 S
C719   C831    1.497   .     S
C719   C834    1.355   .     S
C720   O752    1.291   .     A
C720   O750    1.293   .     A
C721   O753    1.291   .     A
C721   O751    1.293   .     A
C722   H725    1.081   .     S
Cu723  O749    1.955   .     S
Cu723  O739    1.965   .     S
Cu723  O750    1.960   .     S
Cu723  O753    1.944   .     S
Cu723  N738    2.021   .     S
Cu723  Cu724   2.689   .     S
Cu724  O752    1.944   .     S
Cu724  O748    1.955   .     S
Cu724  O751    1.960   .     S
Cu724  O747    1.965   .     S
Cu724  N737    2.021   .     S
H726   O974    1.014   1_545 S
H727   O744    1.014   .     S
H728   O746    1.014   .     S
H734   N41     1.029   1_556 S
H736   O856    1.014   .     S
N738   N41     1.289   1_556 S
N738   H39     1.029   1_556 S
O740   H968    1.014   1_545 S
O741   C945    1.223   1_545 S
O742   H842    1.014   .     S
O754   C828    1.223   .     S
C755   C776    1.428   .     S
C755   O806    1.287   .     A
C755   O797    1.287   .     A
C756   C758    1.394   .     A
C756   H787    1.081   .     S
C756   C767    1.402   .     A
C757   C779    1.441   .     S
C757   C780    1.394   .     A
C757   C759    1.391   .     A
C758   C760    1.391   .     A
C758   C778    1.441   .     S
C759   H788    1.085   .     S
C759   C761    1.392   .     A
C760   C762    1.392   .     A
C760   H789    1.085   .     S
C761   C763    1.413   .     A
C761   C768    1.398   .     A
C762   C769    1.398   .     A
C762   C764    1.413   .     A
C763   C765    1.422   .     A
C763   C706    1.402   1_655 S
C764   C767    1.422   .     A
C765   C780    1.402   .     A
C765   C775    1.419   .     A
C766   O807    1.287   .     A
C766   O805    1.287   .     A
C766   C777    1.428   .     S
C767   C774    1.419   .     A
C768   H790    1.085   .     S
C768   C716    1.400   1_655 S
C769   H791    1.085   .     S
C770   C774    1.488   .     S
C770   O798    1.398   .     S
C770   O1044   1.223   1_545 S
C771   C775    1.488   .     S
C771   O800    1.398   .     S
C771   O915    1.223   .     S
C772   O801    1.223   .     D
C772   O802    1.399   .     S
C772   C892    1.497   .     S
C773   O803    1.223   .     D
C773   O804    1.399   .     S
C773   C1009   1.497   1_545 S
C775   C711    1.400   1_655 S
C776   C1004   1.497   1_545 S
C776   C1009   1.355   1_545 S
C777   C889    1.497   .     S
C777   C892    1.355   .     S
C778   O810    1.291   .     A
C778   O808    1.293   .     A
C779   O811    1.291   .     A
C779   O809    1.293   .     A
C780   H783    1.081   .     S
Cu781  O807    1.955   .     S
Cu781  O797    1.965   .     S
Cu781  O808    1.960   .     S
Cu781  O811    1.944   .     S
Cu781  N796    2.021   .     S
Cu781  Cu782   2.689   .     S
Cu782  O810    1.944   .     S
Cu782  O806    1.955   .     S
Cu782  O809    1.960   .     S
Cu782  O805    1.965   .     S
Cu782  N795    2.021   .     S
H784   O1032   1.014   1_545 S
H785   O802    1.014   .     S
H786   O804    1.014   .     S
H792   N99     1.029   1_556 S
H794   O914    1.014   .     S
N796   N99     1.289   1_556 S
N796   H97     1.029   1_556 S
O798   H1026   1.014   1_545 S
O799   C1003   1.223   1_545 S
O800   H900    1.014   .     S
O812   C886    1.223   .     S
C813   C834    1.428   .     S
C813   O864    1.287   .     A
C813   O855    1.287   .     A
C814   C816    1.394   .     A
C814   H845    1.081   .     S
C814   C825    1.402   .     A
C815   C837    1.441   .     S
C815   C838    1.394   .     A
C815   C817    1.391   .     A
C816   C818    1.391   .     A
C816   C836    1.441   .     S
C817   H846    1.085   .     S
C817   C819    1.392   .     A
C818   C820    1.392   .     A
C818   H847    1.085   .     S
C819   C821    1.413   .     A
C819   C826    1.398   .     A
C820   C827    1.398   .     A
C820   C822    1.413   .     A
C821   C823    1.422   .     A
C821   C880    1.402   .     S
C822   C825    1.422   .     A
C822   C879    1.402   1_455 S
C823   C838    1.402   .     A
C823   C833    1.419   .     A
C824   O865    1.287   .     A
C824   O863    1.287   .     A
C824   C835    1.428   .     S
C825   C832    1.419   .     A
C826   H848    1.085   .     S
C826   C890    1.400   .     S
C827   H849    1.085   .     S
C827   C891    1.400   1_455 S
C828   C832    1.488   .     S
C828   O856    1.398   .     S
C829   C833    1.488   .     S
C829   O858    1.398   .     S
C829   O973    1.223   .     S
C830   O859    1.223   .     D
C830   O860    1.399   .     S
C830   C950    1.497   .     S
C831   O861    1.223   .     D
C831   O862    1.399   .     S
C832   C884    1.400   1_455 S
C833   C885    1.400   .     S
C835   C947    1.497   .     S
C835   C950    1.355   .     S
C836   O868    1.291   .     A
C836   O866    1.293   .     A
C837   O869    1.291   .     A
C837   O867    1.293   .     A
C838   H841    1.081   .     S
Cu839  O865    1.955   .     S
Cu839  O855    1.965   .     S
Cu839  O866    1.960   .     S
Cu839  O869    1.944   .     S
Cu839  N854    2.021   .     S
Cu839  Cu840   2.689   .     S
Cu840  O868    1.944   .     S
Cu840  O864    1.955   .     S
Cu840  O867    1.960   .     S
Cu840  O863    1.965   .     S
Cu840  N853    2.021   .     S
H843   O860    1.014   .     S
H844   O862    1.014   .     S
H850   N157    1.029   1_556 S
H852   O972    1.014   .     S
N854   N157    1.289   1_556 S
N854   H155    1.029   1_556 S
O858   H958    1.014   .     S
O870   C944    1.223   .     S
C871   C892    1.428   .     S
C871   O922    1.287   .     A
C871   O913    1.287   .     A
C872   C874    1.394   .     A
C872   H903    1.081   .     S
C872   C883    1.402   .     A
C873   C895    1.441   .     S
C873   C896    1.394   .     A
C873   C875    1.391   .     A
C874   C876    1.391   .     A
C874   C894    1.441   .     S
C875   H904    1.085   .     S
C875   C877    1.392   .     A
C876   C878    1.392   .     A
C876   H905    1.085   .     S
C877   C879    1.413   .     A
C877   C884    1.398   .     A
C878   C885    1.398   .     A
C878   C880    1.413   .     A
C879   C881    1.422   .     A
C879   C822    1.402   1_655 S
C880   C883    1.422   .     A
C881   C896    1.402   .     A
C881   C891    1.419   .     A
C882   O923    1.287   .     A
C882   O921    1.287   .     A
C882   C893    1.428   .     S
C883   C890    1.419   .     A
C884   H906    1.085   .     S
C884   C832    1.400   1_655 S
C885   H907    1.085   .     S
C886   C890    1.488   .     S
C886   O914    1.398   .     S
C887   C891    1.488   .     S
C887   O916    1.398   .     S
C887   O1031   1.223   .     S
C888   O917    1.223   .     D
C888   O918    1.399   .     S
C888   C1008   1.497   .     S
C889   O919    1.223   .     D
C889   O920    1.399   .     S
C891   C827    1.400   1_655 S
C893   C1005   1.497   .     S
C893   C1008   1.355   .     S
C894   O926    1.291   .     A
C894   O924    1.293   .     A
C895   O927    1.291   .     A
C895   O925    1.293   .     A
C896   H899    1.081   .     S
Cu897  O923    1.955   .     S
Cu897  O913    1.965   .     S
Cu897  O924    1.960   .     S
Cu897  O927    1.944   .     S
Cu897  N912    2.021   .     S
Cu897  Cu898   2.689   .     S
Cu898  O926    1.944   .     S
Cu898  O922    1.955   .     S
Cu898  O925    1.960   .     S
Cu898  O921    1.965   .     S
Cu898  N911    2.021   .     S
H901   O918    1.014   .     S
H902   O920    1.014   .     S
H908   N215    1.029   1_556 S
H910   O1030   1.014   .     S
N912   N215    1.289   1_556 S
N912   H213    1.029   1_556 S
O916   H1016   1.014   .     S
O928   C1002   1.223   .     S
C929   C950    1.428   .     S
C929   O980    1.287   .     A
C929   O971    1.287   .     A
C930   C932    1.394   .     A
C930   H961    1.081   .     S
C930   C941    1.402   .     A
C931   C953    1.441   .     S
C931   C954    1.394   .     A
C931   C933    1.391   .     A
C932   C934    1.391   .     A
C932   C952    1.441   .     S
C933   H962    1.085   .     S
C933   C935    1.392   .     A
C934   C936    1.392   .     A
C934   H963    1.085   .     S
C935   C937    1.413   .     A
C935   C942    1.398   .     A
C936   C943    1.398   .     A
C936   C938    1.413   .     A
C937   C939    1.422   .     A
C937   C996    1.402   .     S
C938   C941    1.422   .     A
C938   C995    1.402   1_455 S
C939   C954    1.402   .     A
C939   C949    1.419   .     A
C940   O981    1.287   .     A
C940   O979    1.287   .     A
C940   C951    1.428   .     S
C941   C948    1.419   .     A
C942   H964    1.085   .     S
C942   C1006   1.400   .     S
C943   H965    1.085   .     S
C943   C1007   1.400   1_455 S
C944   C948    1.488   .     S
C944   O972    1.398   .     S
C945   C949    1.488   .     S
C945   O974    1.398   .     S
C945   O741    1.223   1_565 S
C946   O975    1.223   .     D
C946   O976    1.399   .     S
C946   C718    1.497   1_565 S
C947   O977    1.223   .     D
C947   O978    1.399   .     S
C948   C1000   1.400   1_455 S
C949   C1001   1.400   .     S
C951   C715    1.497   1_565 S
C951   C718    1.355   1_565 S
C952   O984    1.291   .     A
C952   O982    1.293   .     A
C953   O985    1.291   .     A
C953   O983    1.293   .     A
C954   H957    1.081   .     S
Cu955  O981    1.955   .     S
Cu955  O971    1.965   .     S
Cu955  O982    1.960   .     S
Cu955  O985    1.944   .     S
Cu955  N970    2.021   .     S
Cu955  Cu956   2.689   .     S
Cu956  O984    1.944   .     S
Cu956  O980    1.955   .     S
Cu956  O983    1.960   .     S
Cu956  O979    1.965   .     S
Cu956  N969    2.021   .     S
H959   O976    1.014   .     S
H960   O978    1.014   .     S
H966   N273    1.029   1_556 S
H968   O740    1.014   1_565 S
N970   N273    1.289   1_556 S
N970   H271    1.029   1_556 S
O974   H726    1.014   1_565 S
O986   C712    1.223   1_565 S
C987   C1008   1.428   .     S
C987   O1038   1.287   .     A
C987   O1029   1.287   .     A
C988   C990    1.394   .     A
C988   H1019   1.081   .     S
C988   C999    1.402   .     A
C989   C1011   1.441   .     S
C989   C1012   1.394   .     A
C989   C991    1.391   .     A
C990   C992    1.391   .     A
C990   C1010   1.441   .     S
C991   H1020   1.085   .     S
C991   C993    1.392   .     A
C992   C994    1.392   .     A
C992   H1021   1.085   .     S
C993   C995    1.413   .     A
C993   C1000   1.398   .     A
C994   C1001   1.398   .     A
C994   C996    1.413   .     A
C995   C997    1.422   .     A
C995   C938    1.402   1_655 S
C996   C999    1.422   .     A
C997   C1012   1.402   .     A
C997   C1007   1.419   .     A
C998   O1039   1.287   .     A
C998   O1037   1.287   .     A
C998   C1009   1.428   .     S
C999   C1006   1.419   .     A
C1000  H1022   1.085   .     S
C1000  C948    1.400   1_655 S
C1001  H1023   1.085   .     S
C1002  C1006   1.488   .     S
C1002  O1030   1.398   .     S
C1003  C1007   1.488   .     S
C1003  O1032   1.398   .     S
C1003  O799    1.223   1_565 S
C1004  O1033   1.223   .     D
C1004  O1034   1.399   .     S
C1004  C776    1.497   1_565 S
C1005  O1035   1.223   .     D
C1005  O1036   1.399   .     S
C1007  C943    1.400   1_655 S
C1009  C773    1.497   1_565 S
C1009  C776    1.355   1_565 S
C1010  O1042   1.291   .     A
C1010  O1040   1.293   .     A
C1011  O1043   1.291   .     A
C1011  O1041   1.293   .     A
C1012  H1015   1.081   .     S
Cu1013 O1039   1.955   .     S
Cu1013 O1029   1.965   .     S
Cu1013 O1040   1.960   .     S
Cu1013 O1043   1.944   .     S
Cu1013 N1028   2.021   .     S
Cu1013 Cu1014  2.689   .     S
Cu1014 O1042   1.944   .     S
Cu1014 O1038   1.955   .     S
Cu1014 O1041   1.960   .     S
Cu1014 O1037   1.965   .     S
Cu1014 N1027   2.021   .     S
H1017  O1034   1.014   .     S
H1018  O1036   1.014   .     S
H1024  N331    1.029   1_556 S
H1026  O798    1.014   1_565 S
N1028  N331    1.289   1_556 S
N1028  H329    1.029   1_556 S
O1032  H784    1.014   1_565 S
O1044  C770    1.223   1_565 S
