data_str_m2_o1_o16_pcu_sym.129
_audit_creation_date              2020-01-03
_audit_creation_method            'Materials Studio'
_symmetry_space_group_name_H-M    'P1'
_symmetry_Int_Tables_number       1
_symmetry_cell_setting            triclinic
loop_
_symmetry_equiv_pos_as_xyz
  x,y,z
_cell_length_a                    28.5388
_cell_length_b                    32.4359
_cell_length_c                    26.9010
_cell_angle_alpha                 90.2828
_cell_angle_beta                  72.4739
_cell_angle_gamma                 90.3463
loop_
_atom_site_label
_atom_site_type_symbol
_atom_site_fract_x
_atom_site_fract_y
_atom_site_fract_z
_atom_site_U_iso_or_equiv
_atom_site_adp_type
_atom_site_occupancy
C1     C     0.16632   0.24598   0.25204   0.00000  Uiso   1.00
C2     C     0.14448   0.16054   0.48977   0.00000  Uiso   1.00
C3     C     0.15687   0.15104   0.43584   0.00000  Uiso   1.00
C4     C     0.18070   0.15535   0.01580   0.00000  Uiso   1.00
C5     C     0.22660   0.13719   0.48912   0.00000  Uiso   1.00
C6     C     0.23551   0.12336   0.43807   0.00000  Uiso   1.00
C7     C     0.20092   0.12954   0.41208   0.00000  Uiso   1.00
C8     C     0.17291   0.16803   0.06752   0.00000  Uiso   1.00
C9     C     0.25324   0.14359   0.06631   0.00000  Uiso   1.00
C10    C     0.12443   0.16284   0.40745   0.00000  Uiso   1.00
C11    C     0.19509   0.31306   0.28042   0.00000  Uiso   1.00
C12    C     0.14043   0.16452   0.35007   0.00000  Uiso   1.00
C13    C     0.19529   0.02276   0.27743   0.00000  Uiso   1.00
C14    C     0.16569   0.04296   0.25237   0.00000  Uiso   1.00
C15    C     0.13520   0.02079   0.22999   0.00000  Uiso   1.00
C16    C     0.13568   0.31157   0.23076   0.00000  Uiso   1.00
C17    C     0.16598   0.29078   0.25474   0.00000  Uiso   1.00
C18    C     0.29846   0.18896   0.28617   0.00000  Uiso   1.00
C19    C     0.01475   0.18902   0.28610   0.00000  Uiso   1.00
C20    C     0.03482   0.14415   0.21403   0.00000  Uiso   1.00
C21    C     0.31855   0.14421   0.21400   0.00000  Uiso   1.00
C22    C     0.16643   0.08743   0.25033   0.00000  Uiso   1.00
C23    C     0.19291   0.16606   0.14997   0.00000  Uiso   1.00
C24    C     0.26274   0.13215   0.01425   0.00000  Uiso   1.00
C25    C     0.20774   0.16063   0.09337   0.00000  Uiso   1.00
C26    C     0.07716   0.17694   0.43435   0.00000  Uiso   1.00
C27    C     0.06289   0.18162   0.48808   0.00000  Uiso   1.00
C28    C     0.09620   0.17443   0.01556   0.00000  Uiso   1.00
Cu29   Cu    0.11978   0.16666   0.25000   0.00000  Uiso   1.00
Cu30   Cu    0.21355   0.16667   0.25000   0.00000  Uiso   1.00
H31    H     0.28062   0.13766   0.08583   0.00000  Uiso   1.00
H32    H     0.21781   0.04110   0.29508   0.00000  Uiso   1.00
H33    H     0.11203   0.03634   0.21070   0.00000  Uiso   1.00
H34    H     0.11295   0.29484   0.21162   0.00000  Uiso   1.00
H35    H     0.27171   0.20671   0.31529   0.00000  Uiso   1.00
H36    H     0.02540   0.20695   0.31498   0.00000  Uiso   1.00
H37    H     0.06150   0.12600   0.18530   0.00000  Uiso   1.00
H38    H     0.30786   0.12618   0.18521   0.00000  Uiso   1.00
H39    H     0.26944   0.10768   0.41805   0.00000  Uiso   1.00
H40    H     0.29786   0.11836   0.49402   0.00000  Uiso   1.00
H41    H     0.13969   0.18351   0.08906   0.00000  Uiso   1.00
H42    H     0.05138   0.18529   0.41371   0.00000  Uiso   1.00
H43    H     0.08250   0.17910   0.05709   0.00000  Uiso   1.00
H44    H     0.02615   0.19216   0.00845   0.00000  Uiso   1.00
H45    H     0.20887   0.11615   0.37362   0.00000  Uiso   1.00
N46    N     0.04931   0.16666   0.24998   0.00000  Uiso   1.00
N47    N     0.28402   0.16669   0.24999   0.00000  Uiso   1.00
O48    O     0.12708   0.22678   0.25000   0.00000  Uiso   1.00
O49    O     0.20627   0.22679   0.25000   0.00000  Uiso   1.00
O50    O     0.10775   0.16665   0.32549   0.00000  Uiso   1.00
O51    O     0.18694   0.16666   0.32549   0.00000  Uiso   1.00
O52    O     0.12706   0.10654   0.24999   0.00000  Uiso   1.00
O53    O     0.20625   0.10655   0.24999   0.00000  Uiso   1.00
O54    O     0.14640   0.16667   0.17451   0.00000  Uiso   1.00
O55    O     0.22559   0.16668   0.17451   0.00000  Uiso   1.00
C56    C     0.22489   0.29097   0.31074   0.00000  Uiso   1.00
C57    C     0.24208   0.31755   0.34917   0.00000  Uiso   1.00
H58    H     0.27100   0.00633   0.32802   0.00000  Uiso   1.00
H59    H     0.21063   0.00106   0.37589   0.00000  Uiso   1.00
H60    H     0.25824   0.29742   0.37294   0.00000  Uiso   1.00
H61    H     0.20191   0.26588   0.33406   0.00000  Uiso   1.00
H62    H     0.25783   0.27705   0.28262   0.00000  Uiso   1.00
C63    C     0.49965   0.24598   0.25204   0.00000  Uiso   1.00
C64    C     0.47781   0.16054   0.48977   0.00000  Uiso   1.00
C65    C     0.49021   0.15104   0.43584   0.00000  Uiso   1.00
C66    C     0.51403   0.15535   0.01580   0.00000  Uiso   1.00
C67    C     0.55994   0.13719   0.48912   0.00000  Uiso   1.00
C68    C     0.56884   0.12336   0.43807   0.00000  Uiso   1.00
C69    C     0.53425   0.12954   0.41208   0.00000  Uiso   1.00
C70    C     0.50625   0.16803   0.06752   0.00000  Uiso   1.00
C71    C     0.58658   0.14359   0.06631   0.00000  Uiso   1.00
C72    C     0.45777   0.16284   0.40745   0.00000  Uiso   1.00
C73    C     0.52843   0.31306   0.28042   0.00000  Uiso   1.00
C74    C     0.47376   0.16452   0.35007   0.00000  Uiso   1.00
C75    C     0.52862   0.02276   0.27743   0.00000  Uiso   1.00
C76    C     0.49902   0.04296   0.25237   0.00000  Uiso   1.00
C77    C     0.46853   0.02079   0.22999   0.00000  Uiso   1.00
C78    C     0.46901   0.31157   0.23076   0.00000  Uiso   1.00
C79    C     0.49931   0.29078   0.25474   0.00000  Uiso   1.00
C80    C     0.63179   0.18896   0.28617   0.00000  Uiso   1.00
C81    C     0.34808   0.18902   0.28610   0.00000  Uiso   1.00
C82    C     0.36815   0.14415   0.21403   0.00000  Uiso   1.00
C83    C     0.65188   0.14421   0.21400   0.00000  Uiso   1.00
C84    C     0.49977   0.08743   0.25033   0.00000  Uiso   1.00
C85    C     0.52625   0.16606   0.14997   0.00000  Uiso   1.00
C86    C     0.59608   0.13215   0.01425   0.00000  Uiso   1.00
C87    C     0.54107   0.16063   0.09337   0.00000  Uiso   1.00
C88    C     0.41050   0.17694   0.43435   0.00000  Uiso   1.00
C89    C     0.39622   0.18162   0.48808   0.00000  Uiso   1.00
C90    C     0.42953   0.17443   0.01556   0.00000  Uiso   1.00
Cu91   Cu    0.45311   0.16666   0.25000   0.00000  Uiso   1.00
Cu92   Cu    0.54689   0.16667   0.25000   0.00000  Uiso   1.00
H93    H     0.61396   0.13766   0.08583   0.00000  Uiso   1.00
H94    H     0.55114   0.04110   0.29508   0.00000  Uiso   1.00
H95    H     0.44536   0.03634   0.21070   0.00000  Uiso   1.00
H96    H     0.44629   0.29484   0.21162   0.00000  Uiso   1.00
H97    H     0.60505   0.20671   0.31529   0.00000  Uiso   1.00
H98    H     0.35873   0.20695   0.31498   0.00000  Uiso   1.00
H99    H     0.39483   0.12600   0.18530   0.00000  Uiso   1.00
H100   H     0.64119   0.12618   0.18521   0.00000  Uiso   1.00
H101   H     0.60277   0.10768   0.41805   0.00000  Uiso   1.00
H102   H     0.63119   0.11836   0.49402   0.00000  Uiso   1.00
H103   H     0.47302   0.18351   0.08906   0.00000  Uiso   1.00
H104   H     0.38471   0.18529   0.41371   0.00000  Uiso   1.00
H105   H     0.41584   0.17910   0.05709   0.00000  Uiso   1.00
H106   H     0.35949   0.19216   0.00845   0.00000  Uiso   1.00
H107   H     0.54220   0.11615   0.37362   0.00000  Uiso   1.00
N108   N     0.38265   0.16666   0.24998   0.00000  Uiso   1.00
N109   N     0.61735   0.16669   0.24999   0.00000  Uiso   1.00
O110   O     0.46042   0.22678   0.25000   0.00000  Uiso   1.00
O111   O     0.53961   0.22679   0.25000   0.00000  Uiso   1.00
O112   O     0.44108   0.16665   0.32549   0.00000  Uiso   1.00
O113   O     0.52027   0.16666   0.32549   0.00000  Uiso   1.00
O114   O     0.46039   0.10654   0.24999   0.00000  Uiso   1.00
O115   O     0.53958   0.10655   0.24999   0.00000  Uiso   1.00
O116   O     0.47973   0.16667   0.17451   0.00000  Uiso   1.00
O117   O     0.55892   0.16668   0.17451   0.00000  Uiso   1.00
C118   C     0.55822   0.29097   0.31074   0.00000  Uiso   1.00
C119   C     0.57541   0.31755   0.34917   0.00000  Uiso   1.00
H120   H     0.60434   0.00633   0.32802   0.00000  Uiso   1.00
H121   H     0.54396   0.00106   0.37589   0.00000  Uiso   1.00
H122   H     0.59157   0.29742   0.37294   0.00000  Uiso   1.00
H123   H     0.53524   0.26588   0.33406   0.00000  Uiso   1.00
H124   H     0.59116   0.27705   0.28262   0.00000  Uiso   1.00
C125   C     0.83298   0.24598   0.25204   0.00000  Uiso   1.00
C126   C     0.81114   0.16054   0.48977   0.00000  Uiso   1.00
C127   C     0.82354   0.15104   0.43584   0.00000  Uiso   1.00
C128   C     0.84737   0.15535   0.01580   0.00000  Uiso   1.00
C129   C     0.89327   0.13719   0.48912   0.00000  Uiso   1.00
C130   C     0.90218   0.12336   0.43807   0.00000  Uiso   1.00
C131   C     0.86759   0.12954   0.41208   0.00000  Uiso   1.00
C132   C     0.83958   0.16803   0.06752   0.00000  Uiso   1.00
C133   C     0.91991   0.14359   0.06631   0.00000  Uiso   1.00
C134   C     0.79110   0.16284   0.40745   0.00000  Uiso   1.00
C135   C     0.86176   0.31306   0.28042   0.00000  Uiso   1.00
C136   C     0.80710   0.16452   0.35007   0.00000  Uiso   1.00
C137   C     0.86195   0.02276   0.27743   0.00000  Uiso   1.00
C138   C     0.83236   0.04296   0.25237   0.00000  Uiso   1.00
C139   C     0.80186   0.02079   0.22999   0.00000  Uiso   1.00
C140   C     0.80235   0.31157   0.23076   0.00000  Uiso   1.00
C141   C     0.83265   0.29078   0.25474   0.00000  Uiso   1.00
C142   C     0.96513   0.18896   0.28617   0.00000  Uiso   1.00
C143   C     0.68142   0.18902   0.28610   0.00000  Uiso   1.00
C144   C     0.70149   0.14415   0.21403   0.00000  Uiso   1.00
C145   C     0.98521   0.14421   0.21400   0.00000  Uiso   1.00
C146   C     0.83310   0.08743   0.25033   0.00000  Uiso   1.00
C147   C     0.85958   0.16606   0.14997   0.00000  Uiso   1.00
C148   C     0.92941   0.13215   0.01425   0.00000  Uiso   1.00
C149   C     0.87440   0.16063   0.09337   0.00000  Uiso   1.00
C150   C     0.74383   0.17694   0.43435   0.00000  Uiso   1.00
C151   C     0.72956   0.18162   0.48808   0.00000  Uiso   1.00
C152   C     0.76286   0.17443   0.01556   0.00000  Uiso   1.00
Cu153  Cu    0.78645   0.16666   0.25000   0.00000  Uiso   1.00
Cu154  Cu    0.88022   0.16667   0.25000   0.00000  Uiso   1.00
H155   H     0.94729   0.13766   0.08583   0.00000  Uiso   1.00
H156   H     0.88447   0.04110   0.29508   0.00000  Uiso   1.00
H157   H     0.77869   0.03634   0.21070   0.00000  Uiso   1.00
H158   H     0.77962   0.29484   0.21162   0.00000  Uiso   1.00
H159   H     0.93838   0.20671   0.31529   0.00000  Uiso   1.00
H160   H     0.69207   0.20695   0.31498   0.00000  Uiso   1.00
H161   H     0.72816   0.12600   0.18530   0.00000  Uiso   1.00
H162   H     0.97453   0.12618   0.18521   0.00000  Uiso   1.00
H163   H     0.93610   0.10768   0.41805   0.00000  Uiso   1.00
H164   H     0.96452   0.11836   0.49402   0.00000  Uiso   1.00
H165   H     0.80636   0.18351   0.08906   0.00000  Uiso   1.00
H166   H     0.71804   0.18529   0.41371   0.00000  Uiso   1.00
H167   H     0.74917   0.17910   0.05709   0.00000  Uiso   1.00
H168   H     0.69282   0.19216   0.00845   0.00000  Uiso   1.00
H169   H     0.87554   0.11615   0.37362   0.00000  Uiso   1.00
N170   N     0.71598   0.16666   0.24998   0.00000  Uiso   1.00
N171   N     0.95069   0.16669   0.24999   0.00000  Uiso   1.00
O172   O     0.79375   0.22678   0.25000   0.00000  Uiso   1.00
O173   O     0.87294   0.22679   0.25000   0.00000  Uiso   1.00
O174   O     0.77441   0.16665   0.32549   0.00000  Uiso   1.00
O175   O     0.85360   0.16666   0.32549   0.00000  Uiso   1.00
O176   O     0.79373   0.10654   0.24999   0.00000  Uiso   1.00
O177   O     0.87292   0.10655   0.24999   0.00000  Uiso   1.00
O178   O     0.81306   0.16667   0.17451   0.00000  Uiso   1.00
O179   O     0.89225   0.16668   0.17451   0.00000  Uiso   1.00
C180   C     0.89155   0.29097   0.31074   0.00000  Uiso   1.00
C181   C     0.90875   0.31755   0.34917   0.00000  Uiso   1.00
H182   H     0.93767   0.00633   0.32802   0.00000  Uiso   1.00
H183   H     0.87730   0.00106   0.37589   0.00000  Uiso   1.00
H184   H     0.92491   0.29742   0.37294   0.00000  Uiso   1.00
H185   H     0.86857   0.26588   0.33406   0.00000  Uiso   1.00
H186   H     0.92449   0.27705   0.28262   0.00000  Uiso   1.00
C187   C     0.16632   0.57931   0.25204   0.00000  Uiso   1.00
C188   C     0.14448   0.49388   0.48977   0.00000  Uiso   1.00
C189   C     0.15687   0.48437   0.43584   0.00000  Uiso   1.00
C190   C     0.18070   0.48868   0.01580   0.00000  Uiso   1.00
C191   C     0.22660   0.47053   0.48912   0.00000  Uiso   1.00
C192   C     0.23551   0.45670   0.43807   0.00000  Uiso   1.00
C193   C     0.20092   0.46287   0.41208   0.00000  Uiso   1.00
C194   C     0.17291   0.50137   0.06752   0.00000  Uiso   1.00
C195   C     0.25324   0.47692   0.06631   0.00000  Uiso   1.00
C196   C     0.12443   0.49617   0.40745   0.00000  Uiso   1.00
C197   C     0.19509   0.64639   0.28042   0.00000  Uiso   1.00
C198   C     0.14043   0.49786   0.35007   0.00000  Uiso   1.00
C199   C     0.19529   0.35609   0.27743   0.00000  Uiso   1.00
C200   C     0.16569   0.37629   0.25237   0.00000  Uiso   1.00
C201   C     0.13520   0.35412   0.22999   0.00000  Uiso   1.00
C202   C     0.13568   0.64491   0.23076   0.00000  Uiso   1.00
C203   C     0.16598   0.62412   0.25474   0.00000  Uiso   1.00
C204   C     0.29846   0.52230   0.28617   0.00000  Uiso   1.00
C205   C     0.01475   0.52235   0.28610   0.00000  Uiso   1.00
C206   C     0.03482   0.47748   0.21403   0.00000  Uiso   1.00
C207   C     0.31855   0.47754   0.21400   0.00000  Uiso   1.00
C208   C     0.16643   0.42076   0.25033   0.00000  Uiso   1.00
C209   C     0.19291   0.49940   0.14997   0.00000  Uiso   1.00
C210   C     0.26274   0.46548   0.01425   0.00000  Uiso   1.00
C211   C     0.20774   0.49397   0.09337   0.00000  Uiso   1.00
C212   C     0.07716   0.51027   0.43435   0.00000  Uiso   1.00
C213   C     0.06289   0.51495   0.48808   0.00000  Uiso   1.00
C214   C     0.09620   0.50776   0.01556   0.00000  Uiso   1.00
Cu215  Cu    0.11978   0.49999   0.25000   0.00000  Uiso   1.00
Cu216  Cu    0.21355   0.50001   0.25000   0.00000  Uiso   1.00
H217   H     0.28062   0.47099   0.08583   0.00000  Uiso   1.00
H218   H     0.21781   0.37443   0.29508   0.00000  Uiso   1.00
H219   H     0.11203   0.36968   0.21070   0.00000  Uiso   1.00
H220   H     0.11295   0.62817   0.21162   0.00000  Uiso   1.00
H221   H     0.27171   0.54005   0.31529   0.00000  Uiso   1.00
H222   H     0.02540   0.54029   0.31498   0.00000  Uiso   1.00
H223   H     0.06150   0.45933   0.18530   0.00000  Uiso   1.00
H224   H     0.30786   0.45951   0.18521   0.00000  Uiso   1.00
H225   H     0.26944   0.44102   0.41805   0.00000  Uiso   1.00
H226   H     0.29786   0.45169   0.49402   0.00000  Uiso   1.00
H227   H     0.13969   0.51685   0.08906   0.00000  Uiso   1.00
H228   H     0.05138   0.51863   0.41371   0.00000  Uiso   1.00
H229   H     0.08250   0.51243   0.05709   0.00000  Uiso   1.00
H230   H     0.02615   0.52550   0.00845   0.00000  Uiso   1.00
H231   H     0.20887   0.44948   0.37362   0.00000  Uiso   1.00
N232   N     0.04931   0.49999   0.24998   0.00000  Uiso   1.00
N233   N     0.28402   0.50002   0.24999   0.00000  Uiso   1.00
O234   O     0.12708   0.56011   0.25000   0.00000  Uiso   1.00
O235   O     0.20627   0.56012   0.25000   0.00000  Uiso   1.00
O236   O     0.10775   0.49998   0.32549   0.00000  Uiso   1.00
O237   O     0.18694   0.49999   0.32549   0.00000  Uiso   1.00
O238   O     0.12706   0.43988   0.24999   0.00000  Uiso   1.00
O239   O     0.20625   0.43989   0.24999   0.00000  Uiso   1.00
O240   O     0.14640   0.50001   0.17451   0.00000  Uiso   1.00
O241   O     0.22559   0.50002   0.17451   0.00000  Uiso   1.00
C242   C     0.22489   0.62430   0.31074   0.00000  Uiso   1.00
C243   C     0.24208   0.65089   0.34917   0.00000  Uiso   1.00
H244   H     0.27100   0.33966   0.32802   0.00000  Uiso   1.00
H245   H     0.21063   0.33440   0.37589   0.00000  Uiso   1.00
H246   H     0.25824   0.63075   0.37294   0.00000  Uiso   1.00
H247   H     0.20191   0.59921   0.33406   0.00000  Uiso   1.00
H248   H     0.25783   0.61038   0.28262   0.00000  Uiso   1.00
C249   C     0.49965   0.57931   0.25204   0.00000  Uiso   1.00
C250   C     0.47781   0.49388   0.48977   0.00000  Uiso   1.00
C251   C     0.49021   0.48437   0.43584   0.00000  Uiso   1.00
C252   C     0.51403   0.48868   0.01580   0.00000  Uiso   1.00
C253   C     0.55994   0.47053   0.48912   0.00000  Uiso   1.00
C254   C     0.56884   0.45670   0.43807   0.00000  Uiso   1.00
C255   C     0.53425   0.46287   0.41208   0.00000  Uiso   1.00
C256   C     0.50625   0.50137   0.06752   0.00000  Uiso   1.00
C257   C     0.58658   0.47692   0.06631   0.00000  Uiso   1.00
C258   C     0.45777   0.49617   0.40745   0.00000  Uiso   1.00
C259   C     0.52843   0.64639   0.28042   0.00000  Uiso   1.00
C260   C     0.47376   0.49786   0.35007   0.00000  Uiso   1.00
C261   C     0.52862   0.35609   0.27743   0.00000  Uiso   1.00
C262   C     0.49902   0.37629   0.25237   0.00000  Uiso   1.00
C263   C     0.46853   0.35412   0.22999   0.00000  Uiso   1.00
C264   C     0.46901   0.64491   0.23076   0.00000  Uiso   1.00
C265   C     0.49931   0.62412   0.25474   0.00000  Uiso   1.00
C266   C     0.63179   0.52230   0.28617   0.00000  Uiso   1.00
C267   C     0.34808   0.52235   0.28610   0.00000  Uiso   1.00
C268   C     0.36815   0.47748   0.21403   0.00000  Uiso   1.00
C269   C     0.65188   0.47754   0.21400   0.00000  Uiso   1.00
C270   C     0.49977   0.42076   0.25033   0.00000  Uiso   1.00
C271   C     0.52625   0.49940   0.14997   0.00000  Uiso   1.00
C272   C     0.59608   0.46548   0.01425   0.00000  Uiso   1.00
C273   C     0.54107   0.49397   0.09337   0.00000  Uiso   1.00
C274   C     0.41050   0.51027   0.43435   0.00000  Uiso   1.00
C275   C     0.39622   0.51495   0.48808   0.00000  Uiso   1.00
C276   C     0.42953   0.50776   0.01556   0.00000  Uiso   1.00
Cu277  Cu    0.45311   0.49999   0.25000   0.00000  Uiso   1.00
Cu278  Cu    0.54689   0.50001   0.25000   0.00000  Uiso   1.00
H279   H     0.61396   0.47099   0.08583   0.00000  Uiso   1.00
H280   H     0.55114   0.37443   0.29508   0.00000  Uiso   1.00
H281   H     0.44536   0.36968   0.21070   0.00000  Uiso   1.00
H282   H     0.44629   0.62817   0.21162   0.00000  Uiso   1.00
H283   H     0.60505   0.54005   0.31529   0.00000  Uiso   1.00
H284   H     0.35873   0.54029   0.31498   0.00000  Uiso   1.00
H285   H     0.39483   0.45933   0.18530   0.00000  Uiso   1.00
H286   H     0.64119   0.45951   0.18521   0.00000  Uiso   1.00
H287   H     0.60277   0.44102   0.41805   0.00000  Uiso   1.00
H288   H     0.63119   0.45169   0.49402   0.00000  Uiso   1.00
H289   H     0.47302   0.51685   0.08906   0.00000  Uiso   1.00
H290   H     0.38471   0.51863   0.41371   0.00000  Uiso   1.00
H291   H     0.41584   0.51243   0.05709   0.00000  Uiso   1.00
H292   H     0.35949   0.52550   0.00845   0.00000  Uiso   1.00
H293   H     0.54220   0.44948   0.37362   0.00000  Uiso   1.00
N294   N     0.38265   0.49999   0.24998   0.00000  Uiso   1.00
N295   N     0.61735   0.50002   0.24999   0.00000  Uiso   1.00
O296   O     0.46042   0.56011   0.25000   0.00000  Uiso   1.00
O297   O     0.53961   0.56012   0.25000   0.00000  Uiso   1.00
O298   O     0.44108   0.49998   0.32549   0.00000  Uiso   1.00
O299   O     0.52027   0.49999   0.32549   0.00000  Uiso   1.00
O300   O     0.46039   0.43988   0.24999   0.00000  Uiso   1.00
O301   O     0.53958   0.43989   0.24999   0.00000  Uiso   1.00
O302   O     0.47973   0.50001   0.17451   0.00000  Uiso   1.00
O303   O     0.55892   0.50002   0.17451   0.00000  Uiso   1.00
C304   C     0.55822   0.62430   0.31074   0.00000  Uiso   1.00
C305   C     0.57541   0.65089   0.34917   0.00000  Uiso   1.00
H306   H     0.60434   0.33966   0.32802   0.00000  Uiso   1.00
H307   H     0.54396   0.33440   0.37589   0.00000  Uiso   1.00
H308   H     0.59157   0.63075   0.37294   0.00000  Uiso   1.00
H309   H     0.53524   0.59921   0.33406   0.00000  Uiso   1.00
H310   H     0.59116   0.61038   0.28262   0.00000  Uiso   1.00
C311   C     0.83298   0.57931   0.25204   0.00000  Uiso   1.00
C312   C     0.81114   0.49388   0.48977   0.00000  Uiso   1.00
C313   C     0.82354   0.48437   0.43584   0.00000  Uiso   1.00
C314   C     0.84737   0.48868   0.01580   0.00000  Uiso   1.00
C315   C     0.89327   0.47053   0.48912   0.00000  Uiso   1.00
C316   C     0.90218   0.45670   0.43807   0.00000  Uiso   1.00
C317   C     0.86759   0.46287   0.41208   0.00000  Uiso   1.00
C318   C     0.83958   0.50137   0.06752   0.00000  Uiso   1.00
C319   C     0.91991   0.47692   0.06631   0.00000  Uiso   1.00
C320   C     0.79110   0.49617   0.40745   0.00000  Uiso   1.00
C321   C     0.86176   0.64639   0.28042   0.00000  Uiso   1.00
C322   C     0.80710   0.49786   0.35007   0.00000  Uiso   1.00
C323   C     0.86195   0.35609   0.27743   0.00000  Uiso   1.00
C324   C     0.83236   0.37629   0.25237   0.00000  Uiso   1.00
C325   C     0.80186   0.35412   0.22999   0.00000  Uiso   1.00
C326   C     0.80235   0.64491   0.23076   0.00000  Uiso   1.00
C327   C     0.83265   0.62412   0.25474   0.00000  Uiso   1.00
C328   C     0.96513   0.52230   0.28617   0.00000  Uiso   1.00
C329   C     0.68142   0.52235   0.28610   0.00000  Uiso   1.00
C330   C     0.70149   0.47748   0.21403   0.00000  Uiso   1.00
C331   C     0.98521   0.47754   0.21400   0.00000  Uiso   1.00
C332   C     0.83310   0.42076   0.25033   0.00000  Uiso   1.00
C333   C     0.85958   0.49940   0.14997   0.00000  Uiso   1.00
C334   C     0.92941   0.46548   0.01425   0.00000  Uiso   1.00
C335   C     0.87440   0.49397   0.09337   0.00000  Uiso   1.00
C336   C     0.74383   0.51027   0.43435   0.00000  Uiso   1.00
C337   C     0.72956   0.51495   0.48808   0.00000  Uiso   1.00
C338   C     0.76286   0.50776   0.01556   0.00000  Uiso   1.00
Cu339  Cu    0.78645   0.49999   0.25000   0.00000  Uiso   1.00
Cu340  Cu    0.88022   0.50001   0.25000   0.00000  Uiso   1.00
H341   H     0.94729   0.47099   0.08583   0.00000  Uiso   1.00
H342   H     0.88447   0.37443   0.29508   0.00000  Uiso   1.00
H343   H     0.77869   0.36968   0.21070   0.00000  Uiso   1.00
H344   H     0.77962   0.62817   0.21162   0.00000  Uiso   1.00
H345   H     0.93838   0.54005   0.31529   0.00000  Uiso   1.00
H346   H     0.69207   0.54029   0.31498   0.00000  Uiso   1.00
H347   H     0.72816   0.45933   0.18530   0.00000  Uiso   1.00
H348   H     0.97453   0.45951   0.18521   0.00000  Uiso   1.00
H349   H     0.93610   0.44102   0.41805   0.00000  Uiso   1.00
H350   H     0.96452   0.45169   0.49402   0.00000  Uiso   1.00
H351   H     0.80636   0.51685   0.08906   0.00000  Uiso   1.00
H352   H     0.71804   0.51863   0.41371   0.00000  Uiso   1.00
H353   H     0.74917   0.51243   0.05709   0.00000  Uiso   1.00
H354   H     0.69282   0.52550   0.00845   0.00000  Uiso   1.00
H355   H     0.87554   0.44948   0.37362   0.00000  Uiso   1.00
N356   N     0.71598   0.49999   0.24998   0.00000  Uiso   1.00
N357   N     0.95069   0.50002   0.24999   0.00000  Uiso   1.00
O358   O     0.79375   0.56011   0.25000   0.00000  Uiso   1.00
O359   O     0.87294   0.56012   0.25000   0.00000  Uiso   1.00
O360   O     0.77441   0.49998   0.32549   0.00000  Uiso   1.00
O361   O     0.85360   0.49999   0.32549   0.00000  Uiso   1.00
O362   O     0.79373   0.43988   0.24999   0.00000  Uiso   1.00
O363   O     0.87292   0.43989   0.24999   0.00000  Uiso   1.00
O364   O     0.81306   0.50001   0.17451   0.00000  Uiso   1.00
O365   O     0.89225   0.50002   0.17451   0.00000  Uiso   1.00
C366   C     0.89155   0.62430   0.31074   0.00000  Uiso   1.00
C367   C     0.90875   0.65089   0.34917   0.00000  Uiso   1.00
H368   H     0.93767   0.33966   0.32802   0.00000  Uiso   1.00
H369   H     0.87730   0.33440   0.37589   0.00000  Uiso   1.00
H370   H     0.92491   0.63075   0.37294   0.00000  Uiso   1.00
H371   H     0.86857   0.59921   0.33406   0.00000  Uiso   1.00
H372   H     0.92449   0.61038   0.28262   0.00000  Uiso   1.00
C373   C     0.16632   0.91265   0.25204   0.00000  Uiso   1.00
C374   C     0.14448   0.82721   0.48977   0.00000  Uiso   1.00
C375   C     0.15687   0.81771   0.43584   0.00000  Uiso   1.00
C376   C     0.18070   0.82201   0.01580   0.00000  Uiso   1.00
C377   C     0.22660   0.80386   0.48912   0.00000  Uiso   1.00
C378   C     0.23551   0.79003   0.43807   0.00000  Uiso   1.00
C379   C     0.20092   0.79620   0.41208   0.00000  Uiso   1.00
C380   C     0.17291   0.83470   0.06752   0.00000  Uiso   1.00
C381   C     0.25324   0.81026   0.06631   0.00000  Uiso   1.00
C382   C     0.12443   0.82950   0.40745   0.00000  Uiso   1.00
C383   C     0.19509   0.97972   0.28042   0.00000  Uiso   1.00
C384   C     0.14043   0.83119   0.35007   0.00000  Uiso   1.00
C385   C     0.19529   0.68943   0.27743   0.00000  Uiso   1.00
C386   C     0.16569   0.70963   0.25237   0.00000  Uiso   1.00
C387   C     0.13520   0.68745   0.22999   0.00000  Uiso   1.00
C388   C     0.13568   0.97824   0.23076   0.00000  Uiso   1.00
C389   C     0.16598   0.95745   0.25474   0.00000  Uiso   1.00
C390   C     0.29846   0.85563   0.28617   0.00000  Uiso   1.00
C391   C     0.01475   0.85568   0.28610   0.00000  Uiso   1.00
C392   C     0.03482   0.81081   0.21403   0.00000  Uiso   1.00
C393   C     0.31855   0.81087   0.21400   0.00000  Uiso   1.00
C394   C     0.16643   0.75410   0.25033   0.00000  Uiso   1.00
C395   C     0.19291   0.83273   0.14997   0.00000  Uiso   1.00
C396   C     0.26274   0.79881   0.01425   0.00000  Uiso   1.00
C397   C     0.20774   0.82730   0.09337   0.00000  Uiso   1.00
C398   C     0.07716   0.84361   0.43435   0.00000  Uiso   1.00
C399   C     0.06289   0.84829   0.48808   0.00000  Uiso   1.00
C400   C     0.09620   0.84109   0.01556   0.00000  Uiso   1.00
Cu401  Cu    0.11978   0.83333   0.25000   0.00000  Uiso   1.00
Cu402  Cu    0.21355   0.83334   0.25000   0.00000  Uiso   1.00
H403   H     0.28062   0.80433   0.08583   0.00000  Uiso   1.00
H404   H     0.21781   0.70776   0.29508   0.00000  Uiso   1.00
H405   H     0.11203   0.70301   0.21070   0.00000  Uiso   1.00
H406   H     0.11295   0.96151   0.21162   0.00000  Uiso   1.00
H407   H     0.27171   0.87338   0.31529   0.00000  Uiso   1.00
H408   H     0.02540   0.87362   0.31498   0.00000  Uiso   1.00
H409   H     0.06150   0.79266   0.18530   0.00000  Uiso   1.00
H410   H     0.30786   0.79285   0.18521   0.00000  Uiso   1.00
H411   H     0.26944   0.77435   0.41805   0.00000  Uiso   1.00
H412   H     0.29786   0.78503   0.49402   0.00000  Uiso   1.00
H413   H     0.13969   0.85018   0.08906   0.00000  Uiso   1.00
H414   H     0.05138   0.85196   0.41371   0.00000  Uiso   1.00
H415   H     0.08250   0.84576   0.05709   0.00000  Uiso   1.00
H416   H     0.02615   0.85883   0.00845   0.00000  Uiso   1.00
H417   H     0.20887   0.78282   0.37362   0.00000  Uiso   1.00
N418   N     0.04931   0.83332   0.24998   0.00000  Uiso   1.00
N419   N     0.28402   0.83335   0.24999   0.00000  Uiso   1.00
O420   O     0.12708   0.89345   0.25000   0.00000  Uiso   1.00
O421   O     0.20627   0.89346   0.25000   0.00000  Uiso   1.00
O422   O     0.10775   0.83332   0.32549   0.00000  Uiso   1.00
O423   O     0.18694   0.83333   0.32549   0.00000  Uiso   1.00
O424   O     0.12706   0.77321   0.24999   0.00000  Uiso   1.00
O425   O     0.20625   0.77322   0.24999   0.00000  Uiso   1.00
O426   O     0.14640   0.83334   0.17451   0.00000  Uiso   1.00
O427   O     0.22559   0.83335   0.17451   0.00000  Uiso   1.00
C428   C     0.22489   0.95763   0.31074   0.00000  Uiso   1.00
C429   C     0.24208   0.98422   0.34917   0.00000  Uiso   1.00
H430   H     0.27100   0.67300   0.32802   0.00000  Uiso   1.00
H431   H     0.21063   0.66773   0.37589   0.00000  Uiso   1.00
H432   H     0.25824   0.96408   0.37294   0.00000  Uiso   1.00
H433   H     0.20191   0.93255   0.33406   0.00000  Uiso   1.00
H434   H     0.25783   0.94371   0.28262   0.00000  Uiso   1.00
C435   C     0.49965   0.91265   0.25204   0.00000  Uiso   1.00
C436   C     0.47781   0.82721   0.48977   0.00000  Uiso   1.00
C437   C     0.49021   0.81771   0.43584   0.00000  Uiso   1.00
C438   C     0.51403   0.82201   0.01580   0.00000  Uiso   1.00
C439   C     0.55994   0.80386   0.48912   0.00000  Uiso   1.00
C440   C     0.56884   0.79003   0.43807   0.00000  Uiso   1.00
C441   C     0.53425   0.79620   0.41208   0.00000  Uiso   1.00
C442   C     0.50625   0.83470   0.06752   0.00000  Uiso   1.00
C443   C     0.58658   0.81026   0.06631   0.00000  Uiso   1.00
C444   C     0.45777   0.82950   0.40745   0.00000  Uiso   1.00
C445   C     0.52843   0.97972   0.28042   0.00000  Uiso   1.00
C446   C     0.47376   0.83119   0.35007   0.00000  Uiso   1.00
C447   C     0.52862   0.68943   0.27743   0.00000  Uiso   1.00
C448   C     0.49902   0.70963   0.25237   0.00000  Uiso   1.00
C449   C     0.46853   0.68745   0.22999   0.00000  Uiso   1.00
C450   C     0.46901   0.97824   0.23076   0.00000  Uiso   1.00
C451   C     0.49931   0.95745   0.25474   0.00000  Uiso   1.00
C452   C     0.63179   0.85563   0.28617   0.00000  Uiso   1.00
C453   C     0.34808   0.85568   0.28610   0.00000  Uiso   1.00
C454   C     0.36815   0.81081   0.21403   0.00000  Uiso   1.00
C455   C     0.65188   0.81087   0.21400   0.00000  Uiso   1.00
C456   C     0.49977   0.75410   0.25033   0.00000  Uiso   1.00
C457   C     0.52625   0.83273   0.14997   0.00000  Uiso   1.00
C458   C     0.59608   0.79881   0.01425   0.00000  Uiso   1.00
C459   C     0.54107   0.82730   0.09337   0.00000  Uiso   1.00
C460   C     0.41050   0.84361   0.43435   0.00000  Uiso   1.00
C461   C     0.39622   0.84829   0.48808   0.00000  Uiso   1.00
C462   C     0.42953   0.84109   0.01556   0.00000  Uiso   1.00
Cu463  Cu    0.45311   0.83333   0.25000   0.00000  Uiso   1.00
Cu464  Cu    0.54689   0.83334   0.25000   0.00000  Uiso   1.00
H465   H     0.61396   0.80433   0.08583   0.00000  Uiso   1.00
H466   H     0.55114   0.70776   0.29508   0.00000  Uiso   1.00
H467   H     0.44536   0.70301   0.21070   0.00000  Uiso   1.00
H468   H     0.44629   0.96151   0.21162   0.00000  Uiso   1.00
H469   H     0.60505   0.87338   0.31529   0.00000  Uiso   1.00
H470   H     0.35873   0.87362   0.31498   0.00000  Uiso   1.00
H471   H     0.39483   0.79266   0.18530   0.00000  Uiso   1.00
H472   H     0.64119   0.79285   0.18521   0.00000  Uiso   1.00
H473   H     0.60277   0.77435   0.41805   0.00000  Uiso   1.00
H474   H     0.63119   0.78503   0.49402   0.00000  Uiso   1.00
H475   H     0.47302   0.85018   0.08906   0.00000  Uiso   1.00
H476   H     0.38471   0.85196   0.41371   0.00000  Uiso   1.00
H477   H     0.41584   0.84576   0.05709   0.00000  Uiso   1.00
H478   H     0.35949   0.85883   0.00845   0.00000  Uiso   1.00
H479   H     0.54220   0.78282   0.37362   0.00000  Uiso   1.00
N480   N     0.38265   0.83332   0.24998   0.00000  Uiso   1.00
N481   N     0.61735   0.83335   0.24999   0.00000  Uiso   1.00
O482   O     0.46042   0.89345   0.25000   0.00000  Uiso   1.00
O483   O     0.53961   0.89346   0.25000   0.00000  Uiso   1.00
O484   O     0.44108   0.83332   0.32549   0.00000  Uiso   1.00
O485   O     0.52027   0.83333   0.32549   0.00000  Uiso   1.00
O486   O     0.46039   0.77321   0.24999   0.00000  Uiso   1.00
O487   O     0.53958   0.77322   0.24999   0.00000  Uiso   1.00
O488   O     0.47973   0.83334   0.17451   0.00000  Uiso   1.00
O489   O     0.55892   0.83335   0.17451   0.00000  Uiso   1.00
C490   C     0.55822   0.95763   0.31074   0.00000  Uiso   1.00
C491   C     0.57541   0.98422   0.34917   0.00000  Uiso   1.00
H492   H     0.60434   0.67300   0.32802   0.00000  Uiso   1.00
H493   H     0.54396   0.66773   0.37589   0.00000  Uiso   1.00
H494   H     0.59157   0.96408   0.37294   0.00000  Uiso   1.00
H495   H     0.53524   0.93255   0.33406   0.00000  Uiso   1.00
H496   H     0.59116   0.94371   0.28262   0.00000  Uiso   1.00
C497   C     0.83298   0.91265   0.25204   0.00000  Uiso   1.00
C498   C     0.81114   0.82721   0.48977   0.00000  Uiso   1.00
C499   C     0.82354   0.81771   0.43584   0.00000  Uiso   1.00
C500   C     0.84737   0.82201   0.01580   0.00000  Uiso   1.00
C501   C     0.89327   0.80386   0.48912   0.00000  Uiso   1.00
C502   C     0.90218   0.79003   0.43807   0.00000  Uiso   1.00
C503   C     0.86759   0.79620   0.41208   0.00000  Uiso   1.00
C504   C     0.83958   0.83470   0.06752   0.00000  Uiso   1.00
C505   C     0.91991   0.81026   0.06631   0.00000  Uiso   1.00
C506   C     0.79110   0.82950   0.40745   0.00000  Uiso   1.00
C507   C     0.86176   0.97972   0.28042   0.00000  Uiso   1.00
C508   C     0.80710   0.83119   0.35007   0.00000  Uiso   1.00
C509   C     0.86195   0.68943   0.27743   0.00000  Uiso   1.00
C510   C     0.83236   0.70963   0.25237   0.00000  Uiso   1.00
C511   C     0.80186   0.68745   0.22999   0.00000  Uiso   1.00
C512   C     0.80235   0.97824   0.23076   0.00000  Uiso   1.00
C513   C     0.83265   0.95745   0.25474   0.00000  Uiso   1.00
C514   C     0.96513   0.85563   0.28617   0.00000  Uiso   1.00
C515   C     0.68142   0.85568   0.28610   0.00000  Uiso   1.00
C516   C     0.70149   0.81081   0.21403   0.00000  Uiso   1.00
C517   C     0.98521   0.81087   0.21400   0.00000  Uiso   1.00
C518   C     0.83310   0.75410   0.25033   0.00000  Uiso   1.00
C519   C     0.85958   0.83273   0.14997   0.00000  Uiso   1.00
C520   C     0.92941   0.79881   0.01425   0.00000  Uiso   1.00
C521   C     0.87440   0.82730   0.09337   0.00000  Uiso   1.00
C522   C     0.74383   0.84361   0.43435   0.00000  Uiso   1.00
C523   C     0.72956   0.84829   0.48808   0.00000  Uiso   1.00
C524   C     0.76286   0.84109   0.01556   0.00000  Uiso   1.00
Cu525  Cu    0.78645   0.83333   0.25000   0.00000  Uiso   1.00
Cu526  Cu    0.88022   0.83334   0.25000   0.00000  Uiso   1.00
H527   H     0.94729   0.80433   0.08583   0.00000  Uiso   1.00
H528   H     0.88447   0.70776   0.29508   0.00000  Uiso   1.00
H529   H     0.77869   0.70301   0.21070   0.00000  Uiso   1.00
H530   H     0.77962   0.96151   0.21162   0.00000  Uiso   1.00
H531   H     0.93838   0.87338   0.31529   0.00000  Uiso   1.00
H532   H     0.69207   0.87362   0.31498   0.00000  Uiso   1.00
H533   H     0.72816   0.79266   0.18530   0.00000  Uiso   1.00
H534   H     0.97453   0.79285   0.18521   0.00000  Uiso   1.00
H535   H     0.93610   0.77435   0.41805   0.00000  Uiso   1.00
H536   H     0.96452   0.78503   0.49402   0.00000  Uiso   1.00
H537   H     0.80636   0.85018   0.08906   0.00000  Uiso   1.00
H538   H     0.71804   0.85196   0.41371   0.00000  Uiso   1.00
H539   H     0.74917   0.84576   0.05709   0.00000  Uiso   1.00
H540   H     0.69282   0.85883   0.00845   0.00000  Uiso   1.00
H541   H     0.87554   0.78282   0.37362   0.00000  Uiso   1.00
N542   N     0.71598   0.83332   0.24998   0.00000  Uiso   1.00
N543   N     0.95069   0.83335   0.24999   0.00000  Uiso   1.00
O544   O     0.79375   0.89345   0.25000   0.00000  Uiso   1.00
O545   O     0.87294   0.89346   0.25000   0.00000  Uiso   1.00
O546   O     0.77441   0.83332   0.32549   0.00000  Uiso   1.00
O547   O     0.85360   0.83333   0.32549   0.00000  Uiso   1.00
O548   O     0.79373   0.77321   0.24999   0.00000  Uiso   1.00
O549   O     0.87292   0.77322   0.24999   0.00000  Uiso   1.00
O550   O     0.81306   0.83334   0.17451   0.00000  Uiso   1.00
O551   O     0.89225   0.83335   0.17451   0.00000  Uiso   1.00
C552   C     0.89155   0.95763   0.31074   0.00000  Uiso   1.00
C553   C     0.90875   0.98422   0.34917   0.00000  Uiso   1.00
H554   H     0.93767   0.67300   0.32802   0.00000  Uiso   1.00
H555   H     0.87730   0.66773   0.37589   0.00000  Uiso   1.00
H556   H     0.92491   0.96408   0.37294   0.00000  Uiso   1.00
H557   H     0.86857   0.93255   0.33406   0.00000  Uiso   1.00
H558   H     0.92449   0.94371   0.28262   0.00000  Uiso   1.00
C559   C     0.16632   0.24598   0.75204   0.00000  Uiso   1.00
C560   C     0.14448   0.16054   0.98977   0.00000  Uiso   1.00
C561   C     0.15687   0.15104   0.93584   0.00000  Uiso   1.00
C562   C     0.18070   0.15535   0.51580   0.00000  Uiso   1.00
C563   C     0.22660   0.13719   0.98912   0.00000  Uiso   1.00
C564   C     0.23551   0.12336   0.93807   0.00000  Uiso   1.00
C565   C     0.20092   0.12954   0.91208   0.00000  Uiso   1.00
C566   C     0.17291   0.16803   0.56752   0.00000  Uiso   1.00
C567   C     0.25324   0.14359   0.56631   0.00000  Uiso   1.00
C568   C     0.12443   0.16284   0.90745   0.00000  Uiso   1.00
C569   C     0.19509   0.31306   0.78042   0.00000  Uiso   1.00
C570   C     0.14043   0.16452   0.85007   0.00000  Uiso   1.00
C571   C     0.19529   0.02276   0.77743   0.00000  Uiso   1.00
C572   C     0.16569   0.04296   0.75237   0.00000  Uiso   1.00
C573   C     0.13520   0.02079   0.72999   0.00000  Uiso   1.00
C574   C     0.13568   0.31157   0.73076   0.00000  Uiso   1.00
C575   C     0.16598   0.29078   0.75474   0.00000  Uiso   1.00
C576   C     0.29846   0.18896   0.78617   0.00000  Uiso   1.00
C577   C     0.01475   0.18902   0.78610   0.00000  Uiso   1.00
C578   C     0.03482   0.14415   0.71403   0.00000  Uiso   1.00
C579   C     0.31855   0.14421   0.71400   0.00000  Uiso   1.00
C580   C     0.16643   0.08743   0.75033   0.00000  Uiso   1.00
C581   C     0.19291   0.16606   0.64997   0.00000  Uiso   1.00
C582   C     0.26274   0.13215   0.51425   0.00000  Uiso   1.00
C583   C     0.20774   0.16063   0.59337   0.00000  Uiso   1.00
C584   C     0.07716   0.17694   0.93435   0.00000  Uiso   1.00
C585   C     0.06289   0.18162   0.98808   0.00000  Uiso   1.00
C586   C     0.09620   0.17443   0.51556   0.00000  Uiso   1.00
Cu587  Cu    0.11978   0.16666   0.75000   0.00000  Uiso   1.00
Cu588  Cu    0.21355   0.16667   0.75000   0.00000  Uiso   1.00
H589   H     0.28062   0.13766   0.58583   0.00000  Uiso   1.00
H590   H     0.21781   0.04110   0.79508   0.00000  Uiso   1.00
H591   H     0.11203   0.03634   0.71070   0.00000  Uiso   1.00
H592   H     0.11295   0.29484   0.71162   0.00000  Uiso   1.00
H593   H     0.27171   0.20671   0.81529   0.00000  Uiso   1.00
H594   H     0.02540   0.20695   0.81498   0.00000  Uiso   1.00
H595   H     0.06150   0.12600   0.68530   0.00000  Uiso   1.00
H596   H     0.30786   0.12618   0.68521   0.00000  Uiso   1.00
H597   H     0.26944   0.10768   0.91805   0.00000  Uiso   1.00
H598   H     0.29786   0.11836   0.99402   0.00000  Uiso   1.00
H599   H     0.13969   0.18351   0.58906   0.00000  Uiso   1.00
H600   H     0.05138   0.18529   0.91371   0.00000  Uiso   1.00
H601   H     0.08250   0.17910   0.55709   0.00000  Uiso   1.00
H602   H     0.02615   0.19216   0.50845   0.00000  Uiso   1.00
H603   H     0.20887   0.11615   0.87362   0.00000  Uiso   1.00
N604   N     0.04931   0.16666   0.74998   0.00000  Uiso   1.00
N605   N     0.28402   0.16669   0.74999   0.00000  Uiso   1.00
O606   O     0.12708   0.22678   0.75000   0.00000  Uiso   1.00
O607   O     0.20627   0.22679   0.75000   0.00000  Uiso   1.00
O608   O     0.10775   0.16665   0.82549   0.00000  Uiso   1.00
O609   O     0.18694   0.16666   0.82549   0.00000  Uiso   1.00
O610   O     0.12706   0.10654   0.74999   0.00000  Uiso   1.00
O611   O     0.20625   0.10655   0.74999   0.00000  Uiso   1.00
O612   O     0.14640   0.16667   0.67451   0.00000  Uiso   1.00
O613   O     0.22559   0.16668   0.67451   0.00000  Uiso   1.00
C614   C     0.22489   0.29097   0.81074   0.00000  Uiso   1.00
C615   C     0.24208   0.31755   0.84917   0.00000  Uiso   1.00
H616   H     0.27100   0.00633   0.82802   0.00000  Uiso   1.00
H617   H     0.21063   0.00106   0.87589   0.00000  Uiso   1.00
H618   H     0.25824   0.29742   0.87294   0.00000  Uiso   1.00
H619   H     0.20191   0.26588   0.83406   0.00000  Uiso   1.00
H620   H     0.25783   0.27705   0.78262   0.00000  Uiso   1.00
C621   C     0.49965   0.24598   0.75204   0.00000  Uiso   1.00
C622   C     0.47781   0.16054   0.98977   0.00000  Uiso   1.00
C623   C     0.49021   0.15104   0.93584   0.00000  Uiso   1.00
C624   C     0.51403   0.15535   0.51580   0.00000  Uiso   1.00
C625   C     0.55994   0.13719   0.98912   0.00000  Uiso   1.00
C626   C     0.56884   0.12336   0.93807   0.00000  Uiso   1.00
C627   C     0.53425   0.12954   0.91208   0.00000  Uiso   1.00
C628   C     0.50625   0.16803   0.56752   0.00000  Uiso   1.00
C629   C     0.58658   0.14359   0.56631   0.00000  Uiso   1.00
C630   C     0.45777   0.16284   0.90745   0.00000  Uiso   1.00
C631   C     0.52843   0.31306   0.78042   0.00000  Uiso   1.00
C632   C     0.47376   0.16452   0.85007   0.00000  Uiso   1.00
C633   C     0.52862   0.02276   0.77743   0.00000  Uiso   1.00
C634   C     0.49902   0.04296   0.75237   0.00000  Uiso   1.00
C635   C     0.46853   0.02079   0.72999   0.00000  Uiso   1.00
C636   C     0.46901   0.31157   0.73076   0.00000  Uiso   1.00
C637   C     0.49931   0.29078   0.75474   0.00000  Uiso   1.00
C638   C     0.63179   0.18896   0.78617   0.00000  Uiso   1.00
C639   C     0.34808   0.18902   0.78610   0.00000  Uiso   1.00
C640   C     0.36815   0.14415   0.71403   0.00000  Uiso   1.00
C641   C     0.65188   0.14421   0.71400   0.00000  Uiso   1.00
C642   C     0.49977   0.08743   0.75033   0.00000  Uiso   1.00
C643   C     0.52625   0.16606   0.64997   0.00000  Uiso   1.00
C644   C     0.59608   0.13215   0.51425   0.00000  Uiso   1.00
C645   C     0.54107   0.16063   0.59337   0.00000  Uiso   1.00
C646   C     0.41050   0.17694   0.93435   0.00000  Uiso   1.00
C647   C     0.39622   0.18162   0.98808   0.00000  Uiso   1.00
C648   C     0.42953   0.17443   0.51556   0.00000  Uiso   1.00
Cu649  Cu    0.45311   0.16666   0.75000   0.00000  Uiso   1.00
Cu650  Cu    0.54689   0.16667   0.75000   0.00000  Uiso   1.00
H651   H     0.61396   0.13766   0.58583   0.00000  Uiso   1.00
H652   H     0.55114   0.04110   0.79508   0.00000  Uiso   1.00
H653   H     0.44536   0.03634   0.71070   0.00000  Uiso   1.00
H654   H     0.44629   0.29484   0.71162   0.00000  Uiso   1.00
H655   H     0.60505   0.20671   0.81529   0.00000  Uiso   1.00
H656   H     0.35873   0.20695   0.81498   0.00000  Uiso   1.00
H657   H     0.39483   0.12600   0.68530   0.00000  Uiso   1.00
H658   H     0.64119   0.12618   0.68521   0.00000  Uiso   1.00
H659   H     0.60277   0.10768   0.91805   0.00000  Uiso   1.00
H660   H     0.63119   0.11836   0.99402   0.00000  Uiso   1.00
H661   H     0.47302   0.18351   0.58906   0.00000  Uiso   1.00
H662   H     0.38471   0.18529   0.91371   0.00000  Uiso   1.00
H663   H     0.41584   0.17910   0.55709   0.00000  Uiso   1.00
H664   H     0.35949   0.19216   0.50845   0.00000  Uiso   1.00
H665   H     0.54220   0.11615   0.87362   0.00000  Uiso   1.00
N666   N     0.38265   0.16666   0.74998   0.00000  Uiso   1.00
N667   N     0.61735   0.16669   0.74999   0.00000  Uiso   1.00
O668   O     0.46042   0.22678   0.75000   0.00000  Uiso   1.00
O669   O     0.53961   0.22679   0.75000   0.00000  Uiso   1.00
O670   O     0.44108   0.16665   0.82549   0.00000  Uiso   1.00
O671   O     0.52027   0.16666   0.82549   0.00000  Uiso   1.00
O672   O     0.46039   0.10654   0.74999   0.00000  Uiso   1.00
O673   O     0.53958   0.10655   0.74999   0.00000  Uiso   1.00
O674   O     0.47973   0.16667   0.67451   0.00000  Uiso   1.00
O675   O     0.55892   0.16668   0.67451   0.00000  Uiso   1.00
C676   C     0.55822   0.29097   0.81074   0.00000  Uiso   1.00
C677   C     0.57541   0.31755   0.84917   0.00000  Uiso   1.00
H678   H     0.60434   0.00633   0.82802   0.00000  Uiso   1.00
H679   H     0.54396   0.00106   0.87589   0.00000  Uiso   1.00
H680   H     0.59157   0.29742   0.87294   0.00000  Uiso   1.00
H681   H     0.53524   0.26588   0.83406   0.00000  Uiso   1.00
H682   H     0.59116   0.27705   0.78262   0.00000  Uiso   1.00
C683   C     0.83298   0.24598   0.75204   0.00000  Uiso   1.00
C684   C     0.81114   0.16054   0.98977   0.00000  Uiso   1.00
C685   C     0.82354   0.15104   0.93584   0.00000  Uiso   1.00
C686   C     0.84737   0.15535   0.51580   0.00000  Uiso   1.00
C687   C     0.89327   0.13719   0.98912   0.00000  Uiso   1.00
C688   C     0.90218   0.12336   0.93807   0.00000  Uiso   1.00
C689   C     0.86759   0.12954   0.91208   0.00000  Uiso   1.00
C690   C     0.83958   0.16803   0.56752   0.00000  Uiso   1.00
C691   C     0.91991   0.14359   0.56631   0.00000  Uiso   1.00
C692   C     0.79110   0.16284   0.90745   0.00000  Uiso   1.00
C693   C     0.86176   0.31306   0.78042   0.00000  Uiso   1.00
C694   C     0.80710   0.16452   0.85007   0.00000  Uiso   1.00
C695   C     0.86195   0.02276   0.77743   0.00000  Uiso   1.00
C696   C     0.83236   0.04296   0.75237   0.00000  Uiso   1.00
C697   C     0.80186   0.02079   0.72999   0.00000  Uiso   1.00
C698   C     0.80235   0.31157   0.73076   0.00000  Uiso   1.00
C699   C     0.83265   0.29078   0.75474   0.00000  Uiso   1.00
C700   C     0.96513   0.18896   0.78617   0.00000  Uiso   1.00
C701   C     0.68142   0.18902   0.78610   0.00000  Uiso   1.00
C702   C     0.70149   0.14415   0.71403   0.00000  Uiso   1.00
C703   C     0.98521   0.14421   0.71400   0.00000  Uiso   1.00
C704   C     0.83310   0.08743   0.75033   0.00000  Uiso   1.00
C705   C     0.85958   0.16606   0.64997   0.00000  Uiso   1.00
C706   C     0.92941   0.13215   0.51425   0.00000  Uiso   1.00
C707   C     0.87440   0.16063   0.59337   0.00000  Uiso   1.00
C708   C     0.74383   0.17694   0.93435   0.00000  Uiso   1.00
C709   C     0.72956   0.18162   0.98808   0.00000  Uiso   1.00
C710   C     0.76286   0.17443   0.51556   0.00000  Uiso   1.00
Cu711  Cu    0.78645   0.16666   0.75000   0.00000  Uiso   1.00
Cu712  Cu    0.88022   0.16667   0.75000   0.00000  Uiso   1.00
H713   H     0.94729   0.13766   0.58583   0.00000  Uiso   1.00
H714   H     0.88447   0.04110   0.79508   0.00000  Uiso   1.00
H715   H     0.77869   0.03634   0.71070   0.00000  Uiso   1.00
H716   H     0.77962   0.29484   0.71162   0.00000  Uiso   1.00
H717   H     0.93838   0.20671   0.81529   0.00000  Uiso   1.00
H718   H     0.69207   0.20695   0.81498   0.00000  Uiso   1.00
H719   H     0.72816   0.12600   0.68530   0.00000  Uiso   1.00
H720   H     0.97453   0.12618   0.68521   0.00000  Uiso   1.00
H721   H     0.93610   0.10768   0.91805   0.00000  Uiso   1.00
H722   H     0.96452   0.11836   0.99402   0.00000  Uiso   1.00
H723   H     0.80636   0.18351   0.58906   0.00000  Uiso   1.00
H724   H     0.71804   0.18529   0.91371   0.00000  Uiso   1.00
H725   H     0.74917   0.17910   0.55709   0.00000  Uiso   1.00
H726   H     0.69282   0.19216   0.50845   0.00000  Uiso   1.00
H727   H     0.87554   0.11615   0.87362   0.00000  Uiso   1.00
N728   N     0.71598   0.16666   0.74998   0.00000  Uiso   1.00
N729   N     0.95069   0.16669   0.74999   0.00000  Uiso   1.00
O730   O     0.79375   0.22678   0.75000   0.00000  Uiso   1.00
O731   O     0.87294   0.22679   0.75000   0.00000  Uiso   1.00
O732   O     0.77441   0.16665   0.82549   0.00000  Uiso   1.00
O733   O     0.85360   0.16666   0.82549   0.00000  Uiso   1.00
O734   O     0.79373   0.10654   0.74999   0.00000  Uiso   1.00
O735   O     0.87292   0.10655   0.74999   0.00000  Uiso   1.00
O736   O     0.81306   0.16667   0.67451   0.00000  Uiso   1.00
O737   O     0.89225   0.16668   0.67451   0.00000  Uiso   1.00
C738   C     0.89155   0.29097   0.81074   0.00000  Uiso   1.00
C739   C     0.90875   0.31755   0.84917   0.00000  Uiso   1.00
H740   H     0.93767   0.00633   0.82802   0.00000  Uiso   1.00
H741   H     0.87730   0.00106   0.87589   0.00000  Uiso   1.00
H742   H     0.92491   0.29742   0.87294   0.00000  Uiso   1.00
H743   H     0.86857   0.26588   0.83406   0.00000  Uiso   1.00
H744   H     0.92449   0.27705   0.78262   0.00000  Uiso   1.00
C745   C     0.16632   0.57931   0.75204   0.00000  Uiso   1.00
C746   C     0.14448   0.49388   0.98977   0.00000  Uiso   1.00
C747   C     0.15687   0.48437   0.93584   0.00000  Uiso   1.00
C748   C     0.18070   0.48868   0.51580   0.00000  Uiso   1.00
C749   C     0.22660   0.47053   0.98912   0.00000  Uiso   1.00
C750   C     0.23551   0.45670   0.93807   0.00000  Uiso   1.00
C751   C     0.20092   0.46287   0.91208   0.00000  Uiso   1.00
C752   C     0.17291   0.50137   0.56752   0.00000  Uiso   1.00
C753   C     0.25324   0.47692   0.56631   0.00000  Uiso   1.00
C754   C     0.12443   0.49617   0.90745   0.00000  Uiso   1.00
C755   C     0.19509   0.64639   0.78042   0.00000  Uiso   1.00
C756   C     0.14043   0.49786   0.85007   0.00000  Uiso   1.00
C757   C     0.19529   0.35609   0.77743   0.00000  Uiso   1.00
C758   C     0.16569   0.37629   0.75237   0.00000  Uiso   1.00
C759   C     0.13520   0.35412   0.72999   0.00000  Uiso   1.00
C760   C     0.13568   0.64491   0.73076   0.00000  Uiso   1.00
C761   C     0.16598   0.62412   0.75474   0.00000  Uiso   1.00
C762   C     0.29846   0.52230   0.78617   0.00000  Uiso   1.00
C763   C     0.01475   0.52235   0.78610   0.00000  Uiso   1.00
C764   C     0.03482   0.47748   0.71403   0.00000  Uiso   1.00
C765   C     0.31855   0.47754   0.71400   0.00000  Uiso   1.00
C766   C     0.16643   0.42076   0.75033   0.00000  Uiso   1.00
C767   C     0.19291   0.49940   0.64997   0.00000  Uiso   1.00
C768   C     0.26274   0.46548   0.51425   0.00000  Uiso   1.00
C769   C     0.20774   0.49397   0.59337   0.00000  Uiso   1.00
C770   C     0.07716   0.51027   0.93435   0.00000  Uiso   1.00
C771   C     0.06289   0.51495   0.98808   0.00000  Uiso   1.00
C772   C     0.09620   0.50776   0.51556   0.00000  Uiso   1.00
Cu773  Cu    0.11978   0.49999   0.75000   0.00000  Uiso   1.00
Cu774  Cu    0.21355   0.50001   0.75000   0.00000  Uiso   1.00
H775   H     0.28062   0.47099   0.58583   0.00000  Uiso   1.00
H776   H     0.21781   0.37443   0.79508   0.00000  Uiso   1.00
H777   H     0.11203   0.36968   0.71070   0.00000  Uiso   1.00
H778   H     0.11295   0.62817   0.71162   0.00000  Uiso   1.00
H779   H     0.27171   0.54005   0.81529   0.00000  Uiso   1.00
H780   H     0.02540   0.54029   0.81498   0.00000  Uiso   1.00
H781   H     0.06150   0.45933   0.68530   0.00000  Uiso   1.00
H782   H     0.30786   0.45951   0.68521   0.00000  Uiso   1.00
H783   H     0.26944   0.44102   0.91805   0.00000  Uiso   1.00
H784   H     0.29786   0.45169   0.99402   0.00000  Uiso   1.00
H785   H     0.13969   0.51685   0.58906   0.00000  Uiso   1.00
H786   H     0.05138   0.51863   0.91371   0.00000  Uiso   1.00
H787   H     0.08250   0.51243   0.55709   0.00000  Uiso   1.00
H788   H     0.02615   0.52550   0.50845   0.00000  Uiso   1.00
H789   H     0.20887   0.44948   0.87362   0.00000  Uiso   1.00
N790   N     0.04931   0.49999   0.74998   0.00000  Uiso   1.00
N791   N     0.28402   0.50002   0.74999   0.00000  Uiso   1.00
O792   O     0.12708   0.56011   0.75000   0.00000  Uiso   1.00
O793   O     0.20627   0.56012   0.75000   0.00000  Uiso   1.00
O794   O     0.10775   0.49998   0.82549   0.00000  Uiso   1.00
O795   O     0.18694   0.49999   0.82549   0.00000  Uiso   1.00
O796   O     0.12706   0.43988   0.74999   0.00000  Uiso   1.00
O797   O     0.20625   0.43989   0.74999   0.00000  Uiso   1.00
O798   O     0.14640   0.50001   0.67451   0.00000  Uiso   1.00
O799   O     0.22559   0.50002   0.67451   0.00000  Uiso   1.00
C800   C     0.22489   0.62430   0.81074   0.00000  Uiso   1.00
C801   C     0.24208   0.65089   0.84917   0.00000  Uiso   1.00
H802   H     0.27100   0.33966   0.82802   0.00000  Uiso   1.00
H803   H     0.21063   0.33440   0.87589   0.00000  Uiso   1.00
H804   H     0.25824   0.63075   0.87294   0.00000  Uiso   1.00
H805   H     0.20191   0.59921   0.83406   0.00000  Uiso   1.00
H806   H     0.25783   0.61038   0.78262   0.00000  Uiso   1.00
C807   C     0.49965   0.57931   0.75204   0.00000  Uiso   1.00
C808   C     0.47781   0.49388   0.98977   0.00000  Uiso   1.00
C809   C     0.49021   0.48437   0.93584   0.00000  Uiso   1.00
C810   C     0.51403   0.48868   0.51580   0.00000  Uiso   1.00
C811   C     0.55994   0.47053   0.98912   0.00000  Uiso   1.00
C812   C     0.56884   0.45670   0.93807   0.00000  Uiso   1.00
C813   C     0.53425   0.46287   0.91208   0.00000  Uiso   1.00
C814   C     0.50625   0.50137   0.56752   0.00000  Uiso   1.00
C815   C     0.58658   0.47692   0.56631   0.00000  Uiso   1.00
C816   C     0.45777   0.49617   0.90745   0.00000  Uiso   1.00
C817   C     0.52843   0.64639   0.78042   0.00000  Uiso   1.00
C818   C     0.47376   0.49786   0.85007   0.00000  Uiso   1.00
C819   C     0.52862   0.35609   0.77743   0.00000  Uiso   1.00
C820   C     0.49902   0.37629   0.75237   0.00000  Uiso   1.00
C821   C     0.46853   0.35412   0.72999   0.00000  Uiso   1.00
C822   C     0.46901   0.64491   0.73076   0.00000  Uiso   1.00
C823   C     0.49931   0.62412   0.75474   0.00000  Uiso   1.00
C824   C     0.63179   0.52230   0.78617   0.00000  Uiso   1.00
C825   C     0.34808   0.52235   0.78610   0.00000  Uiso   1.00
C826   C     0.36815   0.47748   0.71403   0.00000  Uiso   1.00
C827   C     0.65188   0.47754   0.71400   0.00000  Uiso   1.00
C828   C     0.49977   0.42076   0.75033   0.00000  Uiso   1.00
C829   C     0.52625   0.49940   0.64997   0.00000  Uiso   1.00
C830   C     0.59608   0.46548   0.51425   0.00000  Uiso   1.00
C831   C     0.54107   0.49397   0.59337   0.00000  Uiso   1.00
C832   C     0.41050   0.51027   0.93435   0.00000  Uiso   1.00
C833   C     0.39622   0.51495   0.98808   0.00000  Uiso   1.00
C834   C     0.42953   0.50776   0.51556   0.00000  Uiso   1.00
Cu835  Cu    0.45311   0.49999   0.75000   0.00000  Uiso   1.00
Cu836  Cu    0.54689   0.50001   0.75000   0.00000  Uiso   1.00
H837   H     0.61396   0.47099   0.58583   0.00000  Uiso   1.00
H838   H     0.55114   0.37443   0.79508   0.00000  Uiso   1.00
H839   H     0.44536   0.36968   0.71070   0.00000  Uiso   1.00
H840   H     0.44629   0.62817   0.71162   0.00000  Uiso   1.00
H841   H     0.60505   0.54005   0.81529   0.00000  Uiso   1.00
H842   H     0.35873   0.54029   0.81498   0.00000  Uiso   1.00
H843   H     0.39483   0.45933   0.68530   0.00000  Uiso   1.00
H844   H     0.64119   0.45951   0.68521   0.00000  Uiso   1.00
H845   H     0.60277   0.44102   0.91805   0.00000  Uiso   1.00
H846   H     0.63119   0.45169   0.99402   0.00000  Uiso   1.00
H847   H     0.47302   0.51685   0.58906   0.00000  Uiso   1.00
H848   H     0.38471   0.51863   0.91371   0.00000  Uiso   1.00
H849   H     0.41584   0.51243   0.55709   0.00000  Uiso   1.00
H850   H     0.35949   0.52550   0.50845   0.00000  Uiso   1.00
H851   H     0.54220   0.44948   0.87362   0.00000  Uiso   1.00
N852   N     0.38265   0.49999   0.74998   0.00000  Uiso   1.00
N853   N     0.61735   0.50002   0.74999   0.00000  Uiso   1.00
O854   O     0.46042   0.56011   0.75000   0.00000  Uiso   1.00
O855   O     0.53961   0.56012   0.75000   0.00000  Uiso   1.00
O856   O     0.44108   0.49998   0.82549   0.00000  Uiso   1.00
O857   O     0.52027   0.49999   0.82549   0.00000  Uiso   1.00
O858   O     0.46039   0.43988   0.74999   0.00000  Uiso   1.00
O859   O     0.53958   0.43989   0.74999   0.00000  Uiso   1.00
O860   O     0.47973   0.50001   0.67451   0.00000  Uiso   1.00
O861   O     0.55892   0.50002   0.67451   0.00000  Uiso   1.00
C862   C     0.55822   0.62430   0.81074   0.00000  Uiso   1.00
C863   C     0.57541   0.65089   0.84917   0.00000  Uiso   1.00
H864   H     0.60434   0.33966   0.82802   0.00000  Uiso   1.00
H865   H     0.54396   0.33440   0.87589   0.00000  Uiso   1.00
H866   H     0.59157   0.63075   0.87294   0.00000  Uiso   1.00
H867   H     0.53524   0.59921   0.83406   0.00000  Uiso   1.00
H868   H     0.59116   0.61038   0.78262   0.00000  Uiso   1.00
C869   C     0.83298   0.57931   0.75204   0.00000  Uiso   1.00
C870   C     0.81114   0.49388   0.98977   0.00000  Uiso   1.00
C871   C     0.82354   0.48437   0.93584   0.00000  Uiso   1.00
C872   C     0.84737   0.48868   0.51580   0.00000  Uiso   1.00
C873   C     0.89327   0.47053   0.98912   0.00000  Uiso   1.00
C874   C     0.90218   0.45670   0.93807   0.00000  Uiso   1.00
C875   C     0.86759   0.46287   0.91208   0.00000  Uiso   1.00
C876   C     0.83958   0.50137   0.56752   0.00000  Uiso   1.00
C877   C     0.91991   0.47692   0.56631   0.00000  Uiso   1.00
C878   C     0.79110   0.49617   0.90745   0.00000  Uiso   1.00
C879   C     0.86176   0.64639   0.78042   0.00000  Uiso   1.00
C880   C     0.80710   0.49786   0.85007   0.00000  Uiso   1.00
C881   C     0.86195   0.35609   0.77743   0.00000  Uiso   1.00
C882   C     0.83236   0.37629   0.75237   0.00000  Uiso   1.00
C883   C     0.80186   0.35412   0.72999   0.00000  Uiso   1.00
C884   C     0.80235   0.64491   0.73076   0.00000  Uiso   1.00
C885   C     0.83265   0.62412   0.75474   0.00000  Uiso   1.00
C886   C     0.96513   0.52230   0.78617   0.00000  Uiso   1.00
C887   C     0.68142   0.52235   0.78610   0.00000  Uiso   1.00
C888   C     0.70149   0.47748   0.71403   0.00000  Uiso   1.00
C889   C     0.98521   0.47754   0.71400   0.00000  Uiso   1.00
C890   C     0.83310   0.42076   0.75033   0.00000  Uiso   1.00
C891   C     0.85958   0.49940   0.64997   0.00000  Uiso   1.00
C892   C     0.92941   0.46548   0.51425   0.00000  Uiso   1.00
C893   C     0.87440   0.49397   0.59337   0.00000  Uiso   1.00
C894   C     0.74383   0.51027   0.93435   0.00000  Uiso   1.00
C895   C     0.72956   0.51495   0.98808   0.00000  Uiso   1.00
C896   C     0.76286   0.50776   0.51556   0.00000  Uiso   1.00
Cu897  Cu    0.78645   0.49999   0.75000   0.00000  Uiso   1.00
Cu898  Cu    0.88022   0.50001   0.75000   0.00000  Uiso   1.00
H899   H     0.94729   0.47099   0.58583   0.00000  Uiso   1.00
H900   H     0.88447   0.37443   0.79508   0.00000  Uiso   1.00
H901   H     0.77869   0.36968   0.71070   0.00000  Uiso   1.00
H902   H     0.77962   0.62817   0.71162   0.00000  Uiso   1.00
H903   H     0.93838   0.54005   0.81529   0.00000  Uiso   1.00
H904   H     0.69207   0.54029   0.81498   0.00000  Uiso   1.00
H905   H     0.72816   0.45933   0.68530   0.00000  Uiso   1.00
H906   H     0.97453   0.45951   0.68521   0.00000  Uiso   1.00
H907   H     0.93610   0.44102   0.91805   0.00000  Uiso   1.00
H908   H     0.96452   0.45169   0.99402   0.00000  Uiso   1.00
H909   H     0.80636   0.51685   0.58906   0.00000  Uiso   1.00
H910   H     0.71804   0.51863   0.91371   0.00000  Uiso   1.00
H911   H     0.74917   0.51243   0.55709   0.00000  Uiso   1.00
H912   H     0.69282   0.52550   0.50845   0.00000  Uiso   1.00
H913   H     0.87554   0.44948   0.87362   0.00000  Uiso   1.00
N914   N     0.71598   0.49999   0.74998   0.00000  Uiso   1.00
N915   N     0.95069   0.50002   0.74999   0.00000  Uiso   1.00
O916   O     0.79375   0.56011   0.75000   0.00000  Uiso   1.00
O917   O     0.87294   0.56012   0.75000   0.00000  Uiso   1.00
O918   O     0.77441   0.49998   0.82549   0.00000  Uiso   1.00
O919   O     0.85360   0.49999   0.82549   0.00000  Uiso   1.00
O920   O     0.79373   0.43988   0.74999   0.00000  Uiso   1.00
O921   O     0.87292   0.43989   0.74999   0.00000  Uiso   1.00
O922   O     0.81306   0.50001   0.67451   0.00000  Uiso   1.00
O923   O     0.89225   0.50002   0.67451   0.00000  Uiso   1.00
C924   C     0.89155   0.62430   0.81074   0.00000  Uiso   1.00
C925   C     0.90875   0.65089   0.84917   0.00000  Uiso   1.00
H926   H     0.93767   0.33966   0.82802   0.00000  Uiso   1.00
H927   H     0.87730   0.33440   0.87589   0.00000  Uiso   1.00
H928   H     0.92491   0.63075   0.87294   0.00000  Uiso   1.00
H929   H     0.86857   0.59921   0.83406   0.00000  Uiso   1.00
H930   H     0.92449   0.61038   0.78262   0.00000  Uiso   1.00
C931   C     0.16632   0.91265   0.75204   0.00000  Uiso   1.00
C932   C     0.14448   0.82721   0.98977   0.00000  Uiso   1.00
C933   C     0.15687   0.81771   0.93584   0.00000  Uiso   1.00
C934   C     0.18070   0.82201   0.51580   0.00000  Uiso   1.00
C935   C     0.22660   0.80386   0.98912   0.00000  Uiso   1.00
C936   C     0.23551   0.79003   0.93807   0.00000  Uiso   1.00
C937   C     0.20092   0.79620   0.91208   0.00000  Uiso   1.00
C938   C     0.17291   0.83470   0.56752   0.00000  Uiso   1.00
C939   C     0.25324   0.81026   0.56631   0.00000  Uiso   1.00
C940   C     0.12443   0.82950   0.90745   0.00000  Uiso   1.00
C941   C     0.19509   0.97972   0.78042   0.00000  Uiso   1.00
C942   C     0.14043   0.83119   0.85007   0.00000  Uiso   1.00
C943   C     0.19529   0.68943   0.77743   0.00000  Uiso   1.00
C944   C     0.16569   0.70963   0.75237   0.00000  Uiso   1.00
C945   C     0.13520   0.68745   0.72999   0.00000  Uiso   1.00
C946   C     0.13568   0.97824   0.73076   0.00000  Uiso   1.00
C947   C     0.16598   0.95745   0.75474   0.00000  Uiso   1.00
C948   C     0.29846   0.85563   0.78617   0.00000  Uiso   1.00
C949   C     0.01475   0.85568   0.78610   0.00000  Uiso   1.00
C950   C     0.03482   0.81081   0.71403   0.00000  Uiso   1.00
C951   C     0.31855   0.81087   0.71400   0.00000  Uiso   1.00
C952   C     0.16643   0.75410   0.75033   0.00000  Uiso   1.00
C953   C     0.19291   0.83273   0.64997   0.00000  Uiso   1.00
C954   C     0.26274   0.79881   0.51425   0.00000  Uiso   1.00
C955   C     0.20774   0.82730   0.59337   0.00000  Uiso   1.00
C956   C     0.07716   0.84361   0.93435   0.00000  Uiso   1.00
C957   C     0.06289   0.84829   0.98808   0.00000  Uiso   1.00
C958   C     0.09620   0.84109   0.51556   0.00000  Uiso   1.00
Cu959  Cu    0.11978   0.83333   0.75000   0.00000  Uiso   1.00
Cu960  Cu    0.21355   0.83334   0.75000   0.00000  Uiso   1.00
H961   H     0.28062   0.80433   0.58583   0.00000  Uiso   1.00
H962   H     0.21781   0.70776   0.79508   0.00000  Uiso   1.00
H963   H     0.11203   0.70301   0.71070   0.00000  Uiso   1.00
H964   H     0.11295   0.96151   0.71162   0.00000  Uiso   1.00
H965   H     0.27171   0.87338   0.81529   0.00000  Uiso   1.00
H966   H     0.02540   0.87362   0.81498   0.00000  Uiso   1.00
H967   H     0.06150   0.79266   0.68530   0.00000  Uiso   1.00
H968   H     0.30786   0.79285   0.68521   0.00000  Uiso   1.00
H969   H     0.26944   0.77435   0.91805   0.00000  Uiso   1.00
H970   H     0.29786   0.78503   0.99402   0.00000  Uiso   1.00
H971   H     0.13969   0.85018   0.58906   0.00000  Uiso   1.00
H972   H     0.05138   0.85196   0.91371   0.00000  Uiso   1.00
H973   H     0.08250   0.84576   0.55709   0.00000  Uiso   1.00
H974   H     0.02615   0.85883   0.50845   0.00000  Uiso   1.00
H975   H     0.20887   0.78282   0.87362   0.00000  Uiso   1.00
N976   N     0.04931   0.83332   0.74998   0.00000  Uiso   1.00
N977   N     0.28402   0.83335   0.74999   0.00000  Uiso   1.00
O978   O     0.12708   0.89345   0.75000   0.00000  Uiso   1.00
O979   O     0.20627   0.89346   0.75000   0.00000  Uiso   1.00
O980   O     0.10775   0.83332   0.82549   0.00000  Uiso   1.00
O981   O     0.18694   0.83333   0.82549   0.00000  Uiso   1.00
O982   O     0.12706   0.77321   0.74999   0.00000  Uiso   1.00
O983   O     0.20625   0.77322   0.74999   0.00000  Uiso   1.00
O984   O     0.14640   0.83334   0.67451   0.00000  Uiso   1.00
O985   O     0.22559   0.83335   0.67451   0.00000  Uiso   1.00
C986   C     0.22489   0.95763   0.81074   0.00000  Uiso   1.00
C987   C     0.24208   0.98422   0.84917   0.00000  Uiso   1.00
H988   H     0.27100   0.67300   0.82802   0.00000  Uiso   1.00
H989   H     0.21063   0.66773   0.87589   0.00000  Uiso   1.00
H990   H     0.25824   0.96408   0.87294   0.00000  Uiso   1.00
H991   H     0.20191   0.93255   0.83406   0.00000  Uiso   1.00
H992   H     0.25783   0.94371   0.78262   0.00000  Uiso   1.00
C993   C     0.49965   0.91265   0.75204   0.00000  Uiso   1.00
C994   C     0.47781   0.82721   0.98977   0.00000  Uiso   1.00
C995   C     0.49021   0.81771   0.93584   0.00000  Uiso   1.00
C996   C     0.51403   0.82201   0.51580   0.00000  Uiso   1.00
C997   C     0.55994   0.80386   0.98912   0.00000  Uiso   1.00
C998   C     0.56884   0.79003   0.93807   0.00000  Uiso   1.00
C999   C     0.53425   0.79620   0.91208   0.00000  Uiso   1.00
C1000  C     0.50625   0.83470   0.56752   0.00000  Uiso   1.00
C1001  C     0.58658   0.81026   0.56631   0.00000  Uiso   1.00
C1002  C     0.45777   0.82950   0.90745   0.00000  Uiso   1.00
C1003  C     0.52843   0.97972   0.78042   0.00000  Uiso   1.00
C1004  C     0.47376   0.83119   0.85007   0.00000  Uiso   1.00
C1005  C     0.52862   0.68943   0.77743   0.00000  Uiso   1.00
C1006  C     0.49902   0.70963   0.75237   0.00000  Uiso   1.00
C1007  C     0.46853   0.68745   0.72999   0.00000  Uiso   1.00
C1008  C     0.46901   0.97824   0.73076   0.00000  Uiso   1.00
C1009  C     0.49931   0.95745   0.75474   0.00000  Uiso   1.00
C1010  C     0.63179   0.85563   0.78617   0.00000  Uiso   1.00
C1011  C     0.34808   0.85568   0.78610   0.00000  Uiso   1.00
C1012  C     0.36815   0.81081   0.71403   0.00000  Uiso   1.00
C1013  C     0.65188   0.81087   0.71400   0.00000  Uiso   1.00
C1014  C     0.49977   0.75410   0.75033   0.00000  Uiso   1.00
C1015  C     0.52625   0.83273   0.64997   0.00000  Uiso   1.00
C1016  C     0.59608   0.79881   0.51425   0.00000  Uiso   1.00
C1017  C     0.54107   0.82730   0.59337   0.00000  Uiso   1.00
C1018  C     0.41050   0.84361   0.93435   0.00000  Uiso   1.00
C1019  C     0.39622   0.84829   0.98808   0.00000  Uiso   1.00
C1020  C     0.42953   0.84109   0.51556   0.00000  Uiso   1.00
Cu1021 Cu    0.45311   0.83333   0.75000   0.00000  Uiso   1.00
Cu1022 Cu    0.54689   0.83334   0.75000   0.00000  Uiso   1.00
H1023  H     0.61396   0.80433   0.58583   0.00000  Uiso   1.00
H1024  H     0.55114   0.70776   0.79508   0.00000  Uiso   1.00
H1025  H     0.44536   0.70301   0.71070   0.00000  Uiso   1.00
H1026  H     0.44629   0.96151   0.71162   0.00000  Uiso   1.00
H1027  H     0.60505   0.87338   0.81529   0.00000  Uiso   1.00
H1028  H     0.35873   0.87362   0.81498   0.00000  Uiso   1.00
H1029  H     0.39483   0.79266   0.68530   0.00000  Uiso   1.00
H1030  H     0.64119   0.79285   0.68521   0.00000  Uiso   1.00
H1031  H     0.60277   0.77435   0.91805   0.00000  Uiso   1.00
H1032  H     0.63119   0.78503   0.99402   0.00000  Uiso   1.00
H1033  H     0.47302   0.85018   0.58906   0.00000  Uiso   1.00
H1034  H     0.38471   0.85196   0.91371   0.00000  Uiso   1.00
H1035  H     0.41584   0.84576   0.55709   0.00000  Uiso   1.00
H1036  H     0.35949   0.85883   0.50845   0.00000  Uiso   1.00
H1037  H     0.54220   0.78282   0.87362   0.00000  Uiso   1.00
N1038  N     0.38265   0.83332   0.74998   0.00000  Uiso   1.00
N1039  N     0.61735   0.83335   0.74999   0.00000  Uiso   1.00
O1040  O     0.46042   0.89345   0.75000   0.00000  Uiso   1.00
O1041  O     0.53961   0.89346   0.75000   0.00000  Uiso   1.00
O1042  O     0.44108   0.83332   0.82549   0.00000  Uiso   1.00
O1043  O     0.52027   0.83333   0.82549   0.00000  Uiso   1.00
O1044  O     0.46039   0.77321   0.74999   0.00000  Uiso   1.00
O1045  O     0.53958   0.77322   0.74999   0.00000  Uiso   1.00
O1046  O     0.47973   0.83334   0.67451   0.00000  Uiso   1.00
O1047  O     0.55892   0.83335   0.67451   0.00000  Uiso   1.00
C1048  C     0.55822   0.95763   0.81074   0.00000  Uiso   1.00
C1049  C     0.57541   0.98422   0.84917   0.00000  Uiso   1.00
H1050  H     0.60434   0.67300   0.82802   0.00000  Uiso   1.00
H1051  H     0.54396   0.66773   0.87589   0.00000  Uiso   1.00
H1052  H     0.59157   0.96408   0.87294   0.00000  Uiso   1.00
H1053  H     0.53524   0.93255   0.83406   0.00000  Uiso   1.00
H1054  H     0.59116   0.94371   0.78262   0.00000  Uiso   1.00
C1055  C     0.83298   0.91265   0.75204   0.00000  Uiso   1.00
C1056  C     0.81114   0.82721   0.98977   0.00000  Uiso   1.00
C1057  C     0.82354   0.81771   0.93584   0.00000  Uiso   1.00
C1058  C     0.84737   0.82201   0.51580   0.00000  Uiso   1.00
C1059  C     0.89327   0.80386   0.98912   0.00000  Uiso   1.00
C1060  C     0.90218   0.79003   0.93807   0.00000  Uiso   1.00
C1061  C     0.86759   0.79620   0.91208   0.00000  Uiso   1.00
C1062  C     0.83958   0.83470   0.56752   0.00000  Uiso   1.00
C1063  C     0.91991   0.81026   0.56631   0.00000  Uiso   1.00
C1064  C     0.79110   0.82950   0.90745   0.00000  Uiso   1.00
C1065  C     0.86176   0.97972   0.78042   0.00000  Uiso   1.00
C1066  C     0.80710   0.83119   0.85007   0.00000  Uiso   1.00
C1067  C     0.86195   0.68943   0.77743   0.00000  Uiso   1.00
C1068  C     0.83236   0.70963   0.75237   0.00000  Uiso   1.00
C1069  C     0.80186   0.68745   0.72999   0.00000  Uiso   1.00
C1070  C     0.80235   0.97824   0.73076   0.00000  Uiso   1.00
C1071  C     0.83265   0.95745   0.75474   0.00000  Uiso   1.00
C1072  C     0.96513   0.85563   0.78617   0.00000  Uiso   1.00
C1073  C     0.68142   0.85568   0.78610   0.00000  Uiso   1.00
C1074  C     0.70149   0.81081   0.71403   0.00000  Uiso   1.00
C1075  C     0.98521   0.81087   0.71400   0.00000  Uiso   1.00
C1076  C     0.83310   0.75410   0.75033   0.00000  Uiso   1.00
C1077  C     0.85958   0.83273   0.64997   0.00000  Uiso   1.00
C1078  C     0.92941   0.79881   0.51425   0.00000  Uiso   1.00
C1079  C     0.87440   0.82730   0.59337   0.00000  Uiso   1.00
C1080  C     0.74383   0.84361   0.93435   0.00000  Uiso   1.00
C1081  C     0.72956   0.84829   0.98808   0.00000  Uiso   1.00
C1082  C     0.76286   0.84109   0.51556   0.00000  Uiso   1.00
Cu1083 Cu    0.78645   0.83333   0.75000   0.00000  Uiso   1.00
Cu1084 Cu    0.88022   0.83334   0.75000   0.00000  Uiso   1.00
H1085  H     0.94729   0.80433   0.58583   0.00000  Uiso   1.00
H1086  H     0.88447   0.70776   0.79508   0.00000  Uiso   1.00
H1087  H     0.77869   0.70301   0.71070   0.00000  Uiso   1.00
H1088  H     0.77962   0.96151   0.71162   0.00000  Uiso   1.00
H1089  H     0.93838   0.87338   0.81529   0.00000  Uiso   1.00
H1090  H     0.69207   0.87362   0.81498   0.00000  Uiso   1.00
H1091  H     0.72816   0.79266   0.68530   0.00000  Uiso   1.00
H1092  H     0.97453   0.79285   0.68521   0.00000  Uiso   1.00
H1093  H     0.93610   0.77435   0.91805   0.00000  Uiso   1.00
H1094  H     0.96452   0.78503   0.99402   0.00000  Uiso   1.00
H1095  H     0.80636   0.85018   0.58906   0.00000  Uiso   1.00
H1096  H     0.71804   0.85196   0.91371   0.00000  Uiso   1.00
H1097  H     0.74917   0.84576   0.55709   0.00000  Uiso   1.00
H1098  H     0.69282   0.85883   0.50845   0.00000  Uiso   1.00
H1099  H     0.87554   0.78282   0.87362   0.00000  Uiso   1.00
N1100  N     0.71598   0.83332   0.74998   0.00000  Uiso   1.00
N1101  N     0.95069   0.83335   0.74999   0.00000  Uiso   1.00
O1102  O     0.79375   0.89345   0.75000   0.00000  Uiso   1.00
O1103  O     0.87294   0.89346   0.75000   0.00000  Uiso   1.00
O1104  O     0.77441   0.83332   0.82549   0.00000  Uiso   1.00
O1105  O     0.85360   0.83333   0.82549   0.00000  Uiso   1.00
O1106  O     0.79373   0.77321   0.74999   0.00000  Uiso   1.00
O1107  O     0.87292   0.77322   0.74999   0.00000  Uiso   1.00
O1108  O     0.81306   0.83334   0.67451   0.00000  Uiso   1.00
O1109  O     0.89225   0.83335   0.67451   0.00000  Uiso   1.00
C1110  C     0.89155   0.95763   0.81074   0.00000  Uiso   1.00
C1111  C     0.90875   0.98422   0.84917   0.00000  Uiso   1.00
H1112  H     0.93767   0.67300   0.82802   0.00000  Uiso   1.00
H1113  H     0.87730   0.66773   0.87589   0.00000  Uiso   1.00
H1114  H     0.92491   0.96408   0.87294   0.00000  Uiso   1.00
H1115  H     0.86857   0.93255   0.83406   0.00000  Uiso   1.00
H1116  H     0.92449   0.94371   0.78262   0.00000  Uiso   1.00
loop_
_geom_bond_atom_site_label_1
_geom_bond_atom_site_label_2
_geom_bond_distance
_geom_bond_site_symmetry_2
_ccdc_geom_bond_type
C1     C17     1.455   .     S
C1     O48     1.293   .     A
C1     O49     1.289   .     A
C2     C3      1.419   .     A
C2     C562    1.424   .     S
C2     C586    1.418   .     S
C3     C10     1.421   .     A
C3     C7      1.413   .     A
C4     C8      1.401   .     A
C4     C560    1.424   1_554 S
C4     C563    1.420   1_554 S
C5     C6      1.392   .     A
C5     C562    1.420   .     S
C5     C582    1.404   .     S
C6     C7      1.387   .     A
C6     H39     1.084   .     S
C7     H45     1.080   .     S
C8     H41     1.076   .     S
C8     C25     1.396   .     A
C9     C24     1.393   .     A
C9     C25     1.399   .     A
C9     H31     1.083   .     S
C10    C26     1.403   .     A
C10    C12     1.473   .     S
C11    C56     1.527   .     S
C11    C17     1.422   .     A
C11    C199    1.399   .     S
C12    O50     1.298   .     A
C12    O51     1.294   .     A
C13    H32     1.081   .     S
C13    C14     1.397   .     A
C13    C383    1.399   1_545 S
C14    C22     1.444   .     S
C14    C15     1.393   .     A
C15    H33     1.084   .     S
C15    C388    1.380   1_545 S
C16    H34     1.084   .     S
C16    C17     1.402   .     A
C16    C201    1.380   .     S
C18    H35     1.081   .     S
C18    N47     1.367   .     A
C18    C81     1.416   .     S
C19    N46     1.366   .     A
C19    H36     1.082   .     S
C19    C142    1.416   1_455 S
C20    H37     1.082   .     S
C20    N46     1.367   .     A
C20    C145    1.416   1_455 S
C21    H38     1.082   .     S
C21    N47     1.367   .     A
C21    C82     1.416   .     S
C22    O53     1.289   .     A
C22    O52     1.289   .     A
C23    O55     1.295   .     A
C23    C25     1.462   .     S
C23    O54     1.293   .     A
C24    C563    1.404   1_554 S
C24    H598    1.084   1_554 S
C26    C27     1.386   .     A
C26    H42     1.083   .     S
C27    C586    1.390   .     S
C27    H602    1.083   .     S
C28    H43     1.077   .     S
C28    C585    1.390   1_554 S
C28    C560    1.418   1_554 S
Cu29   N46     2.011   .     S
Cu29   Cu30    2.676   .     S
Cu29   O50     1.955   .     S
Cu29   O54     1.942   .     S
Cu29   O48     1.960   .     S
Cu29   O52     1.962   .     S
Cu30   O51     1.942   .     S
Cu30   O49     1.962   .     S
Cu30   O53     1.960   .     S
Cu30   N47     2.011   .     S
Cu30   O55     1.955   .     S
H40    C582    1.084   .     S
H44    C585    1.083   1_554 S
C56    H62     1.111   .     S
C56    C57     1.531   .     S
C56    H61     1.112   .     S
C57    H60     1.111   .     S
C57    H244    1.111   .     S
C57    H245    1.111   .     S
H58    C429    1.111   1_545 S
H59    C429    1.111   1_545 S
C63    C79     1.455   .     S
C63    O110    1.293   .     A
C63    O111    1.289   .     A
C64    C65     1.419   .     A
C64    C624    1.424   .     S
C64    C648    1.418   .     S
C65    C72     1.421   .     A
C65    C69     1.413   .     A
C66    C70     1.401   .     A
C66    C622    1.424   1_554 S
C66    C625    1.420   1_554 S
C67    C68     1.392   .     A
C67    C624    1.420   .     S
C67    C644    1.404   .     S
C68    C69     1.387   .     A
C68    H101    1.084   .     S
C69    H107    1.080   .     S
C70    H103    1.076   .     S
C70    C87     1.396   .     A
C71    C86     1.393   .     A
C71    C87     1.399   .     A
C71    H93     1.083   .     S
C72    C88     1.403   .     A
C72    C74     1.473   .     S
C73    C118    1.527   .     S
C73    C79     1.422   .     A
C73    C261    1.399   .     S
C74    O112    1.298   .     A
C74    O113    1.294   .     A
C75    H94     1.081   .     S
C75    C76     1.397   .     A
C75    C445    1.399   1_545 S
C76    C84     1.444   .     S
C76    C77     1.393   .     A
C77    H95     1.084   .     S
C77    C450    1.380   1_545 S
C78    H96     1.084   .     S
C78    C79     1.402   .     A
C78    C263    1.380   .     S
C80    H97     1.081   .     S
C80    N109    1.367   .     A
C80    C143    1.416   .     S
C81    N108    1.366   .     A
C81    H98     1.082   .     S
C82    H99     1.082   .     S
C82    N108    1.367   .     A
C83    H100    1.082   .     S
C83    N109    1.367   .     A
C83    C144    1.416   .     S
C84    O115    1.289   .     A
C84    O114    1.289   .     A
C85    O117    1.295   .     A
C85    C87     1.462   .     S
C85    O116    1.293   .     A
C86    C625    1.404   1_554 S
C86    H660    1.084   1_554 S
C88    C89     1.386   .     A
C88    H104    1.083   .     S
C89    C648    1.390   .     S
C89    H664    1.083   .     S
C90    H105    1.077   .     S
C90    C647    1.390   1_554 S
C90    C622    1.418   1_554 S
Cu91   N108    2.011   .     S
Cu91   Cu92    2.676   .     S
Cu91   O112    1.955   .     S
Cu91   O116    1.942   .     S
Cu91   O110    1.960   .     S
Cu91   O114    1.962   .     S
Cu92   O113    1.942   .     S
Cu92   O111    1.962   .     S
Cu92   O115    1.960   .     S
Cu92   N109    2.011   .     S
Cu92   O117    1.955   .     S
H102   C644    1.084   .     S
H106   C647    1.083   1_554 S
C118   H124    1.111   .     S
C118   C119    1.531   .     S
C118   H123    1.112   .     S
C119   H122    1.111   .     S
C119   H306    1.111   .     S
C119   H307    1.111   .     S
H120   C491    1.111   1_545 S
H121   C491    1.111   1_545 S
C125   C141    1.455   .     S
C125   O172    1.293   .     A
C125   O173    1.289   .     A
C126   C127    1.419   .     A
C126   C686    1.424   .     S
C126   C710    1.418   .     S
C127   C134    1.421   .     A
C127   C131    1.413   .     A
C128   C132    1.401   .     A
C128   C684    1.424   1_554 S
C128   C687    1.420   1_554 S
C129   C130    1.392   .     A
C129   C686    1.420   .     S
C129   C706    1.404   .     S
C130   C131    1.387   .     A
C130   H163    1.084   .     S
C131   H169    1.080   .     S
C132   H165    1.076   .     S
C132   C149    1.396   .     A
C133   C148    1.393   .     A
C133   C149    1.399   .     A
C133   H155    1.083   .     S
C134   C150    1.403   .     A
C134   C136    1.473   .     S
C135   C180    1.527   .     S
C135   C141    1.422   .     A
C135   C323    1.399   .     S
C136   O174    1.298   .     A
C136   O175    1.294   .     A
C137   H156    1.081   .     S
C137   C138    1.397   .     A
C137   C507    1.399   1_545 S
C138   C146    1.444   .     S
C138   C139    1.393   .     A
C139   H157    1.084   .     S
C139   C512    1.380   1_545 S
C140   H158    1.084   .     S
C140   C141    1.402   .     A
C140   C325    1.380   .     S
C142   H159    1.081   .     S
C142   N171    1.367   .     A
C142   C19     1.416   1_655 S
C143   N170    1.366   .     A
C143   H160    1.082   .     S
C144   H161    1.082   .     S
C144   N170    1.367   .     A
C145   H162    1.082   .     S
C145   N171    1.367   .     A
C145   C20     1.416   1_655 S
C146   O177    1.289   .     A
C146   O176    1.289   .     A
C147   O179    1.295   .     A
C147   C149    1.462   .     S
C147   O178    1.293   .     A
C148   C687    1.404   1_554 S
C148   H722    1.084   1_554 S
C150   C151    1.386   .     A
C150   H166    1.083   .     S
C151   C710    1.390   .     S
C151   H726    1.083   .     S
C152   H167    1.077   .     S
C152   C709    1.390   1_554 S
C152   C684    1.418   1_554 S
Cu153  N170    2.011   .     S
Cu153  Cu154   2.676   .     S
Cu153  O174    1.955   .     S
Cu153  O178    1.942   .     S
Cu153  O172    1.960   .     S
Cu153  O176    1.962   .     S
Cu154  O175    1.942   .     S
Cu154  O173    1.962   .     S
Cu154  O177    1.960   .     S
Cu154  N171    2.011   .     S
Cu154  O179    1.955   .     S
H164   C706    1.084   .     S
H168   C709    1.083   1_554 S
C180   H186    1.111   .     S
C180   C181    1.531   .     S
C180   H185    1.112   .     S
C181   H184    1.111   .     S
C181   H368    1.111   .     S
C181   H369    1.111   .     S
H182   C553    1.111   1_545 S
H183   C553    1.111   1_545 S
C187   C203    1.455   .     S
C187   O234    1.293   .     A
C187   O235    1.289   .     A
C188   C189    1.419   .     A
C188   C748    1.424   .     S
C188   C772    1.418   .     S
C189   C196    1.421   .     A
C189   C193    1.413   .     A
C190   C194    1.401   .     A
C190   C746    1.424   1_554 S
C190   C749    1.420   1_554 S
C191   C192    1.392   .     A
C191   C748    1.420   .     S
C191   C768    1.404   .     S
C192   C193    1.387   .     A
C192   H225    1.084   .     S
C193   H231    1.080   .     S
C194   H227    1.076   .     S
C194   C211    1.396   .     A
C195   C210    1.393   .     A
C195   C211    1.399   .     A
C195   H217    1.083   .     S
C196   C212    1.403   .     A
C196   C198    1.473   .     S
C197   C242    1.527   .     S
C197   C203    1.422   .     A
C197   C385    1.399   .     S
C198   O236    1.298   .     A
C198   O237    1.294   .     A
C199   H218    1.081   .     S
C199   C200    1.397   .     A
C200   C208    1.444   .     S
C200   C201    1.393   .     A
C201   H219    1.084   .     S
C202   H220    1.084   .     S
C202   C203    1.402   .     A
C202   C387    1.380   .     S
C204   H221    1.081   .     S
C204   N233    1.367   .     A
C204   C267    1.416   .     S
C205   N232    1.366   .     A
C205   H222    1.082   .     S
C205   C328    1.416   1_455 S
C206   H223    1.082   .     S
C206   N232    1.367   .     A
C206   C331    1.416   1_455 S
C207   H224    1.082   .     S
C207   N233    1.367   .     A
C207   C268    1.416   .     S
C208   O239    1.289   .     A
C208   O238    1.289   .     A
C209   O241    1.295   .     A
C209   C211    1.462   .     S
C209   O240    1.293   .     A
C210   C749    1.404   1_554 S
C210   H784    1.084   1_554 S
C212   C213    1.386   .     A
C212   H228    1.083   .     S
C213   C772    1.390   .     S
C213   H788    1.083   .     S
C214   H229    1.077   .     S
C214   C771    1.390   1_554 S
C214   C746    1.418   1_554 S
Cu215  N232    2.011   .     S
Cu215  Cu216   2.676   .     S
Cu215  O236    1.955   .     S
Cu215  O240    1.942   .     S
Cu215  O234    1.960   .     S
Cu215  O238    1.962   .     S
Cu216  O237    1.942   .     S
Cu216  O235    1.962   .     S
Cu216  O239    1.960   .     S
Cu216  N233    2.011   .     S
Cu216  O241    1.955   .     S
H226   C768    1.084   .     S
H230   C771    1.083   1_554 S
C242   H248    1.111   .     S
C242   C243    1.531   .     S
C242   H247    1.112   .     S
C243   H246    1.111   .     S
C243   H430    1.111   .     S
C243   H431    1.111   .     S
C249   C265    1.455   .     S
C249   O296    1.293   .     A
C249   O297    1.289   .     A
C250   C251    1.419   .     A
C250   C810    1.424   .     S
C250   C834    1.418   .     S
C251   C258    1.421   .     A
C251   C255    1.413   .     A
C252   C256    1.401   .     A
C252   C808    1.424   1_554 S
C252   C811    1.420   1_554 S
C253   C254    1.392   .     A
C253   C810    1.420   .     S
C253   C830    1.404   .     S
C254   C255    1.387   .     A
C254   H287    1.084   .     S
C255   H293    1.080   .     S
C256   H289    1.076   .     S
C256   C273    1.396   .     A
C257   C272    1.393   .     A
C257   C273    1.399   .     A
C257   H279    1.083   .     S
C258   C274    1.403   .     A
C258   C260    1.473   .     S
C259   C304    1.527   .     S
C259   C265    1.422   .     A
C259   C447    1.399   .     S
C260   O298    1.298   .     A
C260   O299    1.294   .     A
C261   H280    1.081   .     S
C261   C262    1.397   .     A
C262   C270    1.444   .     S
C262   C263    1.393   .     A
C263   H281    1.084   .     S
C264   H282    1.084   .     S
C264   C265    1.402   .     A
C264   C449    1.380   .     S
C266   H283    1.081   .     S
C266   N295    1.367   .     A
C266   C329    1.416   .     S
C267   N294    1.366   .     A
C267   H284    1.082   .     S
C268   H285    1.082   .     S
C268   N294    1.367   .     A
C269   H286    1.082   .     S
C269   N295    1.367   .     A
C269   C330    1.416   .     S
C270   O301    1.289   .     A
C270   O300    1.289   .     A
C271   O303    1.295   .     A
C271   C273    1.462   .     S
C271   O302    1.293   .     A
C272   C811    1.404   1_554 S
C272   H846    1.084   1_554 S
C274   C275    1.386   .     A
C274   H290    1.083   .     S
C275   C834    1.390   .     S
C275   H850    1.083   .     S
C276   H291    1.077   .     S
C276   C833    1.390   1_554 S
C276   C808    1.418   1_554 S
Cu277  N294    2.011   .     S
Cu277  Cu278   2.676   .     S
Cu277  O298    1.955   .     S
Cu277  O302    1.942   .     S
Cu277  O296    1.960   .     S
Cu277  O300    1.962   .     S
Cu278  O299    1.942   .     S
Cu278  O297    1.962   .     S
Cu278  O301    1.960   .     S
Cu278  N295    2.011   .     S
Cu278  O303    1.955   .     S
H288   C830    1.084   .     S
H292   C833    1.083   1_554 S
C304   H310    1.111   .     S
C304   C305    1.531   .     S
C304   H309    1.112   .     S
C305   H308    1.111   .     S
C305   H492    1.111   .     S
C305   H493    1.111   .     S
C311   C327    1.455   .     S
C311   O358    1.293   .     A
C311   O359    1.289   .     A
C312   C313    1.419   .     A
C312   C872    1.424   .     S
C312   C896    1.418   .     S
C313   C320    1.421   .     A
C313   C317    1.413   .     A
C314   C318    1.401   .     A
C314   C870    1.424   1_554 S
C314   C873    1.420   1_554 S
C315   C316    1.392   .     A
C315   C872    1.420   .     S
C315   C892    1.404   .     S
C316   C317    1.387   .     A
C316   H349    1.084   .     S
C317   H355    1.080   .     S
C318   H351    1.076   .     S
C318   C335    1.396   .     A
C319   C334    1.393   .     A
C319   C335    1.399   .     A
C319   H341    1.083   .     S
C320   C336    1.403   .     A
C320   C322    1.473   .     S
C321   C366    1.527   .     S
C321   C327    1.422   .     A
C321   C509    1.399   .     S
C322   O360    1.298   .     A
C322   O361    1.294   .     A
C323   H342    1.081   .     S
C323   C324    1.397   .     A
C324   C332    1.444   .     S
C324   C325    1.393   .     A
C325   H343    1.084   .     S
C326   H344    1.084   .     S
C326   C327    1.402   .     A
C326   C511    1.380   .     S
C328   H345    1.081   .     S
C328   N357    1.367   .     A
C328   C205    1.416   1_655 S
C329   N356    1.366   .     A
C329   H346    1.082   .     S
C330   H347    1.082   .     S
C330   N356    1.367   .     A
C331   H348    1.082   .     S
C331   N357    1.367   .     A
C331   C206    1.416   1_655 S
C332   O363    1.289   .     A
C332   O362    1.289   .     A
C333   O365    1.295   .     A
C333   C335    1.462   .     S
C333   O364    1.293   .     A
C334   C873    1.404   1_554 S
C334   H908    1.084   1_554 S
C336   C337    1.386   .     A
C336   H352    1.083   .     S
C337   C896    1.390   .     S
C337   H912    1.083   .     S
C338   H353    1.077   .     S
C338   C895    1.390   1_554 S
C338   C870    1.418   1_554 S
Cu339  N356    2.011   .     S
Cu339  Cu340   2.676   .     S
Cu339  O360    1.955   .     S
Cu339  O364    1.942   .     S
Cu339  O358    1.960   .     S
Cu339  O362    1.962   .     S
Cu340  O361    1.942   .     S
Cu340  O359    1.962   .     S
Cu340  O363    1.960   .     S
Cu340  N357    2.011   .     S
Cu340  O365    1.955   .     S
H350   C892    1.084   .     S
H354   C895    1.083   1_554 S
C366   H372    1.111   .     S
C366   C367    1.531   .     S
C366   H371    1.112   .     S
C367   H370    1.111   .     S
C367   H554    1.111   .     S
C367   H555    1.111   .     S
C373   C389    1.455   .     S
C373   O420    1.293   .     A
C373   O421    1.289   .     A
C374   C375    1.419   .     A
C374   C934    1.424   .     S
C374   C958    1.418   .     S
C375   C382    1.421   .     A
C375   C379    1.413   .     A
C376   C380    1.401   .     A
C376   C932    1.424   1_554 S
C376   C935    1.420   1_554 S
C377   C378    1.392   .     A
C377   C934    1.420   .     S
C377   C954    1.404   .     S
C378   C379    1.387   .     A
C378   H411    1.084   .     S
C379   H417    1.080   .     S
C380   H413    1.076   .     S
C380   C397    1.396   .     A
C381   C396    1.393   .     A
C381   C397    1.399   .     A
C381   H403    1.083   .     S
C382   C398    1.403   .     A
C382   C384    1.473   .     S
C383   C428    1.527   .     S
C383   C389    1.422   .     A
C383   C13     1.399   1_565 S
C384   O422    1.298   .     A
C384   O423    1.294   .     A
C385   H404    1.081   .     S
C385   C386    1.397   .     A
C386   C394    1.444   .     S
C386   C387    1.393   .     A
C387   H405    1.084   .     S
C388   H406    1.084   .     S
C388   C389    1.402   .     A
C388   C15     1.380   1_565 S
C390   H407    1.081   .     S
C390   N419    1.367   .     A
C390   C453    1.416   .     S
C391   N418    1.366   .     A
C391   H408    1.082   .     S
C391   C514    1.416   1_455 S
C392   H409    1.082   .     S
C392   N418    1.367   .     A
C392   C517    1.416   1_455 S
C393   H410    1.082   .     S
C393   N419    1.367   .     A
C393   C454    1.416   .     S
C394   O425    1.289   .     A
C394   O424    1.289   .     A
C395   O427    1.295   .     A
C395   C397    1.462   .     S
C395   O426    1.293   .     A
C396   C935    1.404   1_554 S
C396   H970    1.084   1_554 S
C398   C399    1.386   .     A
C398   H414    1.083   .     S
C399   C958    1.390   .     S
C399   H974    1.083   .     S
C400   H415    1.077   .     S
C400   C957    1.390   1_554 S
C400   C932    1.418   1_554 S
Cu401  N418    2.011   .     S
Cu401  Cu402   2.676   .     S
Cu401  O422    1.955   .     S
Cu401  O426    1.942   .     S
Cu401  O420    1.960   .     S
Cu401  O424    1.962   .     S
Cu402  O423    1.942   .     S
Cu402  O421    1.962   .     S
Cu402  O425    1.960   .     S
Cu402  N419    2.011   .     S
Cu402  O427    1.955   .     S
H412   C954    1.084   .     S
H416   C957    1.083   1_554 S
C428   H434    1.111   .     S
C428   C429    1.531   .     S
C428   H433    1.112   .     S
C429   H432    1.111   .     S
C429   H58     1.111   1_565 S
C429   H59     1.111   1_565 S
C435   C451    1.455   .     S
C435   O482    1.293   .     A
C435   O483    1.289   .     A
C436   C437    1.419   .     A
C436   C996    1.424   .     S
C436   C1020   1.418   .     S
C437   C444    1.421   .     A
C437   C441    1.413   .     A
C438   C442    1.401   .     A
C438   C994    1.424   1_554 S
C438   C997    1.420   1_554 S
C439   C440    1.392   .     A
C439   C996    1.420   .     S
C439   C1016   1.404   .     S
C440   C441    1.387   .     A
C440   H473    1.084   .     S
C441   H479    1.080   .     S
C442   H475    1.076   .     S
C442   C459    1.396   .     A
C443   C458    1.393   .     A
C443   C459    1.399   .     A
C443   H465    1.083   .     S
C444   C460    1.403   .     A
C444   C446    1.473   .     S
C445   C490    1.527   .     S
C445   C451    1.422   .     A
C445   C75     1.399   1_565 S
C446   O484    1.298   .     A
C446   O485    1.294   .     A
C447   H466    1.081   .     S
C447   C448    1.397   .     A
C448   C456    1.444   .     S
C448   C449    1.393   .     A
C449   H467    1.084   .     S
C450   H468    1.084   .     S
C450   C451    1.402   .     A
C450   C77     1.380   1_565 S
C452   H469    1.081   .     S
C452   N481    1.367   .     A
C452   C515    1.416   .     S
C453   N480    1.366   .     A
C453   H470    1.082   .     S
C454   H471    1.082   .     S
C454   N480    1.367   .     A
C455   H472    1.082   .     S
C455   N481    1.367   .     A
C455   C516    1.416   .     S
C456   O487    1.289   .     A
C456   O486    1.289   .     A
C457   O489    1.295   .     A
C457   C459    1.462   .     S
C457   O488    1.293   .     A
C458   C997    1.404   1_554 S
C458   H1032   1.084   1_554 S
C460   C461    1.386   .     A
C460   H476    1.083   .     S
C461   C1020   1.390   .     S
C461   H1036   1.083   .     S
C462   H477    1.077   .     S
C462   C1019   1.390   1_554 S
C462   C994    1.418   1_554 S
Cu463  N480    2.011   .     S
Cu463  Cu464   2.676   .     S
Cu463  O484    1.955   .     S
Cu463  O488    1.942   .     S
Cu463  O482    1.960   .     S
Cu463  O486    1.962   .     S
Cu464  O485    1.942   .     S
Cu464  O483    1.962   .     S
Cu464  O487    1.960   .     S
Cu464  N481    2.011   .     S
Cu464  O489    1.955   .     S
H474   C1016   1.084   .     S
H478   C1019   1.083   1_554 S
C490   H496    1.111   .     S
C490   C491    1.531   .     S
C490   H495    1.112   .     S
C491   H494    1.111   .     S
C491   H120    1.111   1_565 S
C491   H121    1.111   1_565 S
C497   C513    1.455   .     S
C497   O544    1.293   .     A
C497   O545    1.289   .     A
C498   C499    1.419   .     A
C498   C1058   1.424   .     S
C498   C1082   1.418   .     S
C499   C506    1.421   .     A
C499   C503    1.413   .     A
C500   C504    1.401   .     A
C500   C1056   1.424   1_554 S
C500   C1059   1.420   1_554 S
C501   C502    1.392   .     A
C501   C1058   1.420   .     S
C501   C1078   1.404   .     S
C502   C503    1.387   .     A
C502   H535    1.084   .     S
C503   H541    1.080   .     S
C504   H537    1.076   .     S
C504   C521    1.396   .     A
C505   C520    1.393   .     A
C505   C521    1.399   .     A
C505   H527    1.083   .     S
C506   C522    1.403   .     A
C506   C508    1.473   .     S
C507   C552    1.527   .     S
C507   C513    1.422   .     A
C507   C137    1.399   1_565 S
C508   O546    1.298   .     A
C508   O547    1.294   .     A
C509   H528    1.081   .     S
C509   C510    1.397   .     A
C510   C518    1.444   .     S
C510   C511    1.393   .     A
C511   H529    1.084   .     S
C512   H530    1.084   .     S
C512   C513    1.402   .     A
C512   C139    1.380   1_565 S
C514   H531    1.081   .     S
C514   N543    1.367   .     A
C514   C391    1.416   1_655 S
C515   N542    1.366   .     A
C515   H532    1.082   .     S
C516   H533    1.082   .     S
C516   N542    1.367   .     A
C517   H534    1.082   .     S
C517   N543    1.367   .     A
C517   C392    1.416   1_655 S
C518   O549    1.289   .     A
C518   O548    1.289   .     A
C519   O551    1.295   .     A
C519   C521    1.462   .     S
C519   O550    1.293   .     A
C520   C1059   1.404   1_554 S
C520   H1094   1.084   1_554 S
C522   C523    1.386   .     A
C522   H538    1.083   .     S
C523   C1082   1.390   .     S
C523   H1098   1.083   .     S
C524   H539    1.077   .     S
C524   C1081   1.390   1_554 S
C524   C1056   1.418   1_554 S
Cu525  N542    2.011   .     S
Cu525  Cu526   2.676   .     S
Cu525  O546    1.955   .     S
Cu525  O550    1.942   .     S
Cu525  O544    1.960   .     S
Cu525  O548    1.962   .     S
Cu526  O547    1.942   .     S
Cu526  O545    1.962   .     S
Cu526  O549    1.960   .     S
Cu526  N543    2.011   .     S
Cu526  O551    1.955   .     S
H536   C1078   1.084   .     S
H540   C1081   1.083   1_554 S
C552   H558    1.111   .     S
C552   C553    1.531   .     S
C552   H557    1.112   .     S
C553   H556    1.111   .     S
C553   H182    1.111   1_565 S
C553   H183    1.111   1_565 S
C559   C575    1.455   .     S
C559   O606    1.293   .     A
C559   O607    1.289   .     A
C560   C561    1.419   .     A
C560   C4      1.424   1_556 S
C560   C28     1.418   1_556 S
C561   C568    1.421   .     A
C561   C565    1.413   .     A
C562   C566    1.401   .     A
C563   C564    1.392   .     A
C563   C4      1.420   1_556 S
C563   C24     1.404   1_556 S
C564   C565    1.387   .     A
C564   H597    1.084   .     S
C565   H603    1.080   .     S
C566   H599    1.076   .     S
C566   C583    1.396   .     A
C567   C582    1.393   .     A
C567   C583    1.399   .     A
C567   H589    1.083   .     S
C568   C584    1.403   .     A
C568   C570    1.473   .     S
C569   C614    1.527   .     S
C569   C575    1.422   .     A
C569   C757    1.399   .     S
C570   O608    1.298   .     A
C570   O609    1.294   .     A
C571   H590    1.081   .     S
C571   C572    1.397   .     A
C571   C941    1.399   1_545 S
C572   C580    1.444   .     S
C572   C573    1.393   .     A
C573   H591    1.084   .     S
C573   C946    1.380   1_545 S
C574   H592    1.084   .     S
C574   C575    1.402   .     A
C574   C759    1.380   .     S
C576   H593    1.081   .     S
C576   N605    1.367   .     A
C576   C639    1.416   .     S
C577   N604    1.366   .     A
C577   H594    1.082   .     S
C577   C700    1.416   1_455 S
C578   H595    1.082   .     S
C578   N604    1.367   .     A
C578   C703    1.416   1_455 S
C579   H596    1.082   .     S
C579   N605    1.367   .     A
C579   C640    1.416   .     S
C580   O611    1.289   .     A
C580   O610    1.289   .     A
C581   O613    1.295   .     A
C581   C583    1.462   .     S
C581   O612    1.293   .     A
C584   C585    1.386   .     A
C584   H600    1.083   .     S
C585   C28     1.390   1_556 S
C585   H44     1.083   1_556 S
C586   H601    1.077   .     S
Cu587  N604    2.011   .     S
Cu587  Cu588   2.676   .     S
Cu587  O608    1.955   .     S
Cu587  O612    1.942   .     S
Cu587  O606    1.960   .     S
Cu587  O610    1.962   .     S
Cu588  O609    1.942   .     S
Cu588  O607    1.962   .     S
Cu588  O611    1.960   .     S
Cu588  N605    2.011   .     S
Cu588  O613    1.955   .     S
H598   C24     1.084   1_556 S
C614   H620    1.111   .     S
C614   C615    1.531   .     S
C614   H619    1.112   .     S
C615   H618    1.111   .     S
C615   H802    1.111   .     S
C615   H803    1.111   .     S
H616   C987    1.111   1_545 S
H617   C987    1.111   1_545 S
C621   C637    1.455   .     S
C621   O668    1.293   .     A
C621   O669    1.289   .     A
C622   C623    1.419   .     A
C622   C66     1.424   1_556 S
C622   C90     1.418   1_556 S
C623   C630    1.421   .     A
C623   C627    1.413   .     A
C624   C628    1.401   .     A
C625   C626    1.392   .     A
C625   C66     1.420   1_556 S
C625   C86     1.404   1_556 S
C626   C627    1.387   .     A
C626   H659    1.084   .     S
C627   H665    1.080   .     S
C628   H661    1.076   .     S
C628   C645    1.396   .     A
C629   C644    1.393   .     A
C629   C645    1.399   .     A
C629   H651    1.083   .     S
C630   C646    1.403   .     A
C630   C632    1.473   .     S
C631   C676    1.527   .     S
C631   C637    1.422   .     A
C631   C819    1.399   .     S
C632   O670    1.298   .     A
C632   O671    1.294   .     A
C633   H652    1.081   .     S
C633   C634    1.397   .     A
C633   C1003   1.399   1_545 S
C634   C642    1.444   .     S
C634   C635    1.393   .     A
C635   H653    1.084   .     S
C635   C1008   1.380   1_545 S
C636   H654    1.084   .     S
C636   C637    1.402   .     A
C636   C821    1.380   .     S
C638   H655    1.081   .     S
C638   N667    1.367   .     A
C638   C701    1.416   .     S
C639   N666    1.366   .     A
C639   H656    1.082   .     S
C640   H657    1.082   .     S
C640   N666    1.367   .     A
C641   H658    1.082   .     S
C641   N667    1.367   .     A
C641   C702    1.416   .     S
C642   O673    1.289   .     A
C642   O672    1.289   .     A
C643   O675    1.295   .     A
C643   C645    1.462   .     S
C643   O674    1.293   .     A
C646   C647    1.386   .     A
C646   H662    1.083   .     S
C647   C90     1.390   1_556 S
C647   H106    1.083   1_556 S
C648   H663    1.077   .     S
Cu649  N666    2.011   .     S
Cu649  Cu650   2.676   .     S
Cu649  O670    1.955   .     S
Cu649  O674    1.942   .     S
Cu649  O668    1.960   .     S
Cu649  O672    1.962   .     S
Cu650  O671    1.942   .     S
Cu650  O669    1.962   .     S
Cu650  O673    1.960   .     S
Cu650  N667    2.011   .     S
Cu650  O675    1.955   .     S
H660   C86     1.084   1_556 S
C676   H682    1.111   .     S
C676   C677    1.531   .     S
C676   H681    1.112   .     S
C677   H680    1.111   .     S
C677   H864    1.111   .     S
C677   H865    1.111   .     S
H678   C1049   1.111   1_545 S
H679   C1049   1.111   1_545 S
C683   C699    1.455   .     S
C683   O730    1.293   .     A
C683   O731    1.289   .     A
C684   C685    1.419   .     A
C684   C128    1.424   1_556 S
C684   C152    1.418   1_556 S
C685   C692    1.421   .     A
C685   C689    1.413   .     A
C686   C690    1.401   .     A
C687   C688    1.392   .     A
C687   C128    1.420   1_556 S
C687   C148    1.404   1_556 S
C688   C689    1.387   .     A
C688   H721    1.084   .     S
C689   H727    1.080   .     S
C690   H723    1.076   .     S
C690   C707    1.396   .     A
C691   C706    1.393   .     A
C691   C707    1.399   .     A
C691   H713    1.083   .     S
C692   C708    1.403   .     A
C692   C694    1.473   .     S
C693   C738    1.527   .     S
C693   C699    1.422   .     A
C693   C881    1.399   .     S
C694   O732    1.298   .     A
C694   O733    1.294   .     A
C695   H714    1.081   .     S
C695   C696    1.397   .     A
C695   C1065   1.399   1_545 S
C696   C704    1.444   .     S
C696   C697    1.393   .     A
C697   H715    1.084   .     S
C697   C1070   1.380   1_545 S
C698   H716    1.084   .     S
C698   C699    1.402   .     A
C698   C883    1.380   .     S
C700   H717    1.081   .     S
C700   N729    1.367   .     A
C700   C577    1.416   1_655 S
C701   N728    1.366   .     A
C701   H718    1.082   .     S
C702   H719    1.082   .     S
C702   N728    1.367   .     A
C703   H720    1.082   .     S
C703   N729    1.367   .     A
C703   C578    1.416   1_655 S
C704   O735    1.289   .     A
C704   O734    1.289   .     A
C705   O737    1.295   .     A
C705   C707    1.462   .     S
C705   O736    1.293   .     A
C708   C709    1.386   .     A
C708   H724    1.083   .     S
C709   C152    1.390   1_556 S
C709   H168    1.083   1_556 S
C710   H725    1.077   .     S
Cu711  N728    2.011   .     S
Cu711  Cu712   2.676   .     S
Cu711  O732    1.955   .     S
Cu711  O736    1.942   .     S
Cu711  O730    1.960   .     S
Cu711  O734    1.962   .     S
Cu712  O733    1.942   .     S
Cu712  O731    1.962   .     S
Cu712  O735    1.960   .     S
Cu712  N729    2.011   .     S
Cu712  O737    1.955   .     S
H722   C148    1.084   1_556 S
C738   H744    1.111   .     S
C738   C739    1.531   .     S
C738   H743    1.112   .     S
C739   H742    1.111   .     S
C739   H926    1.111   .     S
C739   H927    1.111   .     S
H740   C1111   1.111   1_545 S
H741   C1111   1.111   1_545 S
C745   C761    1.455   .     S
C745   O792    1.293   .     A
C745   O793    1.289   .     A
C746   C747    1.419   .     A
C746   C190    1.424   1_556 S
C746   C214    1.418   1_556 S
C747   C754    1.421   .     A
C747   C751    1.413   .     A
C748   C752    1.401   .     A
C749   C750    1.392   .     A
C749   C190    1.420   1_556 S
C749   C210    1.404   1_556 S
C750   C751    1.387   .     A
C750   H783    1.084   .     S
C751   H789    1.080   .     S
C752   H785    1.076   .     S
C752   C769    1.396   .     A
C753   C768    1.393   .     A
C753   C769    1.399   .     A
C753   H775    1.083   .     S
C754   C770    1.403   .     A
C754   C756    1.473   .     S
C755   C800    1.527   .     S
C755   C761    1.422   .     A
C755   C943    1.399   .     S
C756   O794    1.298   .     A
C756   O795    1.294   .     A
C757   H776    1.081   .     S
C757   C758    1.397   .     A
C758   C766    1.444   .     S
C758   C759    1.393   .     A
C759   H777    1.084   .     S
C760   H778    1.084   .     S
C760   C761    1.402   .     A
C760   C945    1.380   .     S
C762   H779    1.081   .     S
C762   N791    1.367   .     A
C762   C825    1.416   .     S
C763   N790    1.366   .     A
C763   H780    1.082   .     S
C763   C886    1.416   1_455 S
C764   H781    1.082   .     S
C764   N790    1.367   .     A
C764   C889    1.416   1_455 S
C765   H782    1.082   .     S
C765   N791    1.367   .     A
C765   C826    1.416   .     S
C766   O797    1.289   .     A
C766   O796    1.289   .     A
C767   O799    1.295   .     A
C767   C769    1.462   .     S
C767   O798    1.293   .     A
C770   C771    1.386   .     A
C770   H786    1.083   .     S
C771   C214    1.390   1_556 S
C771   H230    1.083   1_556 S
C772   H787    1.077   .     S
Cu773  N790    2.011   .     S
Cu773  Cu774   2.676   .     S
Cu773  O794    1.955   .     S
Cu773  O798    1.942   .     S
Cu773  O792    1.960   .     S
Cu773  O796    1.962   .     S
Cu774  O795    1.942   .     S
Cu774  O793    1.962   .     S
Cu774  O797    1.960   .     S
Cu774  N791    2.011   .     S
Cu774  O799    1.955   .     S
H784   C210    1.084   1_556 S
C800   H806    1.111   .     S
C800   C801    1.531   .     S
C800   H805    1.112   .     S
C801   H804    1.111   .     S
C801   H988    1.111   .     S
C801   H989    1.111   .     S
C807   C823    1.455   .     S
C807   O854    1.293   .     A
C807   O855    1.289   .     A
C808   C809    1.419   .     A
C808   C252    1.424   1_556 S
C808   C276    1.418   1_556 S
C809   C816    1.421   .     A
C809   C813    1.413   .     A
C810   C814    1.401   .     A
C811   C812    1.392   .     A
C811   C252    1.420   1_556 S
C811   C272    1.404   1_556 S
C812   C813    1.387   .     A
C812   H845    1.084   .     S
C813   H851    1.080   .     S
C814   H847    1.076   .     S
C814   C831    1.396   .     A
C815   C830    1.393   .     A
C815   C831    1.399   .     A
C815   H837    1.083   .     S
C816   C832    1.403   .     A
C816   C818    1.473   .     S
C817   C862    1.527   .     S
C817   C823    1.422   .     A
C817   C1005   1.399   .     S
C818   O856    1.298   .     A
C818   O857    1.294   .     A
C819   H838    1.081   .     S
C819   C820    1.397   .     A
C820   C828    1.444   .     S
C820   C821    1.393   .     A
C821   H839    1.084   .     S
C822   H840    1.084   .     S
C822   C823    1.402   .     A
C822   C1007   1.380   .     S
C824   H841    1.081   .     S
C824   N853    1.367   .     A
C824   C887    1.416   .     S
C825   N852    1.366   .     A
C825   H842    1.082   .     S
C826   H843    1.082   .     S
C826   N852    1.367   .     A
C827   H844    1.082   .     S
C827   N853    1.367   .     A
C827   C888    1.416   .     S
C828   O859    1.289   .     A
C828   O858    1.289   .     A
C829   O861    1.295   .     A
C829   C831    1.462   .     S
C829   O860    1.293   .     A
C832   C833    1.386   .     A
C832   H848    1.083   .     S
C833   C276    1.390   1_556 S
C833   H292    1.083   1_556 S
C834   H849    1.077   .     S
Cu835  N852    2.011   .     S
Cu835  Cu836   2.676   .     S
Cu835  O856    1.955   .     S
Cu835  O860    1.942   .     S
Cu835  O854    1.960   .     S
Cu835  O858    1.962   .     S
Cu836  O857    1.942   .     S
Cu836  O855    1.962   .     S
Cu836  O859    1.960   .     S
Cu836  N853    2.011   .     S
Cu836  O861    1.955   .     S
H846   C272    1.084   1_556 S
C862   H868    1.111   .     S
C862   C863    1.531   .     S
C862   H867    1.112   .     S
C863   H866    1.111   .     S
C863   H1050   1.111   .     S
C863   H1051   1.111   .     S
C869   C885    1.455   .     S
C869   O916    1.293   .     A
C869   O917    1.289   .     A
C870   C871    1.419   .     A
C870   C314    1.424   1_556 S
C870   C338    1.418   1_556 S
C871   C878    1.421   .     A
C871   C875    1.413   .     A
C872   C876    1.401   .     A
C873   C874    1.392   .     A
C873   C314    1.420   1_556 S
C873   C334    1.404   1_556 S
C874   C875    1.387   .     A
C874   H907    1.084   .     S
C875   H913    1.080   .     S
C876   H909    1.076   .     S
C876   C893    1.396   .     A
C877   C892    1.393   .     A
C877   C893    1.399   .     A
C877   H899    1.083   .     S
C878   C894    1.403   .     A
C878   C880    1.473   .     S
C879   C924    1.527   .     S
C879   C885    1.422   .     A
C879   C1067   1.399   .     S
C880   O918    1.298   .     A
C880   O919    1.294   .     A
C881   H900    1.081   .     S
C881   C882    1.397   .     A
C882   C890    1.444   .     S
C882   C883    1.393   .     A
C883   H901    1.084   .     S
C884   H902    1.084   .     S
C884   C885    1.402   .     A
C884   C1069   1.380   .     S
C886   H903    1.081   .     S
C886   N915    1.367   .     A
C886   C763    1.416   1_655 S
C887   N914    1.366   .     A
C887   H904    1.082   .     S
C888   H905    1.082   .     S
C888   N914    1.367   .     A
C889   H906    1.082   .     S
C889   N915    1.367   .     A
C889   C764    1.416   1_655 S
C890   O921    1.289   .     A
C890   O920    1.289   .     A
C891   O923    1.295   .     A
C891   C893    1.462   .     S
C891   O922    1.293   .     A
C894   C895    1.386   .     A
C894   H910    1.083   .     S
C895   C338    1.390   1_556 S
C895   H354    1.083   1_556 S
C896   H911    1.077   .     S
Cu897  N914    2.011   .     S
Cu897  Cu898   2.676   .     S
Cu897  O918    1.955   .     S
Cu897  O922    1.942   .     S
Cu897  O916    1.960   .     S
Cu897  O920    1.962   .     S
Cu898  O919    1.942   .     S
Cu898  O917    1.962   .     S
Cu898  O921    1.960   .     S
Cu898  N915    2.011   .     S
Cu898  O923    1.955   .     S
H908   C334    1.084   1_556 S
C924   H930    1.111   .     S
C924   C925    1.531   .     S
C924   H929    1.112   .     S
C925   H928    1.111   .     S
C925   H1112   1.111   .     S
C925   H1113   1.111   .     S
C931   C947    1.455   .     S
C931   O978    1.293   .     A
C931   O979    1.289   .     A
C932   C933    1.419   .     A
C932   C376    1.424   1_556 S
C932   C400    1.418   1_556 S
C933   C940    1.421   .     A
C933   C937    1.413   .     A
C934   C938    1.401   .     A
C935   C936    1.392   .     A
C935   C376    1.420   1_556 S
C935   C396    1.404   1_556 S
C936   C937    1.387   .     A
C936   H969    1.084   .     S
C937   H975    1.080   .     S
C938   H971    1.076   .     S
C938   C955    1.396   .     A
C939   C954    1.393   .     A
C939   C955    1.399   .     A
C939   H961    1.083   .     S
C940   C956    1.403   .     A
C940   C942    1.473   .     S
C941   C986    1.527   .     S
C941   C947    1.422   .     A
C941   C571    1.399   1_565 S
C942   O980    1.298   .     A
C942   O981    1.294   .     A
C943   H962    1.081   .     S
C943   C944    1.397   .     A
C944   C952    1.444   .     S
C944   C945    1.393   .     A
C945   H963    1.084   .     S
C946   H964    1.084   .     S
C946   C947    1.402   .     A
C946   C573    1.380   1_565 S
C948   H965    1.081   .     S
C948   N977    1.367   .     A
C948   C1011   1.416   .     S
C949   N976    1.366   .     A
C949   H966    1.082   .     S
C949   C1072   1.416   1_455 S
C950   H967    1.082   .     S
C950   N976    1.367   .     A
C950   C1075   1.416   1_455 S
C951   H968    1.082   .     S
C951   N977    1.367   .     A
C951   C1012   1.416   .     S
C952   O983    1.289   .     A
C952   O982    1.289   .     A
C953   O985    1.295   .     A
C953   C955    1.462   .     S
C953   O984    1.293   .     A
C956   C957    1.386   .     A
C956   H972    1.083   .     S
C957   C400    1.390   1_556 S
C957   H416    1.083   1_556 S
C958   H973    1.077   .     S
Cu959  N976    2.011   .     S
Cu959  Cu960   2.676   .     S
Cu959  O980    1.955   .     S
Cu959  O984    1.942   .     S
Cu959  O978    1.960   .     S
Cu959  O982    1.962   .     S
Cu960  O981    1.942   .     S
Cu960  O979    1.962   .     S
Cu960  O983    1.960   .     S
Cu960  N977    2.011   .     S
Cu960  O985    1.955   .     S
H970   C396    1.084   1_556 S
C986   H992    1.111   .     S
C986   C987    1.531   .     S
C986   H991    1.112   .     S
C987   H990    1.111   .     S
C987   H616    1.111   1_565 S
C987   H617    1.111   1_565 S
C993   C1009   1.455   .     S
C993   O1040   1.293   .     A
C993   O1041   1.289   .     A
C994   C995    1.419   .     A
C994   C438    1.424   1_556 S
C994   C462    1.418   1_556 S
C995   C1002   1.421   .     A
C995   C999    1.413   .     A
C996   C1000   1.401   .     A
C997   C998    1.392   .     A
C997   C438    1.420   1_556 S
C997   C458    1.404   1_556 S
C998   C999    1.387   .     A
C998   H1031   1.084   .     S
C999   H1037   1.080   .     S
C1000  H1033   1.076   .     S
C1000  C1017   1.396   .     A
C1001  C1016   1.393   .     A
C1001  C1017   1.399   .     A
C1001  H1023   1.083   .     S
C1002  C1018   1.403   .     A
C1002  C1004   1.473   .     S
C1003  C1048   1.527   .     S
C1003  C1009   1.422   .     A
C1003  C633    1.399   1_565 S
C1004  O1042   1.298   .     A
C1004  O1043   1.294   .     A
C1005  H1024   1.081   .     S
C1005  C1006   1.397   .     A
C1006  C1014   1.444   .     S
C1006  C1007   1.393   .     A
C1007  H1025   1.084   .     S
C1008  H1026   1.084   .     S
C1008  C1009   1.402   .     A
C1008  C635    1.380   1_565 S
C1010  H1027   1.081   .     S
C1010  N1039   1.367   .     A
C1010  C1073   1.416   .     S
C1011  N1038   1.366   .     A
C1011  H1028   1.082   .     S
C1012  H1029   1.082   .     S
C1012  N1038   1.367   .     A
C1013  H1030   1.082   .     S
C1013  N1039   1.367   .     A
C1013  C1074   1.416   .     S
C1014  O1045   1.289   .     A
C1014  O1044   1.289   .     A
C1015  O1047   1.295   .     A
C1015  C1017   1.462   .     S
C1015  O1046   1.293   .     A
C1018  C1019   1.386   .     A
C1018  H1034   1.083   .     S
C1019  C462    1.390   1_556 S
C1019  H478    1.083   1_556 S
C1020  H1035   1.077   .     S
Cu1021 N1038   2.011   .     S
Cu1021 Cu1022  2.676   .     S
Cu1021 O1042   1.955   .     S
Cu1021 O1046   1.942   .     S
Cu1021 O1040   1.960   .     S
Cu1021 O1044   1.962   .     S
Cu1022 O1043   1.942   .     S
Cu1022 O1041   1.962   .     S
Cu1022 O1045   1.960   .     S
Cu1022 N1039   2.011   .     S
Cu1022 O1047   1.955   .     S
H1032  C458    1.084   1_556 S
C1048  H1054   1.111   .     S
C1048  C1049   1.531   .     S
C1048  H1053   1.112   .     S
C1049  H1052   1.111   .     S
C1049  H678    1.111   1_565 S
C1049  H679    1.111   1_565 S
C1055  C1071   1.455   .     S
C1055  O1102   1.293   .     A
C1055  O1103   1.289   .     A
C1056  C1057   1.419   .     A
C1056  C500    1.424   1_556 S
C1056  C524    1.418   1_556 S
C1057  C1064   1.421   .     A
C1057  C1061   1.413   .     A
C1058  C1062   1.401   .     A
C1059  C1060   1.392   .     A
C1059  C500    1.420   1_556 S
C1059  C520    1.404   1_556 S
C1060  C1061   1.387   .     A
C1060  H1093   1.084   .     S
C1061  H1099   1.080   .     S
C1062  H1095   1.076   .     S
C1062  C1079   1.396   .     A
C1063  C1078   1.393   .     A
C1063  C1079   1.399   .     A
C1063  H1085   1.083   .     S
C1064  C1080   1.403   .     A
C1064  C1066   1.473   .     S
C1065  C1110   1.527   .     S
C1065  C1071   1.422   .     A
C1065  C695    1.399   1_565 S
C1066  O1104   1.298   .     A
C1066  O1105   1.294   .     A
C1067  H1086   1.081   .     S
C1067  C1068   1.397   .     A
C1068  C1076   1.444   .     S
C1068  C1069   1.393   .     A
C1069  H1087   1.084   .     S
C1070  H1088   1.084   .     S
C1070  C1071   1.402   .     A
C1070  C697    1.380   1_565 S
C1072  H1089   1.081   .     S
C1072  N1101   1.367   .     A
C1072  C949    1.416   1_655 S
C1073  N1100   1.366   .     A
C1073  H1090   1.082   .     S
C1074  H1091   1.082   .     S
C1074  N1100   1.367   .     A
C1075  H1092   1.082   .     S
C1075  N1101   1.367   .     A
C1075  C950    1.416   1_655 S
C1076  O1107   1.289   .     A
C1076  O1106   1.289   .     A
C1077  O1109   1.295   .     A
C1077  C1079   1.462   .     S
C1077  O1108   1.293   .     A
C1080  C1081   1.386   .     A
C1080  H1096   1.083   .     S
C1081  C524    1.390   1_556 S
C1081  H540    1.083   1_556 S
C1082  H1097   1.077   .     S
Cu1083 N1100   2.011   .     S
Cu1083 Cu1084  2.676   .     S
Cu1083 O1104   1.955   .     S
Cu1083 O1108   1.942   .     S
Cu1083 O1102   1.960   .     S
Cu1083 O1106   1.962   .     S
Cu1084 O1105   1.942   .     S
Cu1084 O1103   1.962   .     S
Cu1084 O1107   1.960   .     S
Cu1084 N1101   2.011   .     S
Cu1084 O1109   1.955   .     S
H1094  C520    1.084   1_556 S
C1110  H1116   1.111   .     S
C1110  C1111   1.531   .     S
C1110  H1115   1.112   .     S
C1111  H1114   1.111   .     S
C1111  H740    1.111   1_565 S
C1111  H741    1.111   1_565 S
