data_str_m1_o10_o16_pcu_sym.198
_audit_creation_date              2020-01-03
_audit_creation_method            'Materials Studio'
_symmetry_space_group_name_H-M    'P1'
_symmetry_Int_Tables_number       1
_symmetry_cell_setting            triclinic
loop_
_symmetry_equiv_pos_as_xyz
  x,y,z
_cell_length_a                    32.7198
_cell_length_b                    32.4778
_cell_length_c                    30.8722
_cell_angle_alpha                 95.6642
_cell_angle_beta                  74.6583
_cell_angle_gamma                 98.1733
loop_
_atom_site_label
_atom_site_type_symbol
_atom_site_fract_x
_atom_site_fract_y
_atom_site_fract_z
_atom_site_U_iso_or_equiv
_atom_site_adp_type
_atom_site_occupancy
C1     C     0.05327   0.16031   0.25923   0.00000  Uiso   1.00
C2     C     0.16833   0.15132   0.05721   0.00000  Uiso   1.00
C3     C     0.24000   0.14232   0.05803   0.00000  Uiso   1.00
C4     C     0.28075   0.17364   0.24043   0.00000  Uiso   1.00
C5     C     0.13918   0.19032   0.42053   0.00000  Uiso   1.00
C6     C     0.32609   0.17567   0.23804   0.00000  Uiso   1.00
C7     C     0.00780   0.15581   0.26618   0.00000  Uiso   1.00
C8     C     0.18067   0.32260   0.23620   0.00000  Uiso   1.00
C9     C     0.15261   0.01180   0.26428   0.00000  Uiso   1.00
C10    C     0.15644   0.05589   0.26024   0.00000  Uiso   1.00
C11    C     0.17671   0.27796   0.24009   0.00000  Uiso   1.00
C12    C     0.08705   0.20360   0.49052   0.00000  Uiso   1.00
C13    C     0.18586   0.14838   0.12922   0.00000  Uiso   1.00
C14    C     0.14889   0.18478   0.37099   0.00000  Uiso   1.00
C15    C     0.25521   0.15106   0.01280   0.00000  Uiso   1.00
C16    C     0.19698   0.14296   0.08029   0.00000  Uiso   1.00
C17    C     0.09821   0.19898   0.44396   0.00000  Uiso   1.00
C18    C     0.31378   0.12878   0.30379   0.00000  Uiso   1.00
C19    C     0.00551   0.10953   0.33050   0.00000  Uiso   1.00
C20    C     0.30239   0.14941   0.49097   0.00000  Uiso   1.00
C21    C     0.30970   0.10931   0.46134   0.00000  Uiso   1.00
C22    C     0.10467   0.21429   0.06417   0.00000  Uiso   1.00
C23    C     0.11529   0.19679   0.01550   0.00000  Uiso   1.00
C24    C     0.06476   0.19021   0.09319   0.00000  Uiso   1.00
C25    C     0.15521   0.18193   0.49234   0.00000  Uiso   1.00
C26    C     0.16879   0.18437   0.44479   0.00000  Uiso   1.00
C27    C     0.18297   0.16604   0.01379   0.00000  Uiso   1.00
C28    C     0.22656   0.16319   0.49028   0.00000  Uiso   1.00
C29    C     0.24050   0.17304   0.44520   0.00000  Uiso   1.00
C30    C     0.21206   0.18252   0.42273   0.00000  Uiso   1.00
H31    H     0.26207   0.13631   0.07675   0.00000  Uiso   1.00
H32    H     0.02827   0.08961   0.30788   0.00000  Uiso   1.00
H33    H     0.02307   0.13429   0.34848   0.00000  Uiso   1.00
H34    H     0.31630   0.08958   0.35575   0.00000  Uiso   1.00
H35    H     0.29159   0.14803   0.32832   0.00000  Uiso   1.00
H36    H     0.29515   0.10249   0.28888   0.00000  Uiso   1.00
H37    H     0.29108   0.10573   0.43569   0.00000  Uiso   1.00
H38    H     0.01079   0.10996   0.44392   0.00000  Uiso   1.00
H39    H     0.29986   0.08198   0.48234   0.00000  Uiso   1.00
H40    H     0.31643   0.17715   0.47135   0.00000  Uiso   1.00
H41    H     0.32051   0.15055   0.01697   0.00000  Uiso   1.00
H42    H     0.20654   0.00389   0.21032   0.00000  Uiso   1.00
H43    H     0.03564   0.19715   0.08466   0.00000  Uiso   1.00
H44    H     0.06590   0.15606   0.08820   0.00000  Uiso   1.00
H45    H     0.06208   0.19987   0.12925   0.00000  Uiso   1.00
H46    H     0.13187   0.21664   0.07966   0.00000  Uiso   1.00
H47    H     0.09844   0.24717   0.06483   0.00000  Uiso   1.00
H48    H     0.12650   0.33129   0.29041   0.00000  Uiso   1.00
H49    H     0.27326   0.17242   0.42607   0.00000  Uiso   1.00
H50    H     0.13509   0.14836   0.07469   0.00000  Uiso   1.00
H51    H     0.07494   0.20350   0.42611   0.00000  Uiso   1.00
H52    H     0.05646   0.21414   0.00717   0.00000  Uiso   1.00
H53    H     0.22509   0.18993   0.38804   0.00000  Uiso   1.00
H54    H     0.01495   0.19407   0.21223   0.00000  Uiso   1.00
O55    O     0.16667   0.16667   0.25000   0.00000  Uiso   1.00
O56    O     0.15451   0.12637   0.15459   0.00000  Uiso   1.00
O57    O     0.12940   0.20391   0.34968   0.00000  Uiso   1.00
O58    O     0.20824   0.17759   0.14606   0.00000  Uiso   1.00
O59    O     0.17451   0.15880   0.34968   0.00000  Uiso   1.00
O60    O     0.17930   0.08019   0.28214   0.00000  Uiso   1.00
O61    O     0.14632   0.26085   0.27014   0.00000  Uiso   1.00
O62    O     0.07412   0.13291   0.23413   0.00000  Uiso   1.00
O63    O     0.26693   0.19272   0.21361   0.00000  Uiso   1.00
O64    O     0.07071   0.18878   0.28213   0.00000  Uiso   1.00
O65    O     0.25491   0.15226   0.27014   0.00000  Uiso   1.00
O66    O     0.13760   0.06944   0.23413   0.00000  Uiso   1.00
O67    O     0.20345   0.25620   0.21361   0.00000  Uiso   1.00
Zn68   Zn    0.19338   0.13994   0.28734   0.00000  Uiso   1.00
Zn69   Zn    0.13379   0.12458   0.21876   0.00000  Uiso   1.00
Zn70   Zn    0.21056   0.19775   0.20657   0.00000  Uiso   1.00
Zn71   Zn    0.12893   0.20439   0.28734   0.00000  Uiso   1.00
C72    C     0.38661   0.16031   0.25923   0.00000  Uiso   1.00
C73    C     0.50167   0.15132   0.05721   0.00000  Uiso   1.00
C74    C     0.57333   0.14232   0.05803   0.00000  Uiso   1.00
C75    C     0.61408   0.17364   0.24043   0.00000  Uiso   1.00
C76    C     0.47252   0.19032   0.42053   0.00000  Uiso   1.00
C77    C     0.65942   0.17567   0.23804   0.00000  Uiso   1.00
C78    C     0.34114   0.15581   0.26618   0.00000  Uiso   1.00
C79    C     0.51400   0.32260   0.23620   0.00000  Uiso   1.00
C80    C     0.48594   0.01180   0.26428   0.00000  Uiso   1.00
C81    C     0.48977   0.05589   0.26024   0.00000  Uiso   1.00
C82    C     0.51004   0.27796   0.24009   0.00000  Uiso   1.00
C83    C     0.42038   0.20360   0.49052   0.00000  Uiso   1.00
C84    C     0.51919   0.14838   0.12922   0.00000  Uiso   1.00
C85    C     0.48222   0.18478   0.37099   0.00000  Uiso   1.00
C86    C     0.58854   0.15106   0.01280   0.00000  Uiso   1.00
C87    C     0.53031   0.14296   0.08029   0.00000  Uiso   1.00
C88    C     0.43154   0.19898   0.44396   0.00000  Uiso   1.00
C89    C     0.64711   0.12878   0.30379   0.00000  Uiso   1.00
C90    C     0.33884   0.10953   0.33050   0.00000  Uiso   1.00
C91    C     0.63572   0.14941   0.49097   0.00000  Uiso   1.00
C92    C     0.64304   0.10931   0.46134   0.00000  Uiso   1.00
C93    C     0.43800   0.21429   0.06417   0.00000  Uiso   1.00
C94    C     0.44862   0.19679   0.01550   0.00000  Uiso   1.00
C95    C     0.39809   0.19021   0.09319   0.00000  Uiso   1.00
C96    C     0.48854   0.18193   0.49234   0.00000  Uiso   1.00
C97    C     0.50212   0.18437   0.44479   0.00000  Uiso   1.00
C98    C     0.51630   0.16604   0.01379   0.00000  Uiso   1.00
C99    C     0.55989   0.16319   0.49028   0.00000  Uiso   1.00
C100   C     0.57383   0.17304   0.44520   0.00000  Uiso   1.00
C101   C     0.54540   0.18252   0.42273   0.00000  Uiso   1.00
H102   H     0.59540   0.13631   0.07675   0.00000  Uiso   1.00
H103   H     0.36160   0.08961   0.30788   0.00000  Uiso   1.00
H104   H     0.35640   0.13429   0.34848   0.00000  Uiso   1.00
H105   H     0.64963   0.08958   0.35575   0.00000  Uiso   1.00
H106   H     0.62493   0.14803   0.32832   0.00000  Uiso   1.00
H107   H     0.62848   0.10249   0.28888   0.00000  Uiso   1.00
H108   H     0.62441   0.10573   0.43569   0.00000  Uiso   1.00
H109   H     0.34413   0.10996   0.44392   0.00000  Uiso   1.00
H110   H     0.63320   0.08198   0.48234   0.00000  Uiso   1.00
H111   H     0.64977   0.17715   0.47135   0.00000  Uiso   1.00
H112   H     0.65385   0.15055   0.01697   0.00000  Uiso   1.00
H113   H     0.53987   0.00389   0.21032   0.00000  Uiso   1.00
H114   H     0.36898   0.19715   0.08466   0.00000  Uiso   1.00
H115   H     0.39923   0.15606   0.08820   0.00000  Uiso   1.00
H116   H     0.39541   0.19987   0.12925   0.00000  Uiso   1.00
H117   H     0.46521   0.21664   0.07966   0.00000  Uiso   1.00
H118   H     0.43178   0.24717   0.06483   0.00000  Uiso   1.00
H119   H     0.45984   0.33129   0.29041   0.00000  Uiso   1.00
H120   H     0.60659   0.17242   0.42607   0.00000  Uiso   1.00
H121   H     0.46842   0.14836   0.07469   0.00000  Uiso   1.00
H122   H     0.40827   0.20350   0.42611   0.00000  Uiso   1.00
H123   H     0.38979   0.21414   0.00717   0.00000  Uiso   1.00
H124   H     0.55842   0.18993   0.38804   0.00000  Uiso   1.00
H125   H     0.34828   0.19407   0.21223   0.00000  Uiso   1.00
O126   O     0.50000   0.16667   0.25000   0.00000  Uiso   1.00
O127   O     0.48784   0.12637   0.15459   0.00000  Uiso   1.00
O128   O     0.46274   0.20391   0.34968   0.00000  Uiso   1.00
O129   O     0.54157   0.17759   0.14606   0.00000  Uiso   1.00
O130   O     0.50785   0.15880   0.34968   0.00000  Uiso   1.00
O131   O     0.51264   0.08019   0.28214   0.00000  Uiso   1.00
O132   O     0.47965   0.26085   0.27014   0.00000  Uiso   1.00
O133   O     0.40745   0.13291   0.23413   0.00000  Uiso   1.00
O134   O     0.60026   0.19272   0.21361   0.00000  Uiso   1.00
O135   O     0.40405   0.18878   0.28213   0.00000  Uiso   1.00
O136   O     0.58824   0.15226   0.27014   0.00000  Uiso   1.00
O137   O     0.47093   0.06944   0.23413   0.00000  Uiso   1.00
O138   O     0.53678   0.25620   0.21361   0.00000  Uiso   1.00
Zn139  Zn    0.52672   0.13994   0.28734   0.00000  Uiso   1.00
Zn140  Zn    0.46713   0.12458   0.21876   0.00000  Uiso   1.00
Zn141  Zn    0.54389   0.19775   0.20657   0.00000  Uiso   1.00
Zn142  Zn    0.46226   0.20439   0.28734   0.00000  Uiso   1.00
C143   C     0.71994   0.16031   0.25923   0.00000  Uiso   1.00
C144   C     0.83500   0.15132   0.05721   0.00000  Uiso   1.00
C145   C     0.90666   0.14232   0.05803   0.00000  Uiso   1.00
C146   C     0.94742   0.17364   0.24043   0.00000  Uiso   1.00
C147   C     0.80585   0.19032   0.42053   0.00000  Uiso   1.00
C148   C     0.99276   0.17567   0.23804   0.00000  Uiso   1.00
C149   C     0.67447   0.15581   0.26618   0.00000  Uiso   1.00
C150   C     0.84733   0.32260   0.23620   0.00000  Uiso   1.00
C151   C     0.81928   0.01180   0.26428   0.00000  Uiso   1.00
C152   C     0.82310   0.05589   0.26024   0.00000  Uiso   1.00
C153   C     0.84338   0.27796   0.24009   0.00000  Uiso   1.00
C154   C     0.75371   0.20360   0.49052   0.00000  Uiso   1.00
C155   C     0.85252   0.14838   0.12922   0.00000  Uiso   1.00
C156   C     0.81556   0.18478   0.37099   0.00000  Uiso   1.00
C157   C     0.92188   0.15106   0.01280   0.00000  Uiso   1.00
C158   C     0.86365   0.14296   0.08029   0.00000  Uiso   1.00
C159   C     0.76487   0.19898   0.44396   0.00000  Uiso   1.00
C160   C     0.98045   0.12878   0.30379   0.00000  Uiso   1.00
C161   C     0.67218   0.10953   0.33050   0.00000  Uiso   1.00
C162   C     0.96905   0.14941   0.49097   0.00000  Uiso   1.00
C163   C     0.97637   0.10931   0.46134   0.00000  Uiso   1.00
C164   C     0.77134   0.21429   0.06417   0.00000  Uiso   1.00
C165   C     0.78196   0.19679   0.01550   0.00000  Uiso   1.00
C166   C     0.73142   0.19021   0.09319   0.00000  Uiso   1.00
C167   C     0.82188   0.18193   0.49234   0.00000  Uiso   1.00
C168   C     0.83545   0.18437   0.44479   0.00000  Uiso   1.00
C169   C     0.84963   0.16604   0.01379   0.00000  Uiso   1.00
C170   C     0.89323   0.16319   0.49028   0.00000  Uiso   1.00
C171   C     0.90716   0.17304   0.44520   0.00000  Uiso   1.00
C172   C     0.87873   0.18252   0.42273   0.00000  Uiso   1.00
H173   H     0.92873   0.13631   0.07675   0.00000  Uiso   1.00
H174   H     0.69494   0.08961   0.30788   0.00000  Uiso   1.00
H175   H     0.68974   0.13429   0.34848   0.00000  Uiso   1.00
H176   H     0.98296   0.08958   0.35575   0.00000  Uiso   1.00
H177   H     0.95826   0.14803   0.32832   0.00000  Uiso   1.00
H178   H     0.96181   0.10249   0.28888   0.00000  Uiso   1.00
H179   H     0.95774   0.10573   0.43569   0.00000  Uiso   1.00
H180   H     0.67746   0.10996   0.44392   0.00000  Uiso   1.00
H181   H     0.96653   0.08198   0.48234   0.00000  Uiso   1.00
H182   H     0.98310   0.17715   0.47135   0.00000  Uiso   1.00
H183   H     0.98718   0.15055   0.01697   0.00000  Uiso   1.00
H184   H     0.87320   0.00389   0.21032   0.00000  Uiso   1.00
H185   H     0.70231   0.19715   0.08466   0.00000  Uiso   1.00
H186   H     0.73256   0.15606   0.08820   0.00000  Uiso   1.00
H187   H     0.72874   0.19987   0.12925   0.00000  Uiso   1.00
H188   H     0.79854   0.21664   0.07966   0.00000  Uiso   1.00
H189   H     0.76511   0.24717   0.06483   0.00000  Uiso   1.00
H190   H     0.79317   0.33129   0.29041   0.00000  Uiso   1.00
H191   H     0.93992   0.17242   0.42607   0.00000  Uiso   1.00
H192   H     0.80176   0.14836   0.07469   0.00000  Uiso   1.00
H193   H     0.74161   0.20350   0.42611   0.00000  Uiso   1.00
H194   H     0.72312   0.21414   0.00717   0.00000  Uiso   1.00
H195   H     0.89176   0.18993   0.38804   0.00000  Uiso   1.00
H196   H     0.68162   0.19407   0.21223   0.00000  Uiso   1.00
O197   O     0.83333   0.16667   0.25000   0.00000  Uiso   1.00
O198   O     0.82118   0.12637   0.15459   0.00000  Uiso   1.00
O199   O     0.79607   0.20391   0.34968   0.00000  Uiso   1.00
O200   O     0.87491   0.17759   0.14606   0.00000  Uiso   1.00
O201   O     0.84118   0.15880   0.34968   0.00000  Uiso   1.00
O202   O     0.84597   0.08019   0.28214   0.00000  Uiso   1.00
O203   O     0.81298   0.26085   0.27014   0.00000  Uiso   1.00
O204   O     0.74078   0.13291   0.23413   0.00000  Uiso   1.00
O205   O     0.93360   0.19272   0.21361   0.00000  Uiso   1.00
O206   O     0.73738   0.18878   0.28213   0.00000  Uiso   1.00
O207   O     0.92158   0.15226   0.27014   0.00000  Uiso   1.00
O208   O     0.80426   0.06944   0.23413   0.00000  Uiso   1.00
O209   O     0.87012   0.25620   0.21361   0.00000  Uiso   1.00
Zn210  Zn    0.86005   0.13994   0.28734   0.00000  Uiso   1.00
Zn211  Zn    0.80046   0.12458   0.21876   0.00000  Uiso   1.00
Zn212  Zn    0.87723   0.19775   0.20657   0.00000  Uiso   1.00
Zn213  Zn    0.79560   0.20439   0.28734   0.00000  Uiso   1.00
C214   C     0.05327   0.49364   0.25923   0.00000  Uiso   1.00
C215   C     0.16833   0.48465   0.05721   0.00000  Uiso   1.00
C216   C     0.24000   0.47565   0.05803   0.00000  Uiso   1.00
C217   C     0.28075   0.50697   0.24043   0.00000  Uiso   1.00
C218   C     0.13918   0.52365   0.42053   0.00000  Uiso   1.00
C219   C     0.32609   0.50900   0.23804   0.00000  Uiso   1.00
C220   C     0.00780   0.48914   0.26618   0.00000  Uiso   1.00
C221   C     0.18067   0.65593   0.23620   0.00000  Uiso   1.00
C222   C     0.15261   0.34513   0.26428   0.00000  Uiso   1.00
C223   C     0.15644   0.38922   0.26024   0.00000  Uiso   1.00
C224   C     0.17671   0.61129   0.24009   0.00000  Uiso   1.00
C225   C     0.08705   0.53694   0.49052   0.00000  Uiso   1.00
C226   C     0.18586   0.48171   0.12922   0.00000  Uiso   1.00
C227   C     0.14889   0.51812   0.37099   0.00000  Uiso   1.00
C228   C     0.25521   0.48440   0.01280   0.00000  Uiso   1.00
C229   C     0.19698   0.47629   0.08029   0.00000  Uiso   1.00
C230   C     0.09821   0.53231   0.44396   0.00000  Uiso   1.00
C231   C     0.31378   0.46211   0.30379   0.00000  Uiso   1.00
C232   C     0.00551   0.44286   0.33050   0.00000  Uiso   1.00
C233   C     0.30239   0.48275   0.49097   0.00000  Uiso   1.00
C234   C     0.30970   0.44264   0.46134   0.00000  Uiso   1.00
C235   C     0.10467   0.54763   0.06417   0.00000  Uiso   1.00
C236   C     0.11529   0.53012   0.01550   0.00000  Uiso   1.00
C237   C     0.06476   0.52355   0.09319   0.00000  Uiso   1.00
C238   C     0.15521   0.51526   0.49234   0.00000  Uiso   1.00
C239   C     0.16879   0.51771   0.44479   0.00000  Uiso   1.00
C240   C     0.18297   0.49937   0.01379   0.00000  Uiso   1.00
C241   C     0.22656   0.49652   0.49028   0.00000  Uiso   1.00
C242   C     0.24050   0.50637   0.44520   0.00000  Uiso   1.00
C243   C     0.21206   0.51585   0.42273   0.00000  Uiso   1.00
H244   H     0.26207   0.46964   0.07675   0.00000  Uiso   1.00
H245   H     0.02827   0.42294   0.30788   0.00000  Uiso   1.00
H246   H     0.02307   0.46762   0.34848   0.00000  Uiso   1.00
H247   H     0.31630   0.42292   0.35575   0.00000  Uiso   1.00
H248   H     0.29159   0.48136   0.32832   0.00000  Uiso   1.00
H249   H     0.29515   0.43582   0.28888   0.00000  Uiso   1.00
H250   H     0.29108   0.43907   0.43569   0.00000  Uiso   1.00
H251   H     0.01079   0.44330   0.44392   0.00000  Uiso   1.00
H252   H     0.29986   0.41532   0.48234   0.00000  Uiso   1.00
H253   H     0.31643   0.51048   0.47135   0.00000  Uiso   1.00
H254   H     0.32051   0.48388   0.01697   0.00000  Uiso   1.00
H255   H     0.20654   0.33722   0.21032   0.00000  Uiso   1.00
H256   H     0.03564   0.53048   0.08466   0.00000  Uiso   1.00
H257   H     0.06590   0.48940   0.08820   0.00000  Uiso   1.00
H258   H     0.06208   0.53320   0.12925   0.00000  Uiso   1.00
H259   H     0.13187   0.54998   0.07966   0.00000  Uiso   1.00
H260   H     0.09844   0.58050   0.06483   0.00000  Uiso   1.00
H261   H     0.12650   0.66463   0.29041   0.00000  Uiso   1.00
H262   H     0.27326   0.50575   0.42607   0.00000  Uiso   1.00
H263   H     0.13509   0.48169   0.07469   0.00000  Uiso   1.00
H264   H     0.07494   0.53683   0.42611   0.00000  Uiso   1.00
H265   H     0.05646   0.54747   0.00717   0.00000  Uiso   1.00
H266   H     0.22509   0.52326   0.38804   0.00000  Uiso   1.00
H267   H     0.01495   0.52741   0.21223   0.00000  Uiso   1.00
O268   O     0.16667   0.50000   0.25000   0.00000  Uiso   1.00
O269   O     0.15451   0.45970   0.15459   0.00000  Uiso   1.00
O270   O     0.12940   0.53724   0.34968   0.00000  Uiso   1.00
O271   O     0.20824   0.51092   0.14606   0.00000  Uiso   1.00
O272   O     0.17451   0.49213   0.34968   0.00000  Uiso   1.00
O273   O     0.17930   0.41352   0.28214   0.00000  Uiso   1.00
O274   O     0.14632   0.59418   0.27014   0.00000  Uiso   1.00
O275   O     0.07412   0.46625   0.23413   0.00000  Uiso   1.00
O276   O     0.26693   0.52605   0.21361   0.00000  Uiso   1.00
O277   O     0.07071   0.52211   0.28213   0.00000  Uiso   1.00
O278   O     0.25491   0.48559   0.27014   0.00000  Uiso   1.00
O279   O     0.13760   0.40277   0.23413   0.00000  Uiso   1.00
O280   O     0.20345   0.58953   0.21361   0.00000  Uiso   1.00
Zn281  Zn    0.19338   0.47327   0.28734   0.00000  Uiso   1.00
Zn282  Zn    0.13379   0.45791   0.21876   0.00000  Uiso   1.00
Zn283  Zn    0.21056   0.53109   0.20657   0.00000  Uiso   1.00
Zn284  Zn    0.12893   0.53773   0.28734   0.00000  Uiso   1.00
C285   C     0.38661   0.49364   0.25923   0.00000  Uiso   1.00
C286   C     0.50167   0.48465   0.05721   0.00000  Uiso   1.00
C287   C     0.57333   0.47565   0.05803   0.00000  Uiso   1.00
C288   C     0.61408   0.50697   0.24043   0.00000  Uiso   1.00
C289   C     0.47252   0.52365   0.42053   0.00000  Uiso   1.00
C290   C     0.65942   0.50900   0.23804   0.00000  Uiso   1.00
C291   C     0.34114   0.48914   0.26618   0.00000  Uiso   1.00
C292   C     0.51400   0.65593   0.23620   0.00000  Uiso   1.00
C293   C     0.48594   0.34513   0.26428   0.00000  Uiso   1.00
C294   C     0.48977   0.38922   0.26024   0.00000  Uiso   1.00
C295   C     0.51004   0.61129   0.24009   0.00000  Uiso   1.00
C296   C     0.42038   0.53694   0.49052   0.00000  Uiso   1.00
C297   C     0.51919   0.48171   0.12922   0.00000  Uiso   1.00
C298   C     0.48222   0.51812   0.37099   0.00000  Uiso   1.00
C299   C     0.58854   0.48440   0.01280   0.00000  Uiso   1.00
C300   C     0.53031   0.47629   0.08029   0.00000  Uiso   1.00
C301   C     0.43154   0.53231   0.44396   0.00000  Uiso   1.00
C302   C     0.64711   0.46211   0.30379   0.00000  Uiso   1.00
C303   C     0.33884   0.44286   0.33050   0.00000  Uiso   1.00
C304   C     0.63572   0.48275   0.49097   0.00000  Uiso   1.00
C305   C     0.64304   0.44264   0.46134   0.00000  Uiso   1.00
C306   C     0.43800   0.54763   0.06417   0.00000  Uiso   1.00
C307   C     0.44862   0.53012   0.01550   0.00000  Uiso   1.00
C308   C     0.39809   0.52355   0.09319   0.00000  Uiso   1.00
C309   C     0.48854   0.51526   0.49234   0.00000  Uiso   1.00
C310   C     0.50212   0.51771   0.44479   0.00000  Uiso   1.00
C311   C     0.51630   0.49937   0.01379   0.00000  Uiso   1.00
C312   C     0.55989   0.49652   0.49028   0.00000  Uiso   1.00
C313   C     0.57383   0.50637   0.44520   0.00000  Uiso   1.00
C314   C     0.54540   0.51585   0.42273   0.00000  Uiso   1.00
H315   H     0.59540   0.46964   0.07675   0.00000  Uiso   1.00
H316   H     0.36160   0.42294   0.30788   0.00000  Uiso   1.00
H317   H     0.35640   0.46762   0.34848   0.00000  Uiso   1.00
H318   H     0.64963   0.42292   0.35575   0.00000  Uiso   1.00
H319   H     0.62493   0.48136   0.32832   0.00000  Uiso   1.00
H320   H     0.62848   0.43582   0.28888   0.00000  Uiso   1.00
H321   H     0.62441   0.43907   0.43569   0.00000  Uiso   1.00
H322   H     0.34413   0.44330   0.44392   0.00000  Uiso   1.00
H323   H     0.63320   0.41532   0.48234   0.00000  Uiso   1.00
H324   H     0.64977   0.51048   0.47135   0.00000  Uiso   1.00
H325   H     0.65385   0.48388   0.01697   0.00000  Uiso   1.00
H326   H     0.53987   0.33722   0.21032   0.00000  Uiso   1.00
H327   H     0.36898   0.53048   0.08466   0.00000  Uiso   1.00
H328   H     0.39923   0.48940   0.08820   0.00000  Uiso   1.00
H329   H     0.39541   0.53320   0.12925   0.00000  Uiso   1.00
H330   H     0.46521   0.54998   0.07966   0.00000  Uiso   1.00
H331   H     0.43178   0.58050   0.06483   0.00000  Uiso   1.00
H332   H     0.45984   0.66463   0.29041   0.00000  Uiso   1.00
H333   H     0.60659   0.50575   0.42607   0.00000  Uiso   1.00
H334   H     0.46842   0.48169   0.07469   0.00000  Uiso   1.00
H335   H     0.40827   0.53683   0.42611   0.00000  Uiso   1.00
H336   H     0.38979   0.54747   0.00717   0.00000  Uiso   1.00
H337   H     0.55842   0.52326   0.38804   0.00000  Uiso   1.00
H338   H     0.34828   0.52741   0.21223   0.00000  Uiso   1.00
O339   O     0.50000   0.50000   0.25000   0.00000  Uiso   1.00
O340   O     0.48784   0.45970   0.15459   0.00000  Uiso   1.00
O341   O     0.46274   0.53724   0.34968   0.00000  Uiso   1.00
O342   O     0.54157   0.51092   0.14606   0.00000  Uiso   1.00
O343   O     0.50785   0.49213   0.34968   0.00000  Uiso   1.00
O344   O     0.51264   0.41352   0.28214   0.00000  Uiso   1.00
O345   O     0.47965   0.59418   0.27014   0.00000  Uiso   1.00
O346   O     0.40745   0.46625   0.23413   0.00000  Uiso   1.00
O347   O     0.60026   0.52605   0.21361   0.00000  Uiso   1.00
O348   O     0.40405   0.52211   0.28213   0.00000  Uiso   1.00
O349   O     0.58824   0.48559   0.27014   0.00000  Uiso   1.00
O350   O     0.47093   0.40277   0.23413   0.00000  Uiso   1.00
O351   O     0.53678   0.58953   0.21361   0.00000  Uiso   1.00
Zn352  Zn    0.52672   0.47327   0.28734   0.00000  Uiso   1.00
Zn353  Zn    0.46713   0.45791   0.21876   0.00000  Uiso   1.00
Zn354  Zn    0.54389   0.53109   0.20657   0.00000  Uiso   1.00
Zn355  Zn    0.46226   0.53773   0.28734   0.00000  Uiso   1.00
C356   C     0.71994   0.49364   0.25923   0.00000  Uiso   1.00
C357   C     0.83500   0.48465   0.05721   0.00000  Uiso   1.00
C358   C     0.90666   0.47565   0.05803   0.00000  Uiso   1.00
C359   C     0.94742   0.50697   0.24043   0.00000  Uiso   1.00
C360   C     0.80585   0.52365   0.42053   0.00000  Uiso   1.00
C361   C     0.99276   0.50900   0.23804   0.00000  Uiso   1.00
C362   C     0.67447   0.48914   0.26618   0.00000  Uiso   1.00
C363   C     0.84733   0.65593   0.23620   0.00000  Uiso   1.00
C364   C     0.81928   0.34513   0.26428   0.00000  Uiso   1.00
C365   C     0.82310   0.38922   0.26024   0.00000  Uiso   1.00
C366   C     0.84338   0.61129   0.24009   0.00000  Uiso   1.00
C367   C     0.75371   0.53694   0.49052   0.00000  Uiso   1.00
C368   C     0.85252   0.48171   0.12922   0.00000  Uiso   1.00
C369   C     0.81556   0.51812   0.37099   0.00000  Uiso   1.00
C370   C     0.92188   0.48440   0.01280   0.00000  Uiso   1.00
C371   C     0.86365   0.47629   0.08029   0.00000  Uiso   1.00
C372   C     0.76487   0.53231   0.44396   0.00000  Uiso   1.00
C373   C     0.98045   0.46211   0.30379   0.00000  Uiso   1.00
C374   C     0.67218   0.44286   0.33050   0.00000  Uiso   1.00
C375   C     0.96905   0.48275   0.49097   0.00000  Uiso   1.00
C376   C     0.97637   0.44264   0.46134   0.00000  Uiso   1.00
C377   C     0.77134   0.54763   0.06417   0.00000  Uiso   1.00
C378   C     0.78196   0.53012   0.01550   0.00000  Uiso   1.00
C379   C     0.73142   0.52355   0.09319   0.00000  Uiso   1.00
C380   C     0.82188   0.51526   0.49234   0.00000  Uiso   1.00
C381   C     0.83545   0.51771   0.44479   0.00000  Uiso   1.00
C382   C     0.84963   0.49937   0.01379   0.00000  Uiso   1.00
C383   C     0.89323   0.49652   0.49028   0.00000  Uiso   1.00
C384   C     0.90716   0.50637   0.44520   0.00000  Uiso   1.00
C385   C     0.87873   0.51585   0.42273   0.00000  Uiso   1.00
H386   H     0.92873   0.46964   0.07675   0.00000  Uiso   1.00
H387   H     0.69494   0.42294   0.30788   0.00000  Uiso   1.00
H388   H     0.68974   0.46762   0.34848   0.00000  Uiso   1.00
H389   H     0.98296   0.42292   0.35575   0.00000  Uiso   1.00
H390   H     0.95826   0.48136   0.32832   0.00000  Uiso   1.00
H391   H     0.96181   0.43582   0.28888   0.00000  Uiso   1.00
H392   H     0.95774   0.43907   0.43569   0.00000  Uiso   1.00
H393   H     0.67746   0.44330   0.44392   0.00000  Uiso   1.00
H394   H     0.96653   0.41532   0.48234   0.00000  Uiso   1.00
H395   H     0.98310   0.51048   0.47135   0.00000  Uiso   1.00
H396   H     0.98718   0.48388   0.01697   0.00000  Uiso   1.00
H397   H     0.87320   0.33722   0.21032   0.00000  Uiso   1.00
H398   H     0.70231   0.53048   0.08466   0.00000  Uiso   1.00
H399   H     0.73256   0.48940   0.08820   0.00000  Uiso   1.00
H400   H     0.72874   0.53320   0.12925   0.00000  Uiso   1.00
H401   H     0.79854   0.54998   0.07966   0.00000  Uiso   1.00
H402   H     0.76511   0.58050   0.06483   0.00000  Uiso   1.00
H403   H     0.79317   0.66463   0.29041   0.00000  Uiso   1.00
H404   H     0.93992   0.50575   0.42607   0.00000  Uiso   1.00
H405   H     0.80176   0.48169   0.07469   0.00000  Uiso   1.00
H406   H     0.74161   0.53683   0.42611   0.00000  Uiso   1.00
H407   H     0.72312   0.54747   0.00717   0.00000  Uiso   1.00
H408   H     0.89176   0.52326   0.38804   0.00000  Uiso   1.00
H409   H     0.68162   0.52741   0.21223   0.00000  Uiso   1.00
O410   O     0.83333   0.50000   0.25000   0.00000  Uiso   1.00
O411   O     0.82118   0.45970   0.15459   0.00000  Uiso   1.00
O412   O     0.79607   0.53724   0.34968   0.00000  Uiso   1.00
O413   O     0.87491   0.51092   0.14606   0.00000  Uiso   1.00
O414   O     0.84118   0.49213   0.34968   0.00000  Uiso   1.00
O415   O     0.84597   0.41352   0.28214   0.00000  Uiso   1.00
O416   O     0.81298   0.59418   0.27014   0.00000  Uiso   1.00
O417   O     0.74078   0.46625   0.23413   0.00000  Uiso   1.00
O418   O     0.93360   0.52605   0.21361   0.00000  Uiso   1.00
O419   O     0.73738   0.52211   0.28213   0.00000  Uiso   1.00
O420   O     0.92158   0.48559   0.27014   0.00000  Uiso   1.00
O421   O     0.80426   0.40277   0.23413   0.00000  Uiso   1.00
O422   O     0.87012   0.58953   0.21361   0.00000  Uiso   1.00
Zn423  Zn    0.86005   0.47327   0.28734   0.00000  Uiso   1.00
Zn424  Zn    0.80046   0.45791   0.21876   0.00000  Uiso   1.00
Zn425  Zn    0.87723   0.53109   0.20657   0.00000  Uiso   1.00
Zn426  Zn    0.79560   0.53773   0.28734   0.00000  Uiso   1.00
C427   C     0.05327   0.82697   0.25923   0.00000  Uiso   1.00
C428   C     0.16833   0.81799   0.05721   0.00000  Uiso   1.00
C429   C     0.24000   0.80898   0.05803   0.00000  Uiso   1.00
C430   C     0.28075   0.84031   0.24043   0.00000  Uiso   1.00
C431   C     0.13918   0.85698   0.42053   0.00000  Uiso   1.00
C432   C     0.32609   0.84234   0.23804   0.00000  Uiso   1.00
C433   C     0.00780   0.82248   0.26618   0.00000  Uiso   1.00
C434   C     0.18067   0.98926   0.23620   0.00000  Uiso   1.00
C435   C     0.15261   0.67846   0.26428   0.00000  Uiso   1.00
C436   C     0.15644   0.72256   0.26024   0.00000  Uiso   1.00
C437   C     0.17671   0.94462   0.24009   0.00000  Uiso   1.00
C438   C     0.08705   0.87027   0.49052   0.00000  Uiso   1.00
C439   C     0.18586   0.81505   0.12922   0.00000  Uiso   1.00
C440   C     0.14889   0.85145   0.37099   0.00000  Uiso   1.00
C441   C     0.25521   0.81773   0.01280   0.00000  Uiso   1.00
C442   C     0.19698   0.80963   0.08029   0.00000  Uiso   1.00
C443   C     0.09821   0.86565   0.44396   0.00000  Uiso   1.00
C444   C     0.31378   0.79545   0.30379   0.00000  Uiso   1.00
C445   C     0.00551   0.77619   0.33050   0.00000  Uiso   1.00
C446   C     0.30239   0.81608   0.49097   0.00000  Uiso   1.00
C447   C     0.30970   0.77598   0.46134   0.00000  Uiso   1.00
C448   C     0.10467   0.88096   0.06417   0.00000  Uiso   1.00
C449   C     0.11529   0.86346   0.01550   0.00000  Uiso   1.00
C450   C     0.06476   0.85688   0.09319   0.00000  Uiso   1.00
C451   C     0.15521   0.84859   0.49234   0.00000  Uiso   1.00
C452   C     0.16879   0.85104   0.44479   0.00000  Uiso   1.00
C453   C     0.18297   0.83270   0.01379   0.00000  Uiso   1.00
C454   C     0.22656   0.82985   0.49028   0.00000  Uiso   1.00
C455   C     0.24050   0.83971   0.44520   0.00000  Uiso   1.00
C456   C     0.21206   0.84919   0.42273   0.00000  Uiso   1.00
H457   H     0.26207   0.80298   0.07675   0.00000  Uiso   1.00
H458   H     0.02827   0.75627   0.30788   0.00000  Uiso   1.00
H459   H     0.02307   0.80096   0.34848   0.00000  Uiso   1.00
H460   H     0.31630   0.75625   0.35575   0.00000  Uiso   1.00
H461   H     0.29159   0.81469   0.32832   0.00000  Uiso   1.00
H462   H     0.29515   0.76916   0.28888   0.00000  Uiso   1.00
H463   H     0.29108   0.77240   0.43569   0.00000  Uiso   1.00
H464   H     0.01079   0.77663   0.44392   0.00000  Uiso   1.00
H465   H     0.29986   0.74865   0.48234   0.00000  Uiso   1.00
H466   H     0.31643   0.84381   0.47135   0.00000  Uiso   1.00
H467   H     0.32051   0.81721   0.01697   0.00000  Uiso   1.00
H468   H     0.20654   0.67055   0.21032   0.00000  Uiso   1.00
H469   H     0.03564   0.86381   0.08466   0.00000  Uiso   1.00
H470   H     0.06590   0.82273   0.08820   0.00000  Uiso   1.00
H471   H     0.06208   0.86653   0.12925   0.00000  Uiso   1.00
H472   H     0.13187   0.88331   0.07966   0.00000  Uiso   1.00
H473   H     0.09844   0.91383   0.06483   0.00000  Uiso   1.00
H474   H     0.12650   0.99796   0.29041   0.00000  Uiso   1.00
H475   H     0.27326   0.83909   0.42607   0.00000  Uiso   1.00
H476   H     0.13509   0.81503   0.07469   0.00000  Uiso   1.00
H477   H     0.07494   0.87016   0.42611   0.00000  Uiso   1.00
H478   H     0.05646   0.88080   0.00717   0.00000  Uiso   1.00
H479   H     0.22509   0.85660   0.38804   0.00000  Uiso   1.00
H480   H     0.01495   0.86074   0.21223   0.00000  Uiso   1.00
O481   O     0.16667   0.83333   0.25000   0.00000  Uiso   1.00
O482   O     0.15451   0.79304   0.15459   0.00000  Uiso   1.00
O483   O     0.12940   0.87058   0.34968   0.00000  Uiso   1.00
O484   O     0.20824   0.84425   0.14606   0.00000  Uiso   1.00
O485   O     0.17451   0.82546   0.34968   0.00000  Uiso   1.00
O486   O     0.17930   0.74686   0.28214   0.00000  Uiso   1.00
O487   O     0.14632   0.92751   0.27014   0.00000  Uiso   1.00
O488   O     0.07412   0.79958   0.23413   0.00000  Uiso   1.00
O489   O     0.26693   0.85939   0.21361   0.00000  Uiso   1.00
O490   O     0.07071   0.85544   0.28213   0.00000  Uiso   1.00
O491   O     0.25491   0.81892   0.27014   0.00000  Uiso   1.00
O492   O     0.13760   0.73610   0.23413   0.00000  Uiso   1.00
O493   O     0.20345   0.92286   0.21361   0.00000  Uiso   1.00
Zn494  Zn    0.19338   0.80661   0.28734   0.00000  Uiso   1.00
Zn495  Zn    0.13379   0.79124   0.21876   0.00000  Uiso   1.00
Zn496  Zn    0.21056   0.86442   0.20657   0.00000  Uiso   1.00
Zn497  Zn    0.12893   0.87106   0.28734   0.00000  Uiso   1.00
C498   C     0.38661   0.82697   0.25923   0.00000  Uiso   1.00
C499   C     0.50167   0.81799   0.05721   0.00000  Uiso   1.00
C500   C     0.57333   0.80898   0.05803   0.00000  Uiso   1.00
C501   C     0.61408   0.84031   0.24043   0.00000  Uiso   1.00
C502   C     0.47252   0.85698   0.42053   0.00000  Uiso   1.00
C503   C     0.65942   0.84234   0.23804   0.00000  Uiso   1.00
C504   C     0.34114   0.82248   0.26618   0.00000  Uiso   1.00
C505   C     0.51400   0.98926   0.23620   0.00000  Uiso   1.00
C506   C     0.48594   0.67846   0.26428   0.00000  Uiso   1.00
C507   C     0.48977   0.72256   0.26024   0.00000  Uiso   1.00
C508   C     0.51004   0.94462   0.24009   0.00000  Uiso   1.00
C509   C     0.42038   0.87027   0.49052   0.00000  Uiso   1.00
C510   C     0.51919   0.81505   0.12922   0.00000  Uiso   1.00
C511   C     0.48222   0.85145   0.37099   0.00000  Uiso   1.00
C512   C     0.58854   0.81773   0.01280   0.00000  Uiso   1.00
C513   C     0.53031   0.80963   0.08029   0.00000  Uiso   1.00
C514   C     0.43154   0.86565   0.44396   0.00000  Uiso   1.00
C515   C     0.64711   0.79545   0.30379   0.00000  Uiso   1.00
C516   C     0.33884   0.77619   0.33050   0.00000  Uiso   1.00
C517   C     0.63572   0.81608   0.49097   0.00000  Uiso   1.00
C518   C     0.64304   0.77598   0.46134   0.00000  Uiso   1.00
C519   C     0.43800   0.88096   0.06417   0.00000  Uiso   1.00
C520   C     0.44862   0.86346   0.01550   0.00000  Uiso   1.00
C521   C     0.39809   0.85688   0.09319   0.00000  Uiso   1.00
C522   C     0.48854   0.84859   0.49234   0.00000  Uiso   1.00
C523   C     0.50212   0.85104   0.44479   0.00000  Uiso   1.00
C524   C     0.51630   0.83270   0.01379   0.00000  Uiso   1.00
C525   C     0.55989   0.82985   0.49028   0.00000  Uiso   1.00
C526   C     0.57383   0.83971   0.44520   0.00000  Uiso   1.00
C527   C     0.54540   0.84919   0.42273   0.00000  Uiso   1.00
H528   H     0.59540   0.80298   0.07675   0.00000  Uiso   1.00
H529   H     0.36160   0.75627   0.30788   0.00000  Uiso   1.00
H530   H     0.35640   0.80096   0.34848   0.00000  Uiso   1.00
H531   H     0.64963   0.75625   0.35575   0.00000  Uiso   1.00
H532   H     0.62493   0.81469   0.32832   0.00000  Uiso   1.00
H533   H     0.62848   0.76916   0.28888   0.00000  Uiso   1.00
H534   H     0.62441   0.77240   0.43569   0.00000  Uiso   1.00
H535   H     0.34413   0.77663   0.44392   0.00000  Uiso   1.00
H536   H     0.63320   0.74865   0.48234   0.00000  Uiso   1.00
H537   H     0.64977   0.84381   0.47135   0.00000  Uiso   1.00
H538   H     0.65385   0.81721   0.01697   0.00000  Uiso   1.00
H539   H     0.53987   0.67055   0.21032   0.00000  Uiso   1.00
H540   H     0.36898   0.86381   0.08466   0.00000  Uiso   1.00
H541   H     0.39923   0.82273   0.08820   0.00000  Uiso   1.00
H542   H     0.39541   0.86653   0.12925   0.00000  Uiso   1.00
H543   H     0.46521   0.88331   0.07966   0.00000  Uiso   1.00
H544   H     0.43178   0.91383   0.06483   0.00000  Uiso   1.00
H545   H     0.45984   0.99796   0.29041   0.00000  Uiso   1.00
H546   H     0.60659   0.83909   0.42607   0.00000  Uiso   1.00
H547   H     0.46842   0.81503   0.07469   0.00000  Uiso   1.00
H548   H     0.40827   0.87016   0.42611   0.00000  Uiso   1.00
H549   H     0.38979   0.88080   0.00717   0.00000  Uiso   1.00
H550   H     0.55842   0.85660   0.38804   0.00000  Uiso   1.00
H551   H     0.34828   0.86074   0.21223   0.00000  Uiso   1.00
O552   O     0.50000   0.83333   0.25000   0.00000  Uiso   1.00
O553   O     0.48784   0.79304   0.15459   0.00000  Uiso   1.00
O554   O     0.46274   0.87058   0.34968   0.00000  Uiso   1.00
O555   O     0.54157   0.84425   0.14606   0.00000  Uiso   1.00
O556   O     0.50785   0.82546   0.34968   0.00000  Uiso   1.00
O557   O     0.51264   0.74686   0.28214   0.00000  Uiso   1.00
O558   O     0.47965   0.92751   0.27014   0.00000  Uiso   1.00
O559   O     0.40745   0.79958   0.23413   0.00000  Uiso   1.00
O560   O     0.60026   0.85939   0.21361   0.00000  Uiso   1.00
O561   O     0.40405   0.85544   0.28213   0.00000  Uiso   1.00
O562   O     0.58824   0.81892   0.27014   0.00000  Uiso   1.00
O563   O     0.47093   0.73610   0.23413   0.00000  Uiso   1.00
O564   O     0.53678   0.92286   0.21361   0.00000  Uiso   1.00
Zn565  Zn    0.52672   0.80661   0.28734   0.00000  Uiso   1.00
Zn566  Zn    0.46713   0.79124   0.21876   0.00000  Uiso   1.00
Zn567  Zn    0.54389   0.86442   0.20657   0.00000  Uiso   1.00
Zn568  Zn    0.46226   0.87106   0.28734   0.00000  Uiso   1.00
C569   C     0.71994   0.82697   0.25923   0.00000  Uiso   1.00
C570   C     0.83500   0.81799   0.05721   0.00000  Uiso   1.00
C571   C     0.90666   0.80898   0.05803   0.00000  Uiso   1.00
C572   C     0.94742   0.84031   0.24043   0.00000  Uiso   1.00
C573   C     0.80585   0.85698   0.42053   0.00000  Uiso   1.00
C574   C     0.99276   0.84234   0.23804   0.00000  Uiso   1.00
C575   C     0.67447   0.82248   0.26618   0.00000  Uiso   1.00
C576   C     0.84733   0.98926   0.23620   0.00000  Uiso   1.00
C577   C     0.81928   0.67846   0.26428   0.00000  Uiso   1.00
C578   C     0.82310   0.72256   0.26024   0.00000  Uiso   1.00
C579   C     0.84338   0.94462   0.24009   0.00000  Uiso   1.00
C580   C     0.75371   0.87027   0.49052   0.00000  Uiso   1.00
C581   C     0.85252   0.81505   0.12922   0.00000  Uiso   1.00
C582   C     0.81556   0.85145   0.37099   0.00000  Uiso   1.00
C583   C     0.92188   0.81773   0.01280   0.00000  Uiso   1.00
C584   C     0.86365   0.80963   0.08029   0.00000  Uiso   1.00
C585   C     0.76487   0.86565   0.44396   0.00000  Uiso   1.00
C586   C     0.98045   0.79545   0.30379   0.00000  Uiso   1.00
C587   C     0.67218   0.77619   0.33050   0.00000  Uiso   1.00
C588   C     0.96905   0.81608   0.49097   0.00000  Uiso   1.00
C589   C     0.97637   0.77598   0.46134   0.00000  Uiso   1.00
C590   C     0.77134   0.88096   0.06417   0.00000  Uiso   1.00
C591   C     0.78196   0.86346   0.01550   0.00000  Uiso   1.00
C592   C     0.73142   0.85688   0.09319   0.00000  Uiso   1.00
C593   C     0.82188   0.84859   0.49234   0.00000  Uiso   1.00
C594   C     0.83545   0.85104   0.44479   0.00000  Uiso   1.00
C595   C     0.84963   0.83270   0.01379   0.00000  Uiso   1.00
C596   C     0.89323   0.82985   0.49028   0.00000  Uiso   1.00
C597   C     0.90716   0.83971   0.44520   0.00000  Uiso   1.00
C598   C     0.87873   0.84919   0.42273   0.00000  Uiso   1.00
H599   H     0.92873   0.80298   0.07675   0.00000  Uiso   1.00
H600   H     0.69494   0.75627   0.30788   0.00000  Uiso   1.00
H601   H     0.68974   0.80096   0.34848   0.00000  Uiso   1.00
H602   H     0.98296   0.75625   0.35575   0.00000  Uiso   1.00
H603   H     0.95826   0.81469   0.32832   0.00000  Uiso   1.00
H604   H     0.96181   0.76916   0.28888   0.00000  Uiso   1.00
H605   H     0.95774   0.77240   0.43569   0.00000  Uiso   1.00
H606   H     0.67746   0.77663   0.44392   0.00000  Uiso   1.00
H607   H     0.96653   0.74865   0.48234   0.00000  Uiso   1.00
H608   H     0.98310   0.84381   0.47135   0.00000  Uiso   1.00
H609   H     0.98718   0.81721   0.01697   0.00000  Uiso   1.00
H610   H     0.87320   0.67055   0.21032   0.00000  Uiso   1.00
H611   H     0.70231   0.86381   0.08466   0.00000  Uiso   1.00
H612   H     0.73256   0.82273   0.08820   0.00000  Uiso   1.00
H613   H     0.72874   0.86653   0.12925   0.00000  Uiso   1.00
H614   H     0.79854   0.88331   0.07966   0.00000  Uiso   1.00
H615   H     0.76511   0.91383   0.06483   0.00000  Uiso   1.00
H616   H     0.79317   0.99796   0.29041   0.00000  Uiso   1.00
H617   H     0.93992   0.83909   0.42607   0.00000  Uiso   1.00
H618   H     0.80176   0.81503   0.07469   0.00000  Uiso   1.00
H619   H     0.74161   0.87016   0.42611   0.00000  Uiso   1.00
H620   H     0.72312   0.88080   0.00717   0.00000  Uiso   1.00
H621   H     0.89176   0.85660   0.38804   0.00000  Uiso   1.00
H622   H     0.68162   0.86074   0.21223   0.00000  Uiso   1.00
O623   O     0.83333   0.83333   0.25000   0.00000  Uiso   1.00
O624   O     0.82118   0.79304   0.15459   0.00000  Uiso   1.00
O625   O     0.79607   0.87058   0.34968   0.00000  Uiso   1.00
O626   O     0.87491   0.84425   0.14606   0.00000  Uiso   1.00
O627   O     0.84118   0.82546   0.34968   0.00000  Uiso   1.00
O628   O     0.84597   0.74686   0.28214   0.00000  Uiso   1.00
O629   O     0.81298   0.92751   0.27014   0.00000  Uiso   1.00
O630   O     0.74078   0.79958   0.23413   0.00000  Uiso   1.00
O631   O     0.93360   0.85939   0.21361   0.00000  Uiso   1.00
O632   O     0.73738   0.85544   0.28213   0.00000  Uiso   1.00
O633   O     0.92158   0.81892   0.27014   0.00000  Uiso   1.00
O634   O     0.80426   0.73610   0.23413   0.00000  Uiso   1.00
O635   O     0.87012   0.92286   0.21361   0.00000  Uiso   1.00
Zn636  Zn    0.86005   0.80661   0.28734   0.00000  Uiso   1.00
Zn637  Zn    0.80046   0.79124   0.21876   0.00000  Uiso   1.00
Zn638  Zn    0.87723   0.86442   0.20657   0.00000  Uiso   1.00
Zn639  Zn    0.79560   0.87106   0.28734   0.00000  Uiso   1.00
C640   C     0.05327   0.16031   0.75923   0.00000  Uiso   1.00
C641   C     0.16833   0.15132   0.55721   0.00000  Uiso   1.00
C642   C     0.24000   0.14232   0.55803   0.00000  Uiso   1.00
C643   C     0.28075   0.17364   0.74043   0.00000  Uiso   1.00
C644   C     0.13918   0.19032   0.92053   0.00000  Uiso   1.00
C645   C     0.32609   0.17567   0.73804   0.00000  Uiso   1.00
C646   C     0.00780   0.15581   0.76618   0.00000  Uiso   1.00
C647   C     0.18067   0.32260   0.73620   0.00000  Uiso   1.00
C648   C     0.15261   0.01180   0.76428   0.00000  Uiso   1.00
C649   C     0.15644   0.05589   0.76024   0.00000  Uiso   1.00
C650   C     0.17671   0.27796   0.74009   0.00000  Uiso   1.00
C651   C     0.08705   0.20360   0.99052   0.00000  Uiso   1.00
C652   C     0.18586   0.14838   0.62922   0.00000  Uiso   1.00
C653   C     0.14889   0.18478   0.87099   0.00000  Uiso   1.00
C654   C     0.25521   0.15106   0.51280   0.00000  Uiso   1.00
C655   C     0.19698   0.14296   0.58029   0.00000  Uiso   1.00
C656   C     0.09821   0.19898   0.94396   0.00000  Uiso   1.00
C657   C     0.31378   0.12878   0.80379   0.00000  Uiso   1.00
C658   C     0.00551   0.10953   0.83050   0.00000  Uiso   1.00
C659   C     0.30239   0.14941   0.99097   0.00000  Uiso   1.00
C660   C     0.30970   0.10931   0.96134   0.00000  Uiso   1.00
C661   C     0.10467   0.21429   0.56417   0.00000  Uiso   1.00
C662   C     0.11529   0.19679   0.51550   0.00000  Uiso   1.00
C663   C     0.06476   0.19021   0.59319   0.00000  Uiso   1.00
C664   C     0.15521   0.18193   0.99234   0.00000  Uiso   1.00
C665   C     0.16879   0.18437   0.94479   0.00000  Uiso   1.00
C666   C     0.18297   0.16604   0.51379   0.00000  Uiso   1.00
C667   C     0.22656   0.16319   0.99028   0.00000  Uiso   1.00
C668   C     0.24050   0.17304   0.94520   0.00000  Uiso   1.00
C669   C     0.21206   0.18252   0.92273   0.00000  Uiso   1.00
H670   H     0.26207   0.13631   0.57675   0.00000  Uiso   1.00
H671   H     0.02827   0.08961   0.80788   0.00000  Uiso   1.00
H672   H     0.02307   0.13429   0.84848   0.00000  Uiso   1.00
H673   H     0.31630   0.08958   0.85575   0.00000  Uiso   1.00
H674   H     0.29159   0.14803   0.82832   0.00000  Uiso   1.00
H675   H     0.29515   0.10249   0.78888   0.00000  Uiso   1.00
H676   H     0.29108   0.10573   0.93569   0.00000  Uiso   1.00
H677   H     0.01079   0.10996   0.94392   0.00000  Uiso   1.00
H678   H     0.29986   0.08198   0.98234   0.00000  Uiso   1.00
H679   H     0.31643   0.17715   0.97135   0.00000  Uiso   1.00
H680   H     0.32051   0.15055   0.51697   0.00000  Uiso   1.00
H681   H     0.20654   0.00389   0.71032   0.00000  Uiso   1.00
H682   H     0.03564   0.19715   0.58466   0.00000  Uiso   1.00
H683   H     0.06590   0.15606   0.58820   0.00000  Uiso   1.00
H684   H     0.06208   0.19987   0.62925   0.00000  Uiso   1.00
H685   H     0.13187   0.21664   0.57966   0.00000  Uiso   1.00
H686   H     0.09844   0.24717   0.56483   0.00000  Uiso   1.00
H687   H     0.12650   0.33129   0.79041   0.00000  Uiso   1.00
H688   H     0.27326   0.17242   0.92607   0.00000  Uiso   1.00
H689   H     0.13509   0.14836   0.57469   0.00000  Uiso   1.00
H690   H     0.07494   0.20350   0.92611   0.00000  Uiso   1.00
H691   H     0.05646   0.21414   0.50717   0.00000  Uiso   1.00
H692   H     0.22509   0.18993   0.88804   0.00000  Uiso   1.00
H693   H     0.01495   0.19407   0.71223   0.00000  Uiso   1.00
O694   O     0.16667   0.16667   0.75000   0.00000  Uiso   1.00
O695   O     0.15451   0.12637   0.65459   0.00000  Uiso   1.00
O696   O     0.12940   0.20391   0.84968   0.00000  Uiso   1.00
O697   O     0.20824   0.17759   0.64606   0.00000  Uiso   1.00
O698   O     0.17451   0.15880   0.84968   0.00000  Uiso   1.00
O699   O     0.17930   0.08019   0.78214   0.00000  Uiso   1.00
O700   O     0.14632   0.26085   0.77014   0.00000  Uiso   1.00
O701   O     0.07412   0.13291   0.73413   0.00000  Uiso   1.00
O702   O     0.26693   0.19272   0.71361   0.00000  Uiso   1.00
O703   O     0.07071   0.18878   0.78213   0.00000  Uiso   1.00
O704   O     0.25491   0.15226   0.77014   0.00000  Uiso   1.00
O705   O     0.13760   0.06944   0.73413   0.00000  Uiso   1.00
O706   O     0.20345   0.25620   0.71361   0.00000  Uiso   1.00
Zn707  Zn    0.19338   0.13994   0.78734   0.00000  Uiso   1.00
Zn708  Zn    0.13379   0.12458   0.71876   0.00000  Uiso   1.00
Zn709  Zn    0.21056   0.19775   0.70657   0.00000  Uiso   1.00
Zn710  Zn    0.12893   0.20439   0.78734   0.00000  Uiso   1.00
C711   C     0.38661   0.16031   0.75923   0.00000  Uiso   1.00
C712   C     0.50167   0.15132   0.55721   0.00000  Uiso   1.00
C713   C     0.57333   0.14232   0.55803   0.00000  Uiso   1.00
C714   C     0.61408   0.17364   0.74043   0.00000  Uiso   1.00
C715   C     0.47252   0.19032   0.92053   0.00000  Uiso   1.00
C716   C     0.65942   0.17567   0.73804   0.00000  Uiso   1.00
C717   C     0.34114   0.15581   0.76618   0.00000  Uiso   1.00
C718   C     0.51400   0.32260   0.73620   0.00000  Uiso   1.00
C719   C     0.48594   0.01180   0.76428   0.00000  Uiso   1.00
C720   C     0.48977   0.05589   0.76024   0.00000  Uiso   1.00
C721   C     0.51004   0.27796   0.74009   0.00000  Uiso   1.00
C722   C     0.42038   0.20360   0.99052   0.00000  Uiso   1.00
C723   C     0.51919   0.14838   0.62922   0.00000  Uiso   1.00
C724   C     0.48222   0.18478   0.87099   0.00000  Uiso   1.00
C725   C     0.58854   0.15106   0.51280   0.00000  Uiso   1.00
C726   C     0.53031   0.14296   0.58029   0.00000  Uiso   1.00
C727   C     0.43154   0.19898   0.94396   0.00000  Uiso   1.00
C728   C     0.64711   0.12878   0.80379   0.00000  Uiso   1.00
C729   C     0.33884   0.10953   0.83050   0.00000  Uiso   1.00
C730   C     0.63572   0.14941   0.99097   0.00000  Uiso   1.00
C731   C     0.64304   0.10931   0.96134   0.00000  Uiso   1.00
C732   C     0.43800   0.21429   0.56417   0.00000  Uiso   1.00
C733   C     0.44862   0.19679   0.51550   0.00000  Uiso   1.00
C734   C     0.39809   0.19021   0.59319   0.00000  Uiso   1.00
C735   C     0.48854   0.18193   0.99234   0.00000  Uiso   1.00
C736   C     0.50212   0.18437   0.94479   0.00000  Uiso   1.00
C737   C     0.51630   0.16604   0.51379   0.00000  Uiso   1.00
C738   C     0.55989   0.16319   0.99028   0.00000  Uiso   1.00
C739   C     0.57383   0.17304   0.94520   0.00000  Uiso   1.00
C740   C     0.54540   0.18252   0.92273   0.00000  Uiso   1.00
H741   H     0.59540   0.13631   0.57675   0.00000  Uiso   1.00
H742   H     0.36160   0.08961   0.80788   0.00000  Uiso   1.00
H743   H     0.35640   0.13429   0.84848   0.00000  Uiso   1.00
H744   H     0.64963   0.08958   0.85575   0.00000  Uiso   1.00
H745   H     0.62493   0.14803   0.82832   0.00000  Uiso   1.00
H746   H     0.62848   0.10249   0.78888   0.00000  Uiso   1.00
H747   H     0.62441   0.10573   0.93569   0.00000  Uiso   1.00
H748   H     0.34413   0.10996   0.94392   0.00000  Uiso   1.00
H749   H     0.63320   0.08198   0.98234   0.00000  Uiso   1.00
H750   H     0.64977   0.17715   0.97135   0.00000  Uiso   1.00
H751   H     0.65385   0.15055   0.51697   0.00000  Uiso   1.00
H752   H     0.53987   0.00389   0.71032   0.00000  Uiso   1.00
H753   H     0.36898   0.19715   0.58466   0.00000  Uiso   1.00
H754   H     0.39923   0.15606   0.58820   0.00000  Uiso   1.00
H755   H     0.39541   0.19987   0.62925   0.00000  Uiso   1.00
H756   H     0.46521   0.21664   0.57966   0.00000  Uiso   1.00
H757   H     0.43178   0.24717   0.56483   0.00000  Uiso   1.00
H758   H     0.45984   0.33129   0.79041   0.00000  Uiso   1.00
H759   H     0.60659   0.17242   0.92607   0.00000  Uiso   1.00
H760   H     0.46842   0.14836   0.57469   0.00000  Uiso   1.00
H761   H     0.40827   0.20350   0.92611   0.00000  Uiso   1.00
H762   H     0.38979   0.21414   0.50717   0.00000  Uiso   1.00
H763   H     0.55842   0.18993   0.88804   0.00000  Uiso   1.00
H764   H     0.34828   0.19407   0.71223   0.00000  Uiso   1.00
O765   O     0.50000   0.16667   0.75000   0.00000  Uiso   1.00
O766   O     0.48784   0.12637   0.65459   0.00000  Uiso   1.00
O767   O     0.46274   0.20391   0.84968   0.00000  Uiso   1.00
O768   O     0.54157   0.17759   0.64606   0.00000  Uiso   1.00
O769   O     0.50785   0.15880   0.84968   0.00000  Uiso   1.00
O770   O     0.51264   0.08019   0.78214   0.00000  Uiso   1.00
O771   O     0.47965   0.26085   0.77014   0.00000  Uiso   1.00
O772   O     0.40745   0.13291   0.73413   0.00000  Uiso   1.00
O773   O     0.60026   0.19272   0.71361   0.00000  Uiso   1.00
O774   O     0.40405   0.18878   0.78213   0.00000  Uiso   1.00
O775   O     0.58824   0.15226   0.77014   0.00000  Uiso   1.00
O776   O     0.47093   0.06944   0.73413   0.00000  Uiso   1.00
O777   O     0.53678   0.25620   0.71361   0.00000  Uiso   1.00
Zn778  Zn    0.52672   0.13994   0.78734   0.00000  Uiso   1.00
Zn779  Zn    0.46713   0.12458   0.71876   0.00000  Uiso   1.00
Zn780  Zn    0.54389   0.19775   0.70657   0.00000  Uiso   1.00
Zn781  Zn    0.46226   0.20439   0.78734   0.00000  Uiso   1.00
C782   C     0.71994   0.16031   0.75923   0.00000  Uiso   1.00
C783   C     0.83500   0.15132   0.55721   0.00000  Uiso   1.00
C784   C     0.90666   0.14232   0.55803   0.00000  Uiso   1.00
C785   C     0.94742   0.17364   0.74043   0.00000  Uiso   1.00
C786   C     0.80585   0.19032   0.92053   0.00000  Uiso   1.00
C787   C     0.99276   0.17567   0.73804   0.00000  Uiso   1.00
C788   C     0.67447   0.15581   0.76618   0.00000  Uiso   1.00
C789   C     0.84733   0.32260   0.73620   0.00000  Uiso   1.00
C790   C     0.81928   0.01180   0.76428   0.00000  Uiso   1.00
C791   C     0.82310   0.05589   0.76024   0.00000  Uiso   1.00
C792   C     0.84338   0.27796   0.74009   0.00000  Uiso   1.00
C793   C     0.75371   0.20360   0.99052   0.00000  Uiso   1.00
C794   C     0.85252   0.14838   0.62922   0.00000  Uiso   1.00
C795   C     0.81556   0.18478   0.87099   0.00000  Uiso   1.00
C796   C     0.92188   0.15106   0.51280   0.00000  Uiso   1.00
C797   C     0.86365   0.14296   0.58029   0.00000  Uiso   1.00
C798   C     0.76487   0.19898   0.94396   0.00000  Uiso   1.00
C799   C     0.98045   0.12878   0.80379   0.00000  Uiso   1.00
C800   C     0.67218   0.10953   0.83050   0.00000  Uiso   1.00
C801   C     0.96905   0.14941   0.99097   0.00000  Uiso   1.00
C802   C     0.97637   0.10931   0.96134   0.00000  Uiso   1.00
C803   C     0.77134   0.21429   0.56417   0.00000  Uiso   1.00
C804   C     0.78196   0.19679   0.51550   0.00000  Uiso   1.00
C805   C     0.73142   0.19021   0.59319   0.00000  Uiso   1.00
C806   C     0.82188   0.18193   0.99234   0.00000  Uiso   1.00
C807   C     0.83545   0.18437   0.94479   0.00000  Uiso   1.00
C808   C     0.84963   0.16604   0.51379   0.00000  Uiso   1.00
C809   C     0.89323   0.16319   0.99028   0.00000  Uiso   1.00
C810   C     0.90716   0.17304   0.94520   0.00000  Uiso   1.00
C811   C     0.87873   0.18252   0.92273   0.00000  Uiso   1.00
H812   H     0.92873   0.13631   0.57675   0.00000  Uiso   1.00
H813   H     0.69494   0.08961   0.80788   0.00000  Uiso   1.00
H814   H     0.68974   0.13429   0.84848   0.00000  Uiso   1.00
H815   H     0.98296   0.08958   0.85575   0.00000  Uiso   1.00
H816   H     0.95826   0.14803   0.82832   0.00000  Uiso   1.00
H817   H     0.96181   0.10249   0.78888   0.00000  Uiso   1.00
H818   H     0.95774   0.10573   0.93569   0.00000  Uiso   1.00
H819   H     0.67746   0.10996   0.94392   0.00000  Uiso   1.00
H820   H     0.96653   0.08198   0.98234   0.00000  Uiso   1.00
H821   H     0.98310   0.17715   0.97135   0.00000  Uiso   1.00
H822   H     0.98718   0.15055   0.51697   0.00000  Uiso   1.00
H823   H     0.87320   0.00389   0.71032   0.00000  Uiso   1.00
H824   H     0.70231   0.19715   0.58466   0.00000  Uiso   1.00
H825   H     0.73256   0.15606   0.58820   0.00000  Uiso   1.00
H826   H     0.72874   0.19987   0.62925   0.00000  Uiso   1.00
H827   H     0.79854   0.21664   0.57966   0.00000  Uiso   1.00
H828   H     0.76511   0.24717   0.56483   0.00000  Uiso   1.00
H829   H     0.79317   0.33129   0.79041   0.00000  Uiso   1.00
H830   H     0.93992   0.17242   0.92607   0.00000  Uiso   1.00
H831   H     0.80176   0.14836   0.57469   0.00000  Uiso   1.00
H832   H     0.74161   0.20350   0.92611   0.00000  Uiso   1.00
H833   H     0.72312   0.21414   0.50717   0.00000  Uiso   1.00
H834   H     0.89176   0.18993   0.88804   0.00000  Uiso   1.00
H835   H     0.68162   0.19407   0.71223   0.00000  Uiso   1.00
O836   O     0.83333   0.16667   0.75000   0.00000  Uiso   1.00
O837   O     0.82118   0.12637   0.65459   0.00000  Uiso   1.00
O838   O     0.79607   0.20391   0.84968   0.00000  Uiso   1.00
O839   O     0.87491   0.17759   0.64606   0.00000  Uiso   1.00
O840   O     0.84118   0.15880   0.84968   0.00000  Uiso   1.00
O841   O     0.84597   0.08019   0.78214   0.00000  Uiso   1.00
O842   O     0.81298   0.26085   0.77014   0.00000  Uiso   1.00
O843   O     0.74078   0.13291   0.73413   0.00000  Uiso   1.00
O844   O     0.93360   0.19272   0.71361   0.00000  Uiso   1.00
O845   O     0.73738   0.18878   0.78213   0.00000  Uiso   1.00
O846   O     0.92158   0.15226   0.77014   0.00000  Uiso   1.00
O847   O     0.80426   0.06944   0.73413   0.00000  Uiso   1.00
O848   O     0.87012   0.25620   0.71361   0.00000  Uiso   1.00
Zn849  Zn    0.86005   0.13994   0.78734   0.00000  Uiso   1.00
Zn850  Zn    0.80046   0.12458   0.71876   0.00000  Uiso   1.00
Zn851  Zn    0.87723   0.19775   0.70657   0.00000  Uiso   1.00
Zn852  Zn    0.79560   0.20439   0.78734   0.00000  Uiso   1.00
C853   C     0.05327   0.49364   0.75923   0.00000  Uiso   1.00
C854   C     0.16833   0.48465   0.55721   0.00000  Uiso   1.00
C855   C     0.24000   0.47565   0.55803   0.00000  Uiso   1.00
C856   C     0.28075   0.50697   0.74043   0.00000  Uiso   1.00
C857   C     0.13918   0.52365   0.92053   0.00000  Uiso   1.00
C858   C     0.32609   0.50900   0.73804   0.00000  Uiso   1.00
C859   C     0.00780   0.48914   0.76618   0.00000  Uiso   1.00
C860   C     0.18067   0.65593   0.73620   0.00000  Uiso   1.00
C861   C     0.15261   0.34513   0.76428   0.00000  Uiso   1.00
C862   C     0.15644   0.38922   0.76024   0.00000  Uiso   1.00
C863   C     0.17671   0.61129   0.74009   0.00000  Uiso   1.00
C864   C     0.08705   0.53694   0.99052   0.00000  Uiso   1.00
C865   C     0.18586   0.48171   0.62922   0.00000  Uiso   1.00
C866   C     0.14889   0.51812   0.87099   0.00000  Uiso   1.00
C867   C     0.25521   0.48440   0.51280   0.00000  Uiso   1.00
C868   C     0.19698   0.47629   0.58029   0.00000  Uiso   1.00
C869   C     0.09821   0.53231   0.94396   0.00000  Uiso   1.00
C870   C     0.31378   0.46211   0.80379   0.00000  Uiso   1.00
C871   C     0.00551   0.44286   0.83050   0.00000  Uiso   1.00
C872   C     0.30239   0.48275   0.99097   0.00000  Uiso   1.00
C873   C     0.30970   0.44264   0.96134   0.00000  Uiso   1.00
C874   C     0.10467   0.54763   0.56417   0.00000  Uiso   1.00
C875   C     0.11529   0.53012   0.51550   0.00000  Uiso   1.00
C876   C     0.06476   0.52355   0.59319   0.00000  Uiso   1.00
C877   C     0.15521   0.51526   0.99234   0.00000  Uiso   1.00
C878   C     0.16879   0.51771   0.94479   0.00000  Uiso   1.00
C879   C     0.18297   0.49937   0.51379   0.00000  Uiso   1.00
C880   C     0.22656   0.49652   0.99028   0.00000  Uiso   1.00
C881   C     0.24050   0.50637   0.94520   0.00000  Uiso   1.00
C882   C     0.21206   0.51585   0.92273   0.00000  Uiso   1.00
H883   H     0.26207   0.46964   0.57675   0.00000  Uiso   1.00
H884   H     0.02827   0.42294   0.80788   0.00000  Uiso   1.00
H885   H     0.02307   0.46762   0.84848   0.00000  Uiso   1.00
H886   H     0.31630   0.42292   0.85575   0.00000  Uiso   1.00
H887   H     0.29159   0.48136   0.82832   0.00000  Uiso   1.00
H888   H     0.29515   0.43582   0.78888   0.00000  Uiso   1.00
H889   H     0.29108   0.43907   0.93569   0.00000  Uiso   1.00
H890   H     0.01079   0.44330   0.94392   0.00000  Uiso   1.00
H891   H     0.29986   0.41532   0.98234   0.00000  Uiso   1.00
H892   H     0.31643   0.51048   0.97135   0.00000  Uiso   1.00
H893   H     0.32051   0.48388   0.51697   0.00000  Uiso   1.00
H894   H     0.20654   0.33722   0.71032   0.00000  Uiso   1.00
H895   H     0.03564   0.53048   0.58466   0.00000  Uiso   1.00
H896   H     0.06590   0.48940   0.58820   0.00000  Uiso   1.00
H897   H     0.06208   0.53320   0.62925   0.00000  Uiso   1.00
H898   H     0.13187   0.54998   0.57966   0.00000  Uiso   1.00
H899   H     0.09844   0.58050   0.56483   0.00000  Uiso   1.00
H900   H     0.12650   0.66463   0.79041   0.00000  Uiso   1.00
H901   H     0.27326   0.50575   0.92607   0.00000  Uiso   1.00
H902   H     0.13509   0.48169   0.57469   0.00000  Uiso   1.00
H903   H     0.07494   0.53683   0.92611   0.00000  Uiso   1.00
H904   H     0.05646   0.54747   0.50717   0.00000  Uiso   1.00
H905   H     0.22509   0.52326   0.88804   0.00000  Uiso   1.00
H906   H     0.01495   0.52741   0.71223   0.00000  Uiso   1.00
O907   O     0.16667   0.50000   0.75000   0.00000  Uiso   1.00
O908   O     0.15451   0.45970   0.65459   0.00000  Uiso   1.00
O909   O     0.12940   0.53724   0.84968   0.00000  Uiso   1.00
O910   O     0.20824   0.51092   0.64606   0.00000  Uiso   1.00
O911   O     0.17451   0.49213   0.84968   0.00000  Uiso   1.00
O912   O     0.17930   0.41352   0.78214   0.00000  Uiso   1.00
O913   O     0.14632   0.59418   0.77014   0.00000  Uiso   1.00
O914   O     0.07412   0.46625   0.73413   0.00000  Uiso   1.00
O915   O     0.26693   0.52605   0.71361   0.00000  Uiso   1.00
O916   O     0.07071   0.52211   0.78213   0.00000  Uiso   1.00
O917   O     0.25491   0.48559   0.77014   0.00000  Uiso   1.00
O918   O     0.13760   0.40277   0.73413   0.00000  Uiso   1.00
O919   O     0.20345   0.58953   0.71361   0.00000  Uiso   1.00
Zn920  Zn    0.19338   0.47327   0.78734   0.00000  Uiso   1.00
Zn921  Zn    0.13379   0.45791   0.71876   0.00000  Uiso   1.00
Zn922  Zn    0.21056   0.53109   0.70657   0.00000  Uiso   1.00
Zn923  Zn    0.12893   0.53773   0.78734   0.00000  Uiso   1.00
C924   C     0.38661   0.49364   0.75923   0.00000  Uiso   1.00
C925   C     0.50167   0.48465   0.55721   0.00000  Uiso   1.00
C926   C     0.57333   0.47565   0.55803   0.00000  Uiso   1.00
C927   C     0.61408   0.50697   0.74043   0.00000  Uiso   1.00
C928   C     0.47252   0.52365   0.92053   0.00000  Uiso   1.00
C929   C     0.65942   0.50900   0.73804   0.00000  Uiso   1.00
C930   C     0.34114   0.48914   0.76618   0.00000  Uiso   1.00
C931   C     0.51400   0.65593   0.73620   0.00000  Uiso   1.00
C932   C     0.48594   0.34513   0.76428   0.00000  Uiso   1.00
C933   C     0.48977   0.38922   0.76024   0.00000  Uiso   1.00
C934   C     0.51004   0.61129   0.74009   0.00000  Uiso   1.00
C935   C     0.42038   0.53694   0.99052   0.00000  Uiso   1.00
C936   C     0.51919   0.48171   0.62922   0.00000  Uiso   1.00
C937   C     0.48222   0.51812   0.87099   0.00000  Uiso   1.00
C938   C     0.58854   0.48440   0.51280   0.00000  Uiso   1.00
C939   C     0.53031   0.47629   0.58029   0.00000  Uiso   1.00
C940   C     0.43154   0.53231   0.94396   0.00000  Uiso   1.00
C941   C     0.64711   0.46211   0.80379   0.00000  Uiso   1.00
C942   C     0.33884   0.44286   0.83050   0.00000  Uiso   1.00
C943   C     0.63572   0.48275   0.99097   0.00000  Uiso   1.00
C944   C     0.64304   0.44264   0.96134   0.00000  Uiso   1.00
C945   C     0.43800   0.54763   0.56417   0.00000  Uiso   1.00
C946   C     0.44862   0.53012   0.51550   0.00000  Uiso   1.00
C947   C     0.39809   0.52355   0.59319   0.00000  Uiso   1.00
C948   C     0.48854   0.51526   0.99234   0.00000  Uiso   1.00
C949   C     0.50212   0.51771   0.94479   0.00000  Uiso   1.00
C950   C     0.51630   0.49937   0.51379   0.00000  Uiso   1.00
C951   C     0.55989   0.49652   0.99028   0.00000  Uiso   1.00
C952   C     0.57383   0.50637   0.94520   0.00000  Uiso   1.00
C953   C     0.54540   0.51585   0.92273   0.00000  Uiso   1.00
H954   H     0.59540   0.46964   0.57675   0.00000  Uiso   1.00
H955   H     0.36160   0.42294   0.80788   0.00000  Uiso   1.00
H956   H     0.35640   0.46762   0.84848   0.00000  Uiso   1.00
H957   H     0.64963   0.42292   0.85575   0.00000  Uiso   1.00
H958   H     0.62493   0.48136   0.82832   0.00000  Uiso   1.00
H959   H     0.62848   0.43582   0.78888   0.00000  Uiso   1.00
H960   H     0.62441   0.43907   0.93569   0.00000  Uiso   1.00
H961   H     0.34413   0.44330   0.94392   0.00000  Uiso   1.00
H962   H     0.63320   0.41532   0.98234   0.00000  Uiso   1.00
H963   H     0.64977   0.51048   0.97135   0.00000  Uiso   1.00
H964   H     0.65385   0.48388   0.51697   0.00000  Uiso   1.00
H965   H     0.53987   0.33722   0.71032   0.00000  Uiso   1.00
H966   H     0.36898   0.53048   0.58466   0.00000  Uiso   1.00
H967   H     0.39923   0.48940   0.58820   0.00000  Uiso   1.00
H968   H     0.39541   0.53320   0.62925   0.00000  Uiso   1.00
H969   H     0.46521   0.54998   0.57966   0.00000  Uiso   1.00
H970   H     0.43178   0.58050   0.56483   0.00000  Uiso   1.00
H971   H     0.45984   0.66463   0.79041   0.00000  Uiso   1.00
H972   H     0.60659   0.50575   0.92607   0.00000  Uiso   1.00
H973   H     0.46842   0.48169   0.57469   0.00000  Uiso   1.00
H974   H     0.40827   0.53683   0.92611   0.00000  Uiso   1.00
H975   H     0.38979   0.54747   0.50717   0.00000  Uiso   1.00
H976   H     0.55842   0.52326   0.88804   0.00000  Uiso   1.00
H977   H     0.34828   0.52741   0.71223   0.00000  Uiso   1.00
O978   O     0.50000   0.50000   0.75000   0.00000  Uiso   1.00
O979   O     0.48784   0.45970   0.65459   0.00000  Uiso   1.00
O980   O     0.46274   0.53724   0.84968   0.00000  Uiso   1.00
O981   O     0.54157   0.51092   0.64606   0.00000  Uiso   1.00
O982   O     0.50785   0.49213   0.84968   0.00000  Uiso   1.00
O983   O     0.51264   0.41352   0.78214   0.00000  Uiso   1.00
O984   O     0.47965   0.59418   0.77014   0.00000  Uiso   1.00
O985   O     0.40745   0.46625   0.73413   0.00000  Uiso   1.00
O986   O     0.60026   0.52605   0.71361   0.00000  Uiso   1.00
O987   O     0.40405   0.52211   0.78213   0.00000  Uiso   1.00
O988   O     0.58824   0.48559   0.77014   0.00000  Uiso   1.00
O989   O     0.47093   0.40277   0.73413   0.00000  Uiso   1.00
O990   O     0.53678   0.58953   0.71361   0.00000  Uiso   1.00
Zn991  Zn    0.52672   0.47327   0.78734   0.00000  Uiso   1.00
Zn992  Zn    0.46713   0.45791   0.71876   0.00000  Uiso   1.00
Zn993  Zn    0.54389   0.53109   0.70657   0.00000  Uiso   1.00
Zn994  Zn    0.46226   0.53773   0.78734   0.00000  Uiso   1.00
C995   C     0.71994   0.49364   0.75923   0.00000  Uiso   1.00
C996   C     0.83500   0.48465   0.55721   0.00000  Uiso   1.00
C997   C     0.90666   0.47565   0.55803   0.00000  Uiso   1.00
C998   C     0.94742   0.50697   0.74043   0.00000  Uiso   1.00
C999   C     0.80585   0.52365   0.92053   0.00000  Uiso   1.00
C1000  C     0.99276   0.50900   0.73804   0.00000  Uiso   1.00
C1001  C     0.67447   0.48914   0.76618   0.00000  Uiso   1.00
C1002  C     0.84733   0.65593   0.73620   0.00000  Uiso   1.00
C1003  C     0.81928   0.34513   0.76428   0.00000  Uiso   1.00
C1004  C     0.82310   0.38922   0.76024   0.00000  Uiso   1.00
C1005  C     0.84338   0.61129   0.74009   0.00000  Uiso   1.00
C1006  C     0.75371   0.53694   0.99052   0.00000  Uiso   1.00
C1007  C     0.85252   0.48171   0.62922   0.00000  Uiso   1.00
C1008  C     0.81556   0.51812   0.87099   0.00000  Uiso   1.00
C1009  C     0.92188   0.48440   0.51280   0.00000  Uiso   1.00
C1010  C     0.86365   0.47629   0.58029   0.00000  Uiso   1.00
C1011  C     0.76487   0.53231   0.94396   0.00000  Uiso   1.00
C1012  C     0.98045   0.46211   0.80379   0.00000  Uiso   1.00
C1013  C     0.67218   0.44286   0.83050   0.00000  Uiso   1.00
C1014  C     0.96905   0.48275   0.99097   0.00000  Uiso   1.00
C1015  C     0.97637   0.44264   0.96134   0.00000  Uiso   1.00
C1016  C     0.77134   0.54763   0.56417   0.00000  Uiso   1.00
C1017  C     0.78196   0.53012   0.51550   0.00000  Uiso   1.00
C1018  C     0.73142   0.52355   0.59319   0.00000  Uiso   1.00
C1019  C     0.82188   0.51526   0.99234   0.00000  Uiso   1.00
C1020  C     0.83545   0.51771   0.94479   0.00000  Uiso   1.00
C1021  C     0.84963   0.49937   0.51379   0.00000  Uiso   1.00
C1022  C     0.89323   0.49652   0.99028   0.00000  Uiso   1.00
C1023  C     0.90716   0.50637   0.94520   0.00000  Uiso   1.00
C1024  C     0.87873   0.51585   0.92273   0.00000  Uiso   1.00
H1025  H     0.92873   0.46964   0.57675   0.00000  Uiso   1.00
H1026  H     0.69494   0.42294   0.80788   0.00000  Uiso   1.00
H1027  H     0.68974   0.46762   0.84848   0.00000  Uiso   1.00
H1028  H     0.98296   0.42292   0.85575   0.00000  Uiso   1.00
H1029  H     0.95826   0.48136   0.82832   0.00000  Uiso   1.00
H1030  H     0.96181   0.43582   0.78888   0.00000  Uiso   1.00
H1031  H     0.95774   0.43907   0.93569   0.00000  Uiso   1.00
H1032  H     0.67746   0.44330   0.94392   0.00000  Uiso   1.00
H1033  H     0.96653   0.41532   0.98234   0.00000  Uiso   1.00
H1034  H     0.98310   0.51048   0.97135   0.00000  Uiso   1.00
H1035  H     0.98718   0.48388   0.51697   0.00000  Uiso   1.00
H1036  H     0.87320   0.33722   0.71032   0.00000  Uiso   1.00
H1037  H     0.70231   0.53048   0.58466   0.00000  Uiso   1.00
H1038  H     0.73256   0.48940   0.58820   0.00000  Uiso   1.00
H1039  H     0.72874   0.53320   0.62925   0.00000  Uiso   1.00
H1040  H     0.79854   0.54998   0.57966   0.00000  Uiso   1.00
H1041  H     0.76511   0.58050   0.56483   0.00000  Uiso   1.00
H1042  H     0.79317   0.66463   0.79041   0.00000  Uiso   1.00
H1043  H     0.93992   0.50575   0.92607   0.00000  Uiso   1.00
H1044  H     0.80176   0.48169   0.57469   0.00000  Uiso   1.00
H1045  H     0.74161   0.53683   0.92611   0.00000  Uiso   1.00
H1046  H     0.72312   0.54747   0.50717   0.00000  Uiso   1.00
H1047  H     0.89176   0.52326   0.88804   0.00000  Uiso   1.00
H1048  H     0.68162   0.52741   0.71223   0.00000  Uiso   1.00
O1049  O     0.83333   0.50000   0.75000   0.00000  Uiso   1.00
O1050  O     0.82118   0.45970   0.65459   0.00000  Uiso   1.00
O1051  O     0.79607   0.53724   0.84968   0.00000  Uiso   1.00
O1052  O     0.87491   0.51092   0.64606   0.00000  Uiso   1.00
O1053  O     0.84118   0.49213   0.84968   0.00000  Uiso   1.00
O1054  O     0.84597   0.41352   0.78214   0.00000  Uiso   1.00
O1055  O     0.81298   0.59418   0.77014   0.00000  Uiso   1.00
O1056  O     0.74078   0.46625   0.73413   0.00000  Uiso   1.00
O1057  O     0.93360   0.52605   0.71361   0.00000  Uiso   1.00
O1058  O     0.73738   0.52211   0.78213   0.00000  Uiso   1.00
O1059  O     0.92158   0.48559   0.77014   0.00000  Uiso   1.00
O1060  O     0.80426   0.40277   0.73413   0.00000  Uiso   1.00
O1061  O     0.87012   0.58953   0.71361   0.00000  Uiso   1.00
Zn1062 Zn    0.86005   0.47327   0.78734   0.00000  Uiso   1.00
Zn1063 Zn    0.80046   0.45791   0.71876   0.00000  Uiso   1.00
Zn1064 Zn    0.87723   0.53109   0.70657   0.00000  Uiso   1.00
Zn1065 Zn    0.79560   0.53773   0.78734   0.00000  Uiso   1.00
C1066  C     0.05327   0.82697   0.75923   0.00000  Uiso   1.00
C1067  C     0.16833   0.81799   0.55721   0.00000  Uiso   1.00
C1068  C     0.24000   0.80898   0.55803   0.00000  Uiso   1.00
C1069  C     0.28075   0.84031   0.74043   0.00000  Uiso   1.00
C1070  C     0.13918   0.85698   0.92053   0.00000  Uiso   1.00
C1071  C     0.32609   0.84234   0.73804   0.00000  Uiso   1.00
C1072  C     0.00780   0.82248   0.76618   0.00000  Uiso   1.00
C1073  C     0.18067   0.98926   0.73620   0.00000  Uiso   1.00
C1074  C     0.15261   0.67846   0.76428   0.00000  Uiso   1.00
C1075  C     0.15644   0.72256   0.76024   0.00000  Uiso   1.00
C1076  C     0.17671   0.94462   0.74009   0.00000  Uiso   1.00
C1077  C     0.08705   0.87027   0.99052   0.00000  Uiso   1.00
C1078  C     0.18586   0.81505   0.62922   0.00000  Uiso   1.00
C1079  C     0.14889   0.85145   0.87099   0.00000  Uiso   1.00
C1080  C     0.25521   0.81773   0.51280   0.00000  Uiso   1.00
C1081  C     0.19698   0.80963   0.58029   0.00000  Uiso   1.00
C1082  C     0.09821   0.86565   0.94396   0.00000  Uiso   1.00
C1083  C     0.31378   0.79545   0.80379   0.00000  Uiso   1.00
C1084  C     0.00551   0.77619   0.83050   0.00000  Uiso   1.00
C1085  C     0.30239   0.81608   0.99097   0.00000  Uiso   1.00
C1086  C     0.30970   0.77598   0.96134   0.00000  Uiso   1.00
C1087  C     0.10467   0.88096   0.56417   0.00000  Uiso   1.00
C1088  C     0.11529   0.86346   0.51550   0.00000  Uiso   1.00
C1089  C     0.06476   0.85688   0.59319   0.00000  Uiso   1.00
C1090  C     0.15521   0.84859   0.99234   0.00000  Uiso   1.00
C1091  C     0.16879   0.85104   0.94479   0.00000  Uiso   1.00
C1092  C     0.18297   0.83270   0.51379   0.00000  Uiso   1.00
C1093  C     0.22656   0.82985   0.99028   0.00000  Uiso   1.00
C1094  C     0.24050   0.83971   0.94520   0.00000  Uiso   1.00
C1095  C     0.21206   0.84919   0.92273   0.00000  Uiso   1.00
H1096  H     0.26207   0.80298   0.57675   0.00000  Uiso   1.00
H1097  H     0.02827   0.75627   0.80788   0.00000  Uiso   1.00
H1098  H     0.02307   0.80096   0.84848   0.00000  Uiso   1.00
H1099  H     0.31630   0.75625   0.85575   0.00000  Uiso   1.00
H1100  H     0.29159   0.81469   0.82832   0.00000  Uiso   1.00
H1101  H     0.29515   0.76916   0.78888   0.00000  Uiso   1.00
H1102  H     0.29108   0.77240   0.93569   0.00000  Uiso   1.00
H1103  H     0.01079   0.77663   0.94392   0.00000  Uiso   1.00
H1104  H     0.29986   0.74865   0.98234   0.00000  Uiso   1.00
H1105  H     0.31643   0.84381   0.97135   0.00000  Uiso   1.00
H1106  H     0.32051   0.81721   0.51697   0.00000  Uiso   1.00
H1107  H     0.20654   0.67055   0.71032   0.00000  Uiso   1.00
H1108  H     0.03564   0.86381   0.58466   0.00000  Uiso   1.00
H1109  H     0.06590   0.82273   0.58820   0.00000  Uiso   1.00
H1110  H     0.06208   0.86653   0.62925   0.00000  Uiso   1.00
H1111  H     0.13187   0.88331   0.57966   0.00000  Uiso   1.00
H1112  H     0.09844   0.91383   0.56483   0.00000  Uiso   1.00
H1113  H     0.12650   0.99796   0.79041   0.00000  Uiso   1.00
H1114  H     0.27326   0.83909   0.92607   0.00000  Uiso   1.00
H1115  H     0.13509   0.81503   0.57469   0.00000  Uiso   1.00
H1116  H     0.07494   0.87016   0.92611   0.00000  Uiso   1.00
H1117  H     0.05646   0.88080   0.50717   0.00000  Uiso   1.00
H1118  H     0.22509   0.85660   0.88804   0.00000  Uiso   1.00
H1119  H     0.01495   0.86074   0.71223   0.00000  Uiso   1.00
O1120  O     0.16667   0.83333   0.75000   0.00000  Uiso   1.00
O1121  O     0.15451   0.79304   0.65459   0.00000  Uiso   1.00
O1122  O     0.12940   0.87058   0.84968   0.00000  Uiso   1.00
O1123  O     0.20824   0.84425   0.64606   0.00000  Uiso   1.00
O1124  O     0.17451   0.82546   0.84968   0.00000  Uiso   1.00
O1125  O     0.17930   0.74686   0.78214   0.00000  Uiso   1.00
O1126  O     0.14632   0.92751   0.77014   0.00000  Uiso   1.00
O1127  O     0.07412   0.79958   0.73413   0.00000  Uiso   1.00
O1128  O     0.26693   0.85939   0.71361   0.00000  Uiso   1.00
O1129  O     0.07071   0.85544   0.78213   0.00000  Uiso   1.00
O1130  O     0.25491   0.81892   0.77014   0.00000  Uiso   1.00
O1131  O     0.13760   0.73610   0.73413   0.00000  Uiso   1.00
O1132  O     0.20345   0.92286   0.71361   0.00000  Uiso   1.00
Zn1133 Zn    0.19338   0.80661   0.78734   0.00000  Uiso   1.00
Zn1134 Zn    0.13379   0.79124   0.71876   0.00000  Uiso   1.00
Zn1135 Zn    0.21056   0.86442   0.70657   0.00000  Uiso   1.00
Zn1136 Zn    0.12893   0.87106   0.78734   0.00000  Uiso   1.00
C1137  C     0.38661   0.82697   0.75923   0.00000  Uiso   1.00
C1138  C     0.50167   0.81799   0.55721   0.00000  Uiso   1.00
C1139  C     0.57333   0.80898   0.55803   0.00000  Uiso   1.00
C1140  C     0.61408   0.84031   0.74043   0.00000  Uiso   1.00
C1141  C     0.47252   0.85698   0.92053   0.00000  Uiso   1.00
C1142  C     0.65942   0.84234   0.73804   0.00000  Uiso   1.00
C1143  C     0.34114   0.82248   0.76618   0.00000  Uiso   1.00
C1144  C     0.51400   0.98926   0.73620   0.00000  Uiso   1.00
C1145  C     0.48594   0.67846   0.76428   0.00000  Uiso   1.00
C1146  C     0.48977   0.72256   0.76024   0.00000  Uiso   1.00
C1147  C     0.51004   0.94462   0.74009   0.00000  Uiso   1.00
C1148  C     0.42038   0.87027   0.99052   0.00000  Uiso   1.00
C1149  C     0.51919   0.81505   0.62922   0.00000  Uiso   1.00
C1150  C     0.48222   0.85145   0.87099   0.00000  Uiso   1.00
C1151  C     0.58854   0.81773   0.51280   0.00000  Uiso   1.00
C1152  C     0.53031   0.80963   0.58029   0.00000  Uiso   1.00
C1153  C     0.43154   0.86565   0.94396   0.00000  Uiso   1.00
C1154  C     0.64711   0.79545   0.80379   0.00000  Uiso   1.00
C1155  C     0.33884   0.77619   0.83050   0.00000  Uiso   1.00
C1156  C     0.63572   0.81608   0.99097   0.00000  Uiso   1.00
C1157  C     0.64304   0.77598   0.96134   0.00000  Uiso   1.00
C1158  C     0.43800   0.88096   0.56417   0.00000  Uiso   1.00
C1159  C     0.44862   0.86346   0.51550   0.00000  Uiso   1.00
C1160  C     0.39809   0.85688   0.59319   0.00000  Uiso   1.00
C1161  C     0.48854   0.84859   0.99234   0.00000  Uiso   1.00
C1162  C     0.50212   0.85104   0.94479   0.00000  Uiso   1.00
C1163  C     0.51630   0.83270   0.51379   0.00000  Uiso   1.00
C1164  C     0.55989   0.82985   0.99028   0.00000  Uiso   1.00
C1165  C     0.57383   0.83971   0.94520   0.00000  Uiso   1.00
C1166  C     0.54540   0.84919   0.92273   0.00000  Uiso   1.00
H1167  H     0.59540   0.80298   0.57675   0.00000  Uiso   1.00
H1168  H     0.36160   0.75627   0.80788   0.00000  Uiso   1.00
H1169  H     0.35640   0.80096   0.84848   0.00000  Uiso   1.00
H1170  H     0.64963   0.75625   0.85575   0.00000  Uiso   1.00
H1171  H     0.62493   0.81469   0.82832   0.00000  Uiso   1.00
H1172  H     0.62848   0.76916   0.78888   0.00000  Uiso   1.00
H1173  H     0.62441   0.77240   0.93569   0.00000  Uiso   1.00
H1174  H     0.34413   0.77663   0.94392   0.00000  Uiso   1.00
H1175  H     0.63320   0.74865   0.98234   0.00000  Uiso   1.00
H1176  H     0.64977   0.84381   0.97135   0.00000  Uiso   1.00
H1177  H     0.65385   0.81721   0.51697   0.00000  Uiso   1.00
H1178  H     0.53987   0.67055   0.71032   0.00000  Uiso   1.00
H1179  H     0.36898   0.86381   0.58466   0.00000  Uiso   1.00
H1180  H     0.39923   0.82273   0.58820   0.00000  Uiso   1.00
H1181  H     0.39541   0.86653   0.62925   0.00000  Uiso   1.00
H1182  H     0.46521   0.88331   0.57966   0.00000  Uiso   1.00
H1183  H     0.43178   0.91383   0.56483   0.00000  Uiso   1.00
H1184  H     0.45984   0.99796   0.79041   0.00000  Uiso   1.00
H1185  H     0.60659   0.83909   0.92607   0.00000  Uiso   1.00
H1186  H     0.46842   0.81503   0.57469   0.00000  Uiso   1.00
H1187  H     0.40827   0.87016   0.92611   0.00000  Uiso   1.00
H1188  H     0.38979   0.88080   0.50717   0.00000  Uiso   1.00
H1189  H     0.55842   0.85660   0.88804   0.00000  Uiso   1.00
H1190  H     0.34828   0.86074   0.71223   0.00000  Uiso   1.00
O1191  O     0.50000   0.83333   0.75000   0.00000  Uiso   1.00
O1192  O     0.48784   0.79304   0.65459   0.00000  Uiso   1.00
O1193  O     0.46274   0.87058   0.84968   0.00000  Uiso   1.00
O1194  O     0.54157   0.84425   0.64606   0.00000  Uiso   1.00
O1195  O     0.50785   0.82546   0.84968   0.00000  Uiso   1.00
O1196  O     0.51264   0.74686   0.78214   0.00000  Uiso   1.00
O1197  O     0.47965   0.92751   0.77014   0.00000  Uiso   1.00
O1198  O     0.40745   0.79958   0.73413   0.00000  Uiso   1.00
O1199  O     0.60026   0.85939   0.71361   0.00000  Uiso   1.00
O1200  O     0.40405   0.85544   0.78213   0.00000  Uiso   1.00
O1201  O     0.58824   0.81892   0.77014   0.00000  Uiso   1.00
O1202  O     0.47093   0.73610   0.73413   0.00000  Uiso   1.00
O1203  O     0.53678   0.92286   0.71361   0.00000  Uiso   1.00
Zn1204 Zn    0.52672   0.80661   0.78734   0.00000  Uiso   1.00
Zn1205 Zn    0.46713   0.79124   0.71876   0.00000  Uiso   1.00
Zn1206 Zn    0.54389   0.86442   0.70657   0.00000  Uiso   1.00
Zn1207 Zn    0.46226   0.87106   0.78734   0.00000  Uiso   1.00
C1208  C     0.71994   0.82697   0.75923   0.00000  Uiso   1.00
C1209  C     0.83500   0.81799   0.55721   0.00000  Uiso   1.00
C1210  C     0.90666   0.80898   0.55803   0.00000  Uiso   1.00
C1211  C     0.94742   0.84031   0.74043   0.00000  Uiso   1.00
C1212  C     0.80585   0.85698   0.92053   0.00000  Uiso   1.00
C1213  C     0.99276   0.84234   0.73804   0.00000  Uiso   1.00
C1214  C     0.67447   0.82248   0.76618   0.00000  Uiso   1.00
C1215  C     0.84733   0.98926   0.73620   0.00000  Uiso   1.00
C1216  C     0.81928   0.67846   0.76428   0.00000  Uiso   1.00
C1217  C     0.82310   0.72256   0.76024   0.00000  Uiso   1.00
C1218  C     0.84338   0.94462   0.74009   0.00000  Uiso   1.00
C1219  C     0.75371   0.87027   0.99052   0.00000  Uiso   1.00
C1220  C     0.85252   0.81505   0.62922   0.00000  Uiso   1.00
C1221  C     0.81556   0.85145   0.87099   0.00000  Uiso   1.00
C1222  C     0.92188   0.81773   0.51280   0.00000  Uiso   1.00
C1223  C     0.86365   0.80963   0.58029   0.00000  Uiso   1.00
C1224  C     0.76487   0.86565   0.94396   0.00000  Uiso   1.00
C1225  C     0.98045   0.79545   0.80379   0.00000  Uiso   1.00
C1226  C     0.67218   0.77619   0.83050   0.00000  Uiso   1.00
C1227  C     0.96905   0.81608   0.99097   0.00000  Uiso   1.00
C1228  C     0.97637   0.77598   0.96134   0.00000  Uiso   1.00
C1229  C     0.77134   0.88096   0.56417   0.00000  Uiso   1.00
C1230  C     0.78196   0.86346   0.51550   0.00000  Uiso   1.00
C1231  C     0.73142   0.85688   0.59319   0.00000  Uiso   1.00
C1232  C     0.82188   0.84859   0.99234   0.00000  Uiso   1.00
C1233  C     0.83545   0.85104   0.94479   0.00000  Uiso   1.00
C1234  C     0.84963   0.83270   0.51379   0.00000  Uiso   1.00
C1235  C     0.89323   0.82985   0.99028   0.00000  Uiso   1.00
C1236  C     0.90716   0.83971   0.94520   0.00000  Uiso   1.00
C1237  C     0.87873   0.84919   0.92273   0.00000  Uiso   1.00
H1238  H     0.92873   0.80298   0.57675   0.00000  Uiso   1.00
H1239  H     0.69494   0.75627   0.80788   0.00000  Uiso   1.00
H1240  H     0.68974   0.80096   0.84848   0.00000  Uiso   1.00
H1241  H     0.98296   0.75625   0.85575   0.00000  Uiso   1.00
H1242  H     0.95826   0.81469   0.82832   0.00000  Uiso   1.00
H1243  H     0.96181   0.76916   0.78888   0.00000  Uiso   1.00
H1244  H     0.95774   0.77240   0.93569   0.00000  Uiso   1.00
H1245  H     0.67746   0.77663   0.94392   0.00000  Uiso   1.00
H1246  H     0.96653   0.74865   0.98234   0.00000  Uiso   1.00
H1247  H     0.98310   0.84381   0.97135   0.00000  Uiso   1.00
H1248  H     0.98718   0.81721   0.51697   0.00000  Uiso   1.00
H1249  H     0.87320   0.67055   0.71032   0.00000  Uiso   1.00
H1250  H     0.70231   0.86381   0.58466   0.00000  Uiso   1.00
H1251  H     0.73256   0.82273   0.58820   0.00000  Uiso   1.00
H1252  H     0.72874   0.86653   0.62925   0.00000  Uiso   1.00
H1253  H     0.79854   0.88331   0.57966   0.00000  Uiso   1.00
H1254  H     0.76511   0.91383   0.56483   0.00000  Uiso   1.00
H1255  H     0.79317   0.99796   0.79041   0.00000  Uiso   1.00
H1256  H     0.93992   0.83909   0.92607   0.00000  Uiso   1.00
H1257  H     0.80176   0.81503   0.57469   0.00000  Uiso   1.00
H1258  H     0.74161   0.87016   0.92611   0.00000  Uiso   1.00
H1259  H     0.72312   0.88080   0.50717   0.00000  Uiso   1.00
H1260  H     0.89176   0.85660   0.88804   0.00000  Uiso   1.00
H1261  H     0.68162   0.86074   0.71223   0.00000  Uiso   1.00
O1262  O     0.83333   0.83333   0.75000   0.00000  Uiso   1.00
O1263  O     0.82118   0.79304   0.65459   0.00000  Uiso   1.00
O1264  O     0.79607   0.87058   0.84968   0.00000  Uiso   1.00
O1265  O     0.87491   0.84425   0.64606   0.00000  Uiso   1.00
O1266  O     0.84118   0.82546   0.84968   0.00000  Uiso   1.00
O1267  O     0.84597   0.74686   0.78214   0.00000  Uiso   1.00
O1268  O     0.81298   0.92751   0.77014   0.00000  Uiso   1.00
O1269  O     0.74078   0.79958   0.73413   0.00000  Uiso   1.00
O1270  O     0.93360   0.85939   0.71361   0.00000  Uiso   1.00
O1271  O     0.73738   0.85544   0.78213   0.00000  Uiso   1.00
O1272  O     0.92158   0.81892   0.77014   0.00000  Uiso   1.00
O1273  O     0.80426   0.73610   0.73413   0.00000  Uiso   1.00
O1274  O     0.87012   0.92286   0.71361   0.00000  Uiso   1.00
Zn1275 Zn    0.86005   0.80661   0.78734   0.00000  Uiso   1.00
Zn1276 Zn    0.80046   0.79124   0.71876   0.00000  Uiso   1.00
Zn1277 Zn    0.87723   0.86442   0.70657   0.00000  Uiso   1.00
Zn1278 Zn    0.79560   0.87106   0.78734   0.00000  Uiso   1.00
loop_
_geom_bond_atom_site_label_1
_geom_bond_atom_site_label_2
_geom_bond_distance
_geom_bond_site_symmetry_2
_ccdc_geom_bond_type
C1     O62     1.270   .     A
C1     O64     1.271   .     A
C1     C7      1.434   .     S
C2     C16     1.387   .     A
C2     C27     1.406   .     A
C2     H50     1.074   .     S
C3     C15     1.396   .     A
C3     H31     1.085   .     S
C3     C16     1.396   .     A
C4     O63     1.286   .     A
C4     C6      1.458   .     S
C4     O65     1.260   .     A
C5     C14     1.475   .     S
C5     C17     1.398   .     A
C5     C26     1.415   .     A
C6     C78     1.357   .     S
C6     H125    1.088   .     S
C7     C148    1.357   1_455 S
C7     C160    1.532   1_455 S
C8     C11     1.451   .     S
C8     C222    1.332   .     S
C8     H255    1.088   .     S
C9     C10     1.435   .     S
C9     C434    1.332   1_545 S
C9     H474    1.086   1_545 S
C10    O60     1.278   .     A
C10    O66     1.278   .     A
C11    O67     1.271   .     A
C11    O61     1.271   .     A
C12    C17     1.385   .     A
C12    C662    1.402   .     S
C12    H691    1.083   .     S
C13    O56     1.286   .     A
C13    C16     1.456   .     S
C13    O58     1.270   .     A
C14    O59     1.284   .     A
C14    O57     1.281   .     A
C15    C659    1.519   1_554 S
C15    C667    1.422   1_554 S
C17    H51     1.084   .     S
C18    H35     1.112   .     S
C18    H36     1.111   .     S
C18    C78     1.532   .     S
C18    C90     1.533   .     S
C19    H33     1.111   .     S
C19    H32     1.111   .     S
C19    C160    1.533   1_455 S
C19    H176    1.109   1_455 S
C20    H40     1.110   .     S
C20    C21     1.526   .     S
C20    C654    1.519   .     S
C20    H680    1.112   .     S
C21    H39     1.111   .     S
C21    H37     1.109   .     S
C21    H109    1.111   .     S
C22    H47     1.112   .     S
C22    H46     1.107   .     S
C22    C24     1.533   .     S
C22    C23     1.521   .     S
C23    C651    1.402   1_554 S
C23    C664    1.438   1_554 S
C24    H43     1.110   .     S
C24    H45     1.110   .     S
C24    H44     1.109   .     S
C25    C26     1.424   .     A
C25    C662    1.438   .     S
C25    C666    1.431   .     S
C26    C30     1.406   .     A
C27    C664    1.431   1_554 S
C27    C667    1.430   1_554 S
C28    C29     1.399   .     A
C28    C654    1.422   .     S
C28    C666    1.430   .     S
C29    C30     1.381   .     A
C29    H49     1.080   .     S
C30    H53     1.080   .     S
H34    C90     1.109   .     S
H38    C163    1.111   1_455 S
H41    C659    1.112   1_554 S
H42    C434    1.088   1_545 S
H48    C222    1.086   .     S
H52    C651    1.083   1_554 S
H54    C148    1.088   1_455 S
O55    Zn69    1.956   .     S
O55    Zn70    1.928   .     S
O55    Zn68    1.948   .     S
O55    Zn71    1.937   .     S
O56    Zn69    1.921   .     S
O57    Zn71    1.931   .     S
O58    Zn70    1.935   .     S
O59    Zn68    1.925   .     S
O60    Zn68    1.931   .     S
O61    Zn71    1.924   .     S
O62    Zn69    1.935   .     S
O63    Zn70    1.944   .     S
O64    Zn71    1.945   .     S
O65    Zn68    1.934   .     S
O66    Zn69    1.926   .     S
O67    Zn70    1.929   .     S
C72    O133    1.270   .     A
C72    O135    1.271   .     A
C72    C78     1.434   .     S
C73    C87     1.387   .     A
C73    C98     1.406   .     A
C73    H121    1.074   .     S
C74    C86     1.396   .     A
C74    H102    1.085   .     S
C74    C87     1.396   .     A
C75    O134    1.286   .     A
C75    C77     1.458   .     S
C75    O136    1.260   .     A
C76    C85     1.475   .     S
C76    C88     1.398   .     A
C76    C97     1.415   .     A
C77    C149    1.357   .     S
C77    H196    1.088   .     S
C79    C82     1.451   .     S
C79    C293    1.332   .     S
C79    H326    1.088   .     S
C80    C81     1.435   .     S
C80    C505    1.332   1_545 S
C80    H545    1.086   1_545 S
C81    O131    1.278   .     A
C81    O137    1.278   .     A
C82    O138    1.271   .     A
C82    O132    1.271   .     A
C83    C88     1.385   .     A
C83    C733    1.402   .     S
C83    H762    1.083   .     S
C84    O127    1.286   .     A
C84    C87     1.456   .     S
C84    O129    1.270   .     A
C85    O130    1.284   .     A
C85    O128    1.281   .     A
C86    C730    1.519   1_554 S
C86    C738    1.422   1_554 S
C88    H122    1.084   .     S
C89    H106    1.112   .     S
C89    H107    1.111   .     S
C89    C149    1.532   .     S
C89    C161    1.533   .     S
C90    H104    1.111   .     S
C90    H103    1.111   .     S
C91    H111    1.110   .     S
C91    C92     1.526   .     S
C91    C725    1.519   .     S
C91    H751    1.112   .     S
C92    H110    1.111   .     S
C92    H108    1.109   .     S
C92    H180    1.111   .     S
C93    H118    1.112   .     S
C93    H117    1.107   .     S
C93    C95     1.533   .     S
C93    C94     1.521   .     S
C94    C722    1.402   1_554 S
C94    C735    1.438   1_554 S
C95    H114    1.110   .     S
C95    H116    1.110   .     S
C95    H115    1.109   .     S
C96    C97     1.424   .     A
C96    C733    1.438   .     S
C96    C737    1.431   .     S
C97    C101    1.406   .     A
C98    C735    1.431   1_554 S
C98    C738    1.430   1_554 S
C99    C100    1.399   .     A
C99    C725    1.422   .     S
C99    C737    1.430   .     S
C100   C101    1.381   .     A
C100   H120    1.080   .     S
C101   H124    1.080   .     S
H105   C161    1.109   .     S
H112   C730    1.112   1_554 S
H113   C505    1.088   1_545 S
H119   C293    1.086   .     S
H123   C722    1.083   1_554 S
O126   Zn140   1.956   .     S
O126   Zn141   1.928   .     S
O126   Zn139   1.948   .     S
O126   Zn142   1.937   .     S
O127   Zn140   1.921   .     S
O128   Zn142   1.931   .     S
O129   Zn141   1.935   .     S
O130   Zn139   1.925   .     S
O131   Zn139   1.931   .     S
O132   Zn142   1.924   .     S
O133   Zn140   1.935   .     S
O134   Zn141   1.944   .     S
O135   Zn142   1.945   .     S
O136   Zn139   1.934   .     S
O137   Zn140   1.926   .     S
O138   Zn141   1.929   .     S
C143   O204    1.270   .     A
C143   O206    1.271   .     A
C143   C149    1.434   .     S
C144   C158    1.387   .     A
C144   C169    1.406   .     A
C144   H192    1.074   .     S
C145   C157    1.396   .     A
C145   H173    1.085   .     S
C145   C158    1.396   .     A
C146   O205    1.286   .     A
C146   C148    1.458   .     S
C146   O207    1.260   .     A
C147   C156    1.475   .     S
C147   C159    1.398   .     A
C147   C168    1.415   .     A
C148   C7      1.357   1_655 S
C148   H54     1.088   1_655 S
C150   C153    1.451   .     S
C150   C364    1.332   .     S
C150   H397    1.088   .     S
C151   C152    1.435   .     S
C151   C576    1.332   1_545 S
C151   H616    1.086   1_545 S
C152   O202    1.278   .     A
C152   O208    1.278   .     A
C153   O209    1.271   .     A
C153   O203    1.271   .     A
C154   C159    1.385   .     A
C154   C804    1.402   .     S
C154   H833    1.083   .     S
C155   O198    1.286   .     A
C155   C158    1.456   .     S
C155   O200    1.270   .     A
C156   O201    1.284   .     A
C156   O199    1.281   .     A
C157   C801    1.519   1_554 S
C157   C809    1.422   1_554 S
C159   H193    1.084   .     S
C160   H177    1.112   .     S
C160   H178    1.111   .     S
C160   C7      1.532   1_655 S
C160   C19     1.533   1_655 S
C161   H175    1.111   .     S
C161   H174    1.111   .     S
C162   H182    1.110   .     S
C162   C163    1.526   .     S
C162   C796    1.519   .     S
C162   H822    1.112   .     S
C163   H181    1.111   .     S
C163   H179    1.109   .     S
C163   H38     1.111   1_655 S
C164   H189    1.112   .     S
C164   H188    1.107   .     S
C164   C166    1.533   .     S
C164   C165    1.521   .     S
C165   C793    1.402   1_554 S
C165   C806    1.438   1_554 S
C166   H185    1.110   .     S
C166   H187    1.110   .     S
C166   H186    1.109   .     S
C167   C168    1.424   .     A
C167   C804    1.438   .     S
C167   C808    1.431   .     S
C168   C172    1.406   .     A
C169   C806    1.431   1_554 S
C169   C809    1.430   1_554 S
C170   C171    1.399   .     A
C170   C796    1.422   .     S
C170   C808    1.430   .     S
C171   C172    1.381   .     A
C171   H191    1.080   .     S
C172   H195    1.080   .     S
H176   C19     1.109   1_655 S
H183   C801    1.112   1_554 S
H184   C576    1.088   1_545 S
H190   C364    1.086   .     S
H194   C793    1.083   1_554 S
O197   Zn211   1.956   .     S
O197   Zn212   1.928   .     S
O197   Zn210   1.948   .     S
O197   Zn213   1.937   .     S
O198   Zn211   1.921   .     S
O199   Zn213   1.931   .     S
O200   Zn212   1.935   .     S
O201   Zn210   1.925   .     S
O202   Zn210   1.931   .     S
O203   Zn213   1.924   .     S
O204   Zn211   1.935   .     S
O205   Zn212   1.944   .     S
O206   Zn213   1.945   .     S
O207   Zn210   1.934   .     S
O208   Zn211   1.926   .     S
O209   Zn212   1.929   .     S
C214   O275    1.270   .     A
C214   O277    1.271   .     A
C214   C220    1.434   .     S
C215   C229    1.387   .     A
C215   C240    1.406   .     A
C215   H263    1.074   .     S
C216   C228    1.396   .     A
C216   H244    1.085   .     S
C216   C229    1.396   .     A
C217   O276    1.286   .     A
C217   C219    1.458   .     S
C217   O278    1.260   .     A
C218   C227    1.475   .     S
C218   C230    1.398   .     A
C218   C239    1.415   .     A
C219   C291    1.357   .     S
C219   H338    1.088   .     S
C220   C361    1.357   1_455 S
C220   C373    1.532   1_455 S
C221   C224    1.451   .     S
C221   C435    1.332   .     S
C221   H468    1.088   .     S
C222   C223    1.435   .     S
C223   O273    1.278   .     A
C223   O279    1.278   .     A
C224   O280    1.271   .     A
C224   O274    1.271   .     A
C225   C230    1.385   .     A
C225   C875    1.402   .     S
C225   H904    1.083   .     S
C226   O269    1.286   .     A
C226   C229    1.456   .     S
C226   O271    1.270   .     A
C227   O272    1.284   .     A
C227   O270    1.281   .     A
C228   C872    1.519   1_554 S
C228   C880    1.422   1_554 S
C230   H264    1.084   .     S
C231   H248    1.112   .     S
C231   H249    1.111   .     S
C231   C291    1.532   .     S
C231   C303    1.533   .     S
C232   H246    1.111   .     S
C232   H245    1.111   .     S
C232   C373    1.533   1_455 S
C232   H389    1.109   1_455 S
C233   H253    1.110   .     S
C233   C234    1.526   .     S
C233   C867    1.519   .     S
C233   H893    1.112   .     S
C234   H252    1.111   .     S
C234   H250    1.109   .     S
C234   H322    1.111   .     S
C235   H260    1.112   .     S
C235   H259    1.107   .     S
C235   C237    1.533   .     S
C235   C236    1.521   .     S
C236   C864    1.402   1_554 S
C236   C877    1.438   1_554 S
C237   H256    1.110   .     S
C237   H258    1.110   .     S
C237   H257    1.109   .     S
C238   C239    1.424   .     A
C238   C875    1.438   .     S
C238   C879    1.431   .     S
C239   C243    1.406   .     A
C240   C877    1.431   1_554 S
C240   C880    1.430   1_554 S
C241   C242    1.399   .     A
C241   C867    1.422   .     S
C241   C879    1.430   .     S
C242   C243    1.381   .     A
C242   H262    1.080   .     S
C243   H266    1.080   .     S
H247   C303    1.109   .     S
H251   C376    1.111   1_455 S
H254   C872    1.112   1_554 S
H261   C435    1.086   .     S
H265   C864    1.083   1_554 S
H267   C361    1.088   1_455 S
O268   Zn282   1.956   .     S
O268   Zn283   1.928   .     S
O268   Zn281   1.948   .     S
O268   Zn284   1.937   .     S
O269   Zn282   1.921   .     S
O270   Zn284   1.931   .     S
O271   Zn283   1.935   .     S
O272   Zn281   1.925   .     S
O273   Zn281   1.931   .     S
O274   Zn284   1.924   .     S
O275   Zn282   1.935   .     S
O276   Zn283   1.944   .     S
O277   Zn284   1.945   .     S
O278   Zn281   1.934   .     S
O279   Zn282   1.926   .     S
O280   Zn283   1.929   .     S
C285   O346    1.270   .     A
C285   O348    1.271   .     A
C285   C291    1.434   .     S
C286   C300    1.387   .     A
C286   C311    1.406   .     A
C286   H334    1.074   .     S
C287   C299    1.396   .     A
C287   H315    1.085   .     S
C287   C300    1.396   .     A
C288   O347    1.286   .     A
C288   C290    1.458   .     S
C288   O349    1.260   .     A
C289   C298    1.475   .     S
C289   C301    1.398   .     A
C289   C310    1.415   .     A
C290   C362    1.357   .     S
C290   H409    1.088   .     S
C292   C295    1.451   .     S
C292   C506    1.332   .     S
C292   H539    1.088   .     S
C293   C294    1.435   .     S
C294   O344    1.278   .     A
C294   O350    1.278   .     A
C295   O351    1.271   .     A
C295   O345    1.271   .     A
C296   C301    1.385   .     A
C296   C946    1.402   .     S
C296   H975    1.083   .     S
C297   O340    1.286   .     A
C297   C300    1.456   .     S
C297   O342    1.270   .     A
C298   O343    1.284   .     A
C298   O341    1.281   .     A
C299   C943    1.519   1_554 S
C299   C951    1.422   1_554 S
C301   H335    1.084   .     S
C302   H319    1.112   .     S
C302   H320    1.111   .     S
C302   C362    1.532   .     S
C302   C374    1.533   .     S
C303   H317    1.111   .     S
C303   H316    1.111   .     S
C304   H324    1.110   .     S
C304   C305    1.526   .     S
C304   C938    1.519   .     S
C304   H964    1.112   .     S
C305   H323    1.111   .     S
C305   H321    1.109   .     S
C305   H393    1.111   .     S
C306   H331    1.112   .     S
C306   H330    1.107   .     S
C306   C308    1.533   .     S
C306   C307    1.521   .     S
C307   C935    1.402   1_554 S
C307   C948    1.438   1_554 S
C308   H327    1.110   .     S
C308   H329    1.110   .     S
C308   H328    1.109   .     S
C309   C310    1.424   .     A
C309   C946    1.438   .     S
C309   C950    1.431   .     S
C310   C314    1.406   .     A
C311   C948    1.431   1_554 S
C311   C951    1.430   1_554 S
C312   C313    1.399   .     A
C312   C938    1.422   .     S
C312   C950    1.430   .     S
C313   C314    1.381   .     A
C313   H333    1.080   .     S
C314   H337    1.080   .     S
H318   C374    1.109   .     S
H325   C943    1.112   1_554 S
H332   C506    1.086   .     S
H336   C935    1.083   1_554 S
O339   Zn353   1.956   .     S
O339   Zn354   1.928   .     S
O339   Zn352   1.948   .     S
O339   Zn355   1.937   .     S
O340   Zn353   1.921   .     S
O341   Zn355   1.931   .     S
O342   Zn354   1.935   .     S
O343   Zn352   1.925   .     S
O344   Zn352   1.931   .     S
O345   Zn355   1.924   .     S
O346   Zn353   1.935   .     S
O347   Zn354   1.944   .     S
O348   Zn355   1.945   .     S
O349   Zn352   1.934   .     S
O350   Zn353   1.926   .     S
O351   Zn354   1.929   .     S
C356   O417    1.270   .     A
C356   O419    1.271   .     A
C356   C362    1.434   .     S
C357   C371    1.387   .     A
C357   C382    1.406   .     A
C357   H405    1.074   .     S
C358   C370    1.396   .     A
C358   H386    1.085   .     S
C358   C371    1.396   .     A
C359   O418    1.286   .     A
C359   C361    1.458   .     S
C359   O420    1.260   .     A
C360   C369    1.475   .     S
C360   C372    1.398   .     A
C360   C381    1.415   .     A
C361   C220    1.357   1_655 S
C361   H267    1.088   1_655 S
C363   C366    1.451   .     S
C363   C577    1.332   .     S
C363   H610    1.088   .     S
C364   C365    1.435   .     S
C365   O415    1.278   .     A
C365   O421    1.278   .     A
C366   O422    1.271   .     A
C366   O416    1.271   .     A
C367   C372    1.385   .     A
C367   C1017   1.402   .     S
C367   H1046   1.083   .     S
C368   O411    1.286   .     A
C368   C371    1.456   .     S
C368   O413    1.270   .     A
C369   O414    1.284   .     A
C369   O412    1.281   .     A
C370   C1014   1.519   1_554 S
C370   C1022   1.422   1_554 S
C372   H406    1.084   .     S
C373   H390    1.112   .     S
C373   H391    1.111   .     S
C373   C220    1.532   1_655 S
C373   C232    1.533   1_655 S
C374   H388    1.111   .     S
C374   H387    1.111   .     S
C375   H395    1.110   .     S
C375   C376    1.526   .     S
C375   C1009   1.519   .     S
C375   H1035   1.112   .     S
C376   H394    1.111   .     S
C376   H392    1.109   .     S
C376   H251    1.111   1_655 S
C377   H402    1.112   .     S
C377   H401    1.107   .     S
C377   C379    1.533   .     S
C377   C378    1.521   .     S
C378   C1006   1.402   1_554 S
C378   C1019   1.438   1_554 S
C379   H398    1.110   .     S
C379   H400    1.110   .     S
C379   H399    1.109   .     S
C380   C381    1.424   .     A
C380   C1017   1.438   .     S
C380   C1021   1.431   .     S
C381   C385    1.406   .     A
C382   C1019   1.431   1_554 S
C382   C1022   1.430   1_554 S
C383   C384    1.399   .     A
C383   C1009   1.422   .     S
C383   C1021   1.430   .     S
C384   C385    1.381   .     A
C384   H404    1.080   .     S
C385   H408    1.080   .     S
H389   C232    1.109   1_655 S
H396   C1014   1.112   1_554 S
H403   C577    1.086   .     S
H407   C1006   1.083   1_554 S
O410   Zn424   1.956   .     S
O410   Zn425   1.928   .     S
O410   Zn423   1.948   .     S
O410   Zn426   1.937   .     S
O411   Zn424   1.921   .     S
O412   Zn426   1.931   .     S
O413   Zn425   1.935   .     S
O414   Zn423   1.925   .     S
O415   Zn423   1.931   .     S
O416   Zn426   1.924   .     S
O417   Zn424   1.935   .     S
O418   Zn425   1.944   .     S
O419   Zn426   1.945   .     S
O420   Zn423   1.934   .     S
O421   Zn424   1.926   .     S
O422   Zn425   1.929   .     S
C427   O488    1.270   .     A
C427   O490    1.271   .     A
C427   C433    1.434   .     S
C428   C442    1.387   .     A
C428   C453    1.406   .     A
C428   H476    1.074   .     S
C429   C441    1.396   .     A
C429   H457    1.085   .     S
C429   C442    1.396   .     A
C430   O489    1.286   .     A
C430   C432    1.458   .     S
C430   O491    1.260   .     A
C431   C440    1.475   .     S
C431   C443    1.398   .     A
C431   C452    1.415   .     A
C432   C504    1.357   .     S
C432   H551    1.088   .     S
C433   C574    1.357   1_455 S
C433   C586    1.532   1_455 S
C434   C437    1.451   .     S
C434   C9      1.332   1_565 S
C434   H42     1.088   1_565 S
C435   C436    1.435   .     S
C436   O486    1.278   .     A
C436   O492    1.278   .     A
C437   O493    1.271   .     A
C437   O487    1.271   .     A
C438   C443    1.385   .     A
C438   C1088   1.402   .     S
C438   H1117   1.083   .     S
C439   O482    1.286   .     A
C439   C442    1.456   .     S
C439   O484    1.270   .     A
C440   O485    1.284   .     A
C440   O483    1.281   .     A
C441   C1085   1.519   1_554 S
C441   C1093   1.422   1_554 S
C443   H477    1.084   .     S
C444   H461    1.112   .     S
C444   H462    1.111   .     S
C444   C504    1.532   .     S
C444   C516    1.533   .     S
C445   H459    1.111   .     S
C445   H458    1.111   .     S
C445   C586    1.533   1_455 S
C445   H602    1.109   1_455 S
C446   H466    1.110   .     S
C446   C447    1.526   .     S
C446   C1080   1.519   .     S
C446   H1106   1.112   .     S
C447   H465    1.111   .     S
C447   H463    1.109   .     S
C447   H535    1.111   .     S
C448   H473    1.112   .     S
C448   H472    1.107   .     S
C448   C450    1.533   .     S
C448   C449    1.521   .     S
C449   C1077   1.402   1_554 S
C449   C1090   1.438   1_554 S
C450   H469    1.110   .     S
C450   H471    1.110   .     S
C450   H470    1.109   .     S
C451   C452    1.424   .     A
C451   C1088   1.438   .     S
C451   C1092   1.431   .     S
C452   C456    1.406   .     A
C453   C1090   1.431   1_554 S
C453   C1093   1.430   1_554 S
C454   C455    1.399   .     A
C454   C1080   1.422   .     S
C454   C1092   1.430   .     S
C455   C456    1.381   .     A
C455   H475    1.080   .     S
C456   H479    1.080   .     S
H460   C516    1.109   .     S
H464   C589    1.111   1_455 S
H467   C1085   1.112   1_554 S
H474   C9      1.086   1_565 S
H478   C1077   1.083   1_554 S
H480   C574    1.088   1_455 S
O481   Zn495   1.956   .     S
O481   Zn496   1.928   .     S
O481   Zn494   1.948   .     S
O481   Zn497   1.937   .     S
O482   Zn495   1.921   .     S
O483   Zn497   1.931   .     S
O484   Zn496   1.935   .     S
O485   Zn494   1.925   .     S
O486   Zn494   1.931   .     S
O487   Zn497   1.924   .     S
O488   Zn495   1.935   .     S
O489   Zn496   1.944   .     S
O490   Zn497   1.945   .     S
O491   Zn494   1.934   .     S
O492   Zn495   1.926   .     S
O493   Zn496   1.929   .     S
C498   O559    1.270   .     A
C498   O561    1.271   .     A
C498   C504    1.434   .     S
C499   C513    1.387   .     A
C499   C524    1.406   .     A
C499   H547    1.074   .     S
C500   C512    1.396   .     A
C500   H528    1.085   .     S
C500   C513    1.396   .     A
C501   O560    1.286   .     A
C501   C503    1.458   .     S
C501   O562    1.260   .     A
C502   C511    1.475   .     S
C502   C514    1.398   .     A
C502   C523    1.415   .     A
C503   C575    1.357   .     S
C503   H622    1.088   .     S
C505   C508    1.451   .     S
C505   C80     1.332   1_565 S
C505   H113    1.088   1_565 S
C506   C507    1.435   .     S
C507   O557    1.278   .     A
C507   O563    1.278   .     A
C508   O564    1.271   .     A
C508   O558    1.271   .     A
C509   C514    1.385   .     A
C509   C1159   1.402   .     S
C509   H1188   1.083   .     S
C510   O553    1.286   .     A
C510   C513    1.456   .     S
C510   O555    1.270   .     A
C511   O556    1.284   .     A
C511   O554    1.281   .     A
C512   C1156   1.519   1_554 S
C512   C1164   1.422   1_554 S
C514   H548    1.084   .     S
C515   H532    1.112   .     S
C515   H533    1.111   .     S
C515   C575    1.532   .     S
C515   C587    1.533   .     S
C516   H530    1.111   .     S
C516   H529    1.111   .     S
C517   H537    1.110   .     S
C517   C518    1.526   .     S
C517   C1151   1.519   .     S
C517   H1177   1.112   .     S
C518   H536    1.111   .     S
C518   H534    1.109   .     S
C518   H606    1.111   .     S
C519   H544    1.112   .     S
C519   H543    1.107   .     S
C519   C521    1.533   .     S
C519   C520    1.521   .     S
C520   C1148   1.402   1_554 S
C520   C1161   1.438   1_554 S
C521   H540    1.110   .     S
C521   H542    1.110   .     S
C521   H541    1.109   .     S
C522   C523    1.424   .     A
C522   C1159   1.438   .     S
C522   C1163   1.431   .     S
C523   C527    1.406   .     A
C524   C1161   1.431   1_554 S
C524   C1164   1.430   1_554 S
C525   C526    1.399   .     A
C525   C1151   1.422   .     S
C525   C1163   1.430   .     S
C526   C527    1.381   .     A
C526   H546    1.080   .     S
C527   H550    1.080   .     S
H531   C587    1.109   .     S
H538   C1156   1.112   1_554 S
H545   C80     1.086   1_565 S
H549   C1148   1.083   1_554 S
O552   Zn566   1.956   .     S
O552   Zn567   1.928   .     S
O552   Zn565   1.948   .     S
O552   Zn568   1.937   .     S
O553   Zn566   1.921   .     S
O554   Zn568   1.931   .     S
O555   Zn567   1.935   .     S
O556   Zn565   1.925   .     S
O557   Zn565   1.931   .     S
O558   Zn568   1.924   .     S
O559   Zn566   1.935   .     S
O560   Zn567   1.944   .     S
O561   Zn568   1.945   .     S
O562   Zn565   1.934   .     S
O563   Zn566   1.926   .     S
O564   Zn567   1.929   .     S
C569   O630    1.270   .     A
C569   O632    1.271   .     A
C569   C575    1.434   .     S
C570   C584    1.387   .     A
C570   C595    1.406   .     A
C570   H618    1.074   .     S
C571   C583    1.396   .     A
C571   H599    1.085   .     S
C571   C584    1.396   .     A
C572   O631    1.286   .     A
C572   C574    1.458   .     S
C572   O633    1.260   .     A
C573   C582    1.475   .     S
C573   C585    1.398   .     A
C573   C594    1.415   .     A
C574   C433    1.357   1_655 S
C574   H480    1.088   1_655 S
C576   C579    1.451   .     S
C576   C151    1.332   1_565 S
C576   H184    1.088   1_565 S
C577   C578    1.435   .     S
C578   O628    1.278   .     A
C578   O634    1.278   .     A
C579   O635    1.271   .     A
C579   O629    1.271   .     A
C580   C585    1.385   .     A
C580   C1230   1.402   .     S
C580   H1259   1.083   .     S
C581   O624    1.286   .     A
C581   C584    1.456   .     S
C581   O626    1.270   .     A
C582   O627    1.284   .     A
C582   O625    1.281   .     A
C583   C1227   1.519   1_554 S
C583   C1235   1.422   1_554 S
C585   H619    1.084   .     S
C586   H603    1.112   .     S
C586   H604    1.111   .     S
C586   C433    1.532   1_655 S
C586   C445    1.533   1_655 S
C587   H601    1.111   .     S
C587   H600    1.111   .     S
C588   H608    1.110   .     S
C588   C589    1.526   .     S
C588   C1222   1.519   .     S
C588   H1248   1.112   .     S
C589   H607    1.111   .     S
C589   H605    1.109   .     S
C589   H464    1.111   1_655 S
C590   H615    1.112   .     S
C590   H614    1.107   .     S
C590   C592    1.533   .     S
C590   C591    1.521   .     S
C591   C1219   1.402   1_554 S
C591   C1232   1.438   1_554 S
C592   H611    1.110   .     S
C592   H613    1.110   .     S
C592   H612    1.109   .     S
C593   C594    1.424   .     A
C593   C1230   1.438   .     S
C593   C1234   1.431   .     S
C594   C598    1.406   .     A
C595   C1232   1.431   1_554 S
C595   C1235   1.430   1_554 S
C596   C597    1.399   .     A
C596   C1222   1.422   .     S
C596   C1234   1.430   .     S
C597   C598    1.381   .     A
C597   H617    1.080   .     S
C598   H621    1.080   .     S
H602   C445    1.109   1_655 S
H609   C1227   1.112   1_554 S
H616   C151    1.086   1_565 S
H620   C1219   1.083   1_554 S
O623   Zn637   1.956   .     S
O623   Zn638   1.928   .     S
O623   Zn636   1.948   .     S
O623   Zn639   1.937   .     S
O624   Zn637   1.921   .     S
O625   Zn639   1.931   .     S
O626   Zn638   1.935   .     S
O627   Zn636   1.925   .     S
O628   Zn636   1.931   .     S
O629   Zn639   1.924   .     S
O630   Zn637   1.935   .     S
O631   Zn638   1.944   .     S
O632   Zn639   1.945   .     S
O633   Zn636   1.934   .     S
O634   Zn637   1.926   .     S
O635   Zn638   1.929   .     S
C640   O701    1.270   .     A
C640   O703    1.271   .     A
C640   C646    1.434   .     S
C641   C655    1.387   .     A
C641   C666    1.406   .     A
C641   H689    1.074   .     S
C642   C654    1.396   .     A
C642   H670    1.085   .     S
C642   C655    1.396   .     A
C643   O702    1.286   .     A
C643   C645    1.458   .     S
C643   O704    1.260   .     A
C644   C653    1.475   .     S
C644   C656    1.398   .     A
C644   C665    1.415   .     A
C645   C717    1.357   .     S
C645   H764    1.088   .     S
C646   C787    1.357   1_455 S
C646   C799    1.532   1_455 S
C647   C650    1.451   .     S
C647   C861    1.332   .     S
C647   H894    1.088   .     S
C648   C649    1.435   .     S
C648   C1073   1.332   1_545 S
C648   H1113   1.086   1_545 S
C649   O699    1.278   .     A
C649   O705    1.278   .     A
C650   O706    1.271   .     A
C650   O700    1.271   .     A
C651   C656    1.385   .     A
C651   C23     1.402   1_556 S
C651   H52     1.083   1_556 S
C652   O695    1.286   .     A
C652   C655    1.456   .     S
C652   O697    1.270   .     A
C653   O698    1.284   .     A
C653   O696    1.281   .     A
C656   H690    1.084   .     S
C657   H674    1.112   .     S
C657   H675    1.111   .     S
C657   C717    1.532   .     S
C657   C729    1.533   .     S
C658   H672    1.111   .     S
C658   H671    1.111   .     S
C658   C799    1.533   1_455 S
C658   H815    1.109   1_455 S
C659   H679    1.110   .     S
C659   C660    1.526   .     S
C659   C15     1.519   1_556 S
C659   H41     1.112   1_556 S
C660   H678    1.111   .     S
C660   H676    1.109   .     S
C660   H748    1.111   .     S
C661   H686    1.112   .     S
C661   H685    1.107   .     S
C661   C663    1.533   .     S
C661   C662    1.521   .     S
C663   H682    1.110   .     S
C663   H684    1.110   .     S
C663   H683    1.109   .     S
C664   C665    1.424   .     A
C664   C23     1.438   1_556 S
C664   C27     1.431   1_556 S
C665   C669    1.406   .     A
C667   C668    1.399   .     A
C667   C15     1.422   1_556 S
C667   C27     1.430   1_556 S
C668   C669    1.381   .     A
C668   H688    1.080   .     S
C669   H692    1.080   .     S
H673   C729    1.109   .     S
H677   C802    1.111   1_455 S
H681   C1073   1.088   1_545 S
H687   C861    1.086   .     S
H693   C787    1.088   1_455 S
O694   Zn708   1.956   .     S
O694   Zn709   1.928   .     S
O694   Zn707   1.948   .     S
O694   Zn710   1.937   .     S
O695   Zn708   1.921   .     S
O696   Zn710   1.931   .     S
O697   Zn709   1.935   .     S
O698   Zn707   1.925   .     S
O699   Zn707   1.931   .     S
O700   Zn710   1.924   .     S
O701   Zn708   1.935   .     S
O702   Zn709   1.944   .     S
O703   Zn710   1.945   .     S
O704   Zn707   1.934   .     S
O705   Zn708   1.926   .     S
O706   Zn709   1.929   .     S
C711   O772    1.270   .     A
C711   O774    1.271   .     A
C711   C717    1.434   .     S
C712   C726    1.387   .     A
C712   C737    1.406   .     A
C712   H760    1.074   .     S
C713   C725    1.396   .     A
C713   H741    1.085   .     S
C713   C726    1.396   .     A
C714   O773    1.286   .     A
C714   C716    1.458   .     S
C714   O775    1.260   .     A
C715   C724    1.475   .     S
C715   C727    1.398   .     A
C715   C736    1.415   .     A
C716   C788    1.357   .     S
C716   H835    1.088   .     S
C718   C721    1.451   .     S
C718   C932    1.332   .     S
C718   H965    1.088   .     S
C719   C720    1.435   .     S
C719   C1144   1.332   1_545 S
C719   H1184   1.086   1_545 S
C720   O770    1.278   .     A
C720   O776    1.278   .     A
C721   O777    1.271   .     A
C721   O771    1.271   .     A
C722   C727    1.385   .     A
C722   C94     1.402   1_556 S
C722   H123    1.083   1_556 S
C723   O766    1.286   .     A
C723   C726    1.456   .     S
C723   O768    1.270   .     A
C724   O769    1.284   .     A
C724   O767    1.281   .     A
C727   H761    1.084   .     S
C728   H745    1.112   .     S
C728   H746    1.111   .     S
C728   C788    1.532   .     S
C728   C800    1.533   .     S
C729   H743    1.111   .     S
C729   H742    1.111   .     S
C730   H750    1.110   .     S
C730   C731    1.526   .     S
C730   C86     1.519   1_556 S
C730   H112    1.112   1_556 S
C731   H749    1.111   .     S
C731   H747    1.109   .     S
C731   H819    1.111   .     S
C732   H757    1.112   .     S
C732   H756    1.107   .     S
C732   C734    1.533   .     S
C732   C733    1.521   .     S
C734   H753    1.110   .     S
C734   H755    1.110   .     S
C734   H754    1.109   .     S
C735   C736    1.424   .     A
C735   C94     1.438   1_556 S
C735   C98     1.431   1_556 S
C736   C740    1.406   .     A
C738   C739    1.399   .     A
C738   C86     1.422   1_556 S
C738   C98     1.430   1_556 S
C739   C740    1.381   .     A
C739   H759    1.080   .     S
C740   H763    1.080   .     S
H744   C800    1.109   .     S
H752   C1144   1.088   1_545 S
H758   C932    1.086   .     S
O765   Zn779   1.956   .     S
O765   Zn780   1.928   .     S
O765   Zn778   1.948   .     S
O765   Zn781   1.937   .     S
O766   Zn779   1.921   .     S
O767   Zn781   1.931   .     S
O768   Zn780   1.935   .     S
O769   Zn778   1.925   .     S
O770   Zn778   1.931   .     S
O771   Zn781   1.924   .     S
O772   Zn779   1.935   .     S
O773   Zn780   1.944   .     S
O774   Zn781   1.945   .     S
O775   Zn778   1.934   .     S
O776   Zn779   1.926   .     S
O777   Zn780   1.929   .     S
C782   O843    1.270   .     A
C782   O845    1.271   .     A
C782   C788    1.434   .     S
C783   C797    1.387   .     A
C783   C808    1.406   .     A
C783   H831    1.074   .     S
C784   C796    1.396   .     A
C784   H812    1.085   .     S
C784   C797    1.396   .     A
C785   O844    1.286   .     A
C785   C787    1.458   .     S
C785   O846    1.260   .     A
C786   C795    1.475   .     S
C786   C798    1.398   .     A
C786   C807    1.415   .     A
C787   C646    1.357   1_655 S
C787   H693    1.088   1_655 S
C789   C792    1.451   .     S
C789   C1003   1.332   .     S
C789   H1036   1.088   .     S
C790   C791    1.435   .     S
C790   C1215   1.332   1_545 S
C790   H1255   1.086   1_545 S
C791   O841    1.278   .     A
C791   O847    1.278   .     A
C792   O848    1.271   .     A
C792   O842    1.271   .     A
C793   C798    1.385   .     A
C793   C165    1.402   1_556 S
C793   H194    1.083   1_556 S
C794   O837    1.286   .     A
C794   C797    1.456   .     S
C794   O839    1.270   .     A
C795   O840    1.284   .     A
C795   O838    1.281   .     A
C798   H832    1.084   .     S
C799   H816    1.112   .     S
C799   H817    1.111   .     S
C799   C646    1.532   1_655 S
C799   C658    1.533   1_655 S
C800   H814    1.111   .     S
C800   H813    1.111   .     S
C801   H821    1.110   .     S
C801   C802    1.526   .     S
C801   C157    1.519   1_556 S
C801   H183    1.112   1_556 S
C802   H820    1.111   .     S
C802   H818    1.109   .     S
C802   H677    1.111   1_655 S
C803   H828    1.112   .     S
C803   H827    1.107   .     S
C803   C805    1.533   .     S
C803   C804    1.521   .     S
C805   H824    1.110   .     S
C805   H826    1.110   .     S
C805   H825    1.109   .     S
C806   C807    1.424   .     A
C806   C165    1.438   1_556 S
C806   C169    1.431   1_556 S
C807   C811    1.406   .     A
C809   C810    1.399   .     A
C809   C157    1.422   1_556 S
C809   C169    1.430   1_556 S
C810   C811    1.381   .     A
C810   H830    1.080   .     S
C811   H834    1.080   .     S
H815   C658    1.109   1_655 S
H823   C1215   1.088   1_545 S
H829   C1003   1.086   .     S
O836   Zn850   1.956   .     S
O836   Zn851   1.928   .     S
O836   Zn849   1.948   .     S
O836   Zn852   1.937   .     S
O837   Zn850   1.921   .     S
O838   Zn852   1.931   .     S
O839   Zn851   1.935   .     S
O840   Zn849   1.925   .     S
O841   Zn849   1.931   .     S
O842   Zn852   1.924   .     S
O843   Zn850   1.935   .     S
O844   Zn851   1.944   .     S
O845   Zn852   1.945   .     S
O846   Zn849   1.934   .     S
O847   Zn850   1.926   .     S
O848   Zn851   1.929   .     S
C853   O914    1.270   .     A
C853   O916    1.271   .     A
C853   C859    1.434   .     S
C854   C868    1.387   .     A
C854   C879    1.406   .     A
C854   H902    1.074   .     S
C855   C867    1.396   .     A
C855   H883    1.085   .     S
C855   C868    1.396   .     A
C856   O915    1.286   .     A
C856   C858    1.458   .     S
C856   O917    1.260   .     A
C857   C866    1.475   .     S
C857   C869    1.398   .     A
C857   C878    1.415   .     A
C858   C930    1.357   .     S
C858   H977    1.088   .     S
C859   C1000   1.357   1_455 S
C859   C1012   1.532   1_455 S
C860   C863    1.451   .     S
C860   C1074   1.332   .     S
C860   H1107   1.088   .     S
C861   C862    1.435   .     S
C862   O912    1.278   .     A
C862   O918    1.278   .     A
C863   O919    1.271   .     A
C863   O913    1.271   .     A
C864   C869    1.385   .     A
C864   C236    1.402   1_556 S
C864   H265    1.083   1_556 S
C865   O908    1.286   .     A
C865   C868    1.456   .     S
C865   O910    1.270   .     A
C866   O911    1.284   .     A
C866   O909    1.281   .     A
C869   H903    1.084   .     S
C870   H887    1.112   .     S
C870   H888    1.111   .     S
C870   C930    1.532   .     S
C870   C942    1.533   .     S
C871   H885    1.111   .     S
C871   H884    1.111   .     S
C871   C1012   1.533   1_455 S
C871   H1028   1.109   1_455 S
C872   H892    1.110   .     S
C872   C873    1.526   .     S
C872   C228    1.519   1_556 S
C872   H254    1.112   1_556 S
C873   H891    1.111   .     S
C873   H889    1.109   .     S
C873   H961    1.111   .     S
C874   H899    1.112   .     S
C874   H898    1.107   .     S
C874   C876    1.533   .     S
C874   C875    1.521   .     S
C876   H895    1.110   .     S
C876   H897    1.110   .     S
C876   H896    1.109   .     S
C877   C878    1.424   .     A
C877   C236    1.438   1_556 S
C877   C240    1.431   1_556 S
C878   C882    1.406   .     A
C880   C881    1.399   .     A
C880   C228    1.422   1_556 S
C880   C240    1.430   1_556 S
C881   C882    1.381   .     A
C881   H901    1.080   .     S
C882   H905    1.080   .     S
H886   C942    1.109   .     S
H890   C1015   1.111   1_455 S
H900   C1074   1.086   .     S
H906   C1000   1.088   1_455 S
O907   Zn921   1.956   .     S
O907   Zn922   1.928   .     S
O907   Zn920   1.948   .     S
O907   Zn923   1.937   .     S
O908   Zn921   1.921   .     S
O909   Zn923   1.931   .     S
O910   Zn922   1.935   .     S
O911   Zn920   1.925   .     S
O912   Zn920   1.931   .     S
O913   Zn923   1.924   .     S
O914   Zn921   1.935   .     S
O915   Zn922   1.944   .     S
O916   Zn923   1.945   .     S
O917   Zn920   1.934   .     S
O918   Zn921   1.926   .     S
O919   Zn922   1.929   .     S
C924   O985    1.270   .     A
C924   O987    1.271   .     A
C924   C930    1.434   .     S
C925   C939    1.387   .     A
C925   C950    1.406   .     A
C925   H973    1.074   .     S
C926   C938    1.396   .     A
C926   H954    1.085   .     S
C926   C939    1.396   .     A
C927   O986    1.286   .     A
C927   C929    1.458   .     S
C927   O988    1.260   .     A
C928   C937    1.475   .     S
C928   C940    1.398   .     A
C928   C949    1.415   .     A
C929   C1001   1.357   .     S
C929   H1048   1.088   .     S
C931   C934    1.451   .     S
C931   C1145   1.332   .     S
C931   H1178   1.088   .     S
C932   C933    1.435   .     S
C933   O983    1.278   .     A
C933   O989    1.278   .     A
C934   O990    1.271   .     A
C934   O984    1.271   .     A
C935   C940    1.385   .     A
C935   C307    1.402   1_556 S
C935   H336    1.083   1_556 S
C936   O979    1.286   .     A
C936   C939    1.456   .     S
C936   O981    1.270   .     A
C937   O982    1.284   .     A
C937   O980    1.281   .     A
C940   H974    1.084   .     S
C941   H958    1.112   .     S
C941   H959    1.111   .     S
C941   C1001   1.532   .     S
C941   C1013   1.533   .     S
C942   H956    1.111   .     S
C942   H955    1.111   .     S
C943   H963    1.110   .     S
C943   C944    1.526   .     S
C943   C299    1.519   1_556 S
C943   H325    1.112   1_556 S
C944   H962    1.111   .     S
C944   H960    1.109   .     S
C944   H1032   1.111   .     S
C945   H970    1.112   .     S
C945   H969    1.107   .     S
C945   C947    1.533   .     S
C945   C946    1.521   .     S
C947   H966    1.110   .     S
C947   H968    1.110   .     S
C947   H967    1.109   .     S
C948   C949    1.424   .     A
C948   C307    1.438   1_556 S
C948   C311    1.431   1_556 S
C949   C953    1.406   .     A
C951   C952    1.399   .     A
C951   C299    1.422   1_556 S
C951   C311    1.430   1_556 S
C952   C953    1.381   .     A
C952   H972    1.080   .     S
C953   H976    1.080   .     S
H957   C1013   1.109   .     S
H971   C1145   1.086   .     S
O978   Zn992   1.956   .     S
O978   Zn993   1.928   .     S
O978   Zn991   1.948   .     S
O978   Zn994   1.937   .     S
O979   Zn992   1.921   .     S
O980   Zn994   1.931   .     S
O981   Zn993   1.935   .     S
O982   Zn991   1.925   .     S
O983   Zn991   1.931   .     S
O984   Zn994   1.924   .     S
O985   Zn992   1.935   .     S
O986   Zn993   1.944   .     S
O987   Zn994   1.945   .     S
O988   Zn991   1.934   .     S
O989   Zn992   1.926   .     S
O990   Zn993   1.929   .     S
C995   O1056   1.270   .     A
C995   O1058   1.271   .     A
C995   C1001   1.434   .     S
C996   C1010   1.387   .     A
C996   C1021   1.406   .     A
C996   H1044   1.074   .     S
C997   C1009   1.396   .     A
C997   H1025   1.085   .     S
C997   C1010   1.396   .     A
C998   O1057   1.286   .     A
C998   C1000   1.458   .     S
C998   O1059   1.260   .     A
C999   C1008   1.475   .     S
C999   C1011   1.398   .     A
C999   C1020   1.415   .     A
C1000  C859    1.357   1_655 S
C1000  H906    1.088   1_655 S
C1002  C1005   1.451   .     S
C1002  C1216   1.332   .     S
C1002  H1249   1.088   .     S
C1003  C1004   1.435   .     S
C1004  O1054   1.278   .     A
C1004  O1060   1.278   .     A
C1005  O1061   1.271   .     A
C1005  O1055   1.271   .     A
C1006  C1011   1.385   .     A
C1006  C378    1.402   1_556 S
C1006  H407    1.083   1_556 S
C1007  O1050   1.286   .     A
C1007  C1010   1.456   .     S
C1007  O1052   1.270   .     A
C1008  O1053   1.284   .     A
C1008  O1051   1.281   .     A
C1011  H1045   1.084   .     S
C1012  H1029   1.112   .     S
C1012  H1030   1.111   .     S
C1012  C859    1.532   1_655 S
C1012  C871    1.533   1_655 S
C1013  H1027   1.111   .     S
C1013  H1026   1.111   .     S
C1014  H1034   1.110   .     S
C1014  C1015   1.526   .     S
C1014  C370    1.519   1_556 S
C1014  H396    1.112   1_556 S
C1015  H1033   1.111   .     S
C1015  H1031   1.109   .     S
C1015  H890    1.111   1_655 S
C1016  H1041   1.112   .     S
C1016  H1040   1.107   .     S
C1016  C1018   1.533   .     S
C1016  C1017   1.521   .     S
C1018  H1037   1.110   .     S
C1018  H1039   1.110   .     S
C1018  H1038   1.109   .     S
C1019  C1020   1.424   .     A
C1019  C378    1.438   1_556 S
C1019  C382    1.431   1_556 S
C1020  C1024   1.406   .     A
C1022  C1023   1.399   .     A
C1022  C370    1.422   1_556 S
C1022  C382    1.430   1_556 S
C1023  C1024   1.381   .     A
C1023  H1043   1.080   .     S
C1024  H1047   1.080   .     S
H1028  C871    1.109   1_655 S
H1042  C1216   1.086   .     S
O1049  Zn1063  1.956   .     S
O1049  Zn1064  1.928   .     S
O1049  Zn1062  1.948   .     S
O1049  Zn1065  1.937   .     S
O1050  Zn1063  1.921   .     S
O1051  Zn1065  1.931   .     S
O1052  Zn1064  1.935   .     S
O1053  Zn1062  1.925   .     S
O1054  Zn1062  1.931   .     S
O1055  Zn1065  1.924   .     S
O1056  Zn1063  1.935   .     S
O1057  Zn1064  1.944   .     S
O1058  Zn1065  1.945   .     S
O1059  Zn1062  1.934   .     S
O1060  Zn1063  1.926   .     S
O1061  Zn1064  1.929   .     S
C1066  O1127   1.270   .     A
C1066  O1129   1.271   .     A
C1066  C1072   1.434   .     S
C1067  C1081   1.387   .     A
C1067  C1092   1.406   .     A
C1067  H1115   1.074   .     S
C1068  C1080   1.396   .     A
C1068  H1096   1.085   .     S
C1068  C1081   1.396   .     A
C1069  O1128   1.286   .     A
C1069  C1071   1.458   .     S
C1069  O1130   1.260   .     A
C1070  C1079   1.475   .     S
C1070  C1082   1.398   .     A
C1070  C1091   1.415   .     A
C1071  C1143   1.357   .     S
C1071  H1190   1.088   .     S
C1072  C1213   1.357   1_455 S
C1072  C1225   1.532   1_455 S
C1073  C1076   1.451   .     S
C1073  C648    1.332   1_565 S
C1073  H681    1.088   1_565 S
C1074  C1075   1.435   .     S
C1075  O1125   1.278   .     A
C1075  O1131   1.278   .     A
C1076  O1132   1.271   .     A
C1076  O1126   1.271   .     A
C1077  C1082   1.385   .     A
C1077  C449    1.402   1_556 S
C1077  H478    1.083   1_556 S
C1078  O1121   1.286   .     A
C1078  C1081   1.456   .     S
C1078  O1123   1.270   .     A
C1079  O1124   1.284   .     A
C1079  O1122   1.281   .     A
C1082  H1116   1.084   .     S
C1083  H1100   1.112   .     S
C1083  H1101   1.111   .     S
C1083  C1143   1.532   .     S
C1083  C1155   1.533   .     S
C1084  H1098   1.111   .     S
C1084  H1097   1.111   .     S
C1084  C1225   1.533   1_455 S
C1084  H1241   1.109   1_455 S
C1085  H1105   1.110   .     S
C1085  C1086   1.526   .     S
C1085  C441    1.519   1_556 S
C1085  H467    1.112   1_556 S
C1086  H1104   1.111   .     S
C1086  H1102   1.109   .     S
C1086  H1174   1.111   .     S
C1087  H1112   1.112   .     S
C1087  H1111   1.107   .     S
C1087  C1089   1.533   .     S
C1087  C1088   1.521   .     S
C1089  H1108   1.110   .     S
C1089  H1110   1.110   .     S
C1089  H1109   1.109   .     S
C1090  C1091   1.424   .     A
C1090  C449    1.438   1_556 S
C1090  C453    1.431   1_556 S
C1091  C1095   1.406   .     A
C1093  C1094   1.399   .     A
C1093  C441    1.422   1_556 S
C1093  C453    1.430   1_556 S
C1094  C1095   1.381   .     A
C1094  H1114   1.080   .     S
C1095  H1118   1.080   .     S
H1099  C1155   1.109   .     S
H1103  C1228   1.111   1_455 S
H1113  C648    1.086   1_565 S
H1119  C1213   1.088   1_455 S
O1120  Zn1134  1.956   .     S
O1120  Zn1135  1.928   .     S
O1120  Zn1133  1.948   .     S
O1120  Zn1136  1.937   .     S
O1121  Zn1134  1.921   .     S
O1122  Zn1136  1.931   .     S
O1123  Zn1135  1.935   .     S
O1124  Zn1133  1.925   .     S
O1125  Zn1133  1.931   .     S
O1126  Zn1136  1.924   .     S
O1127  Zn1134  1.935   .     S
O1128  Zn1135  1.944   .     S
O1129  Zn1136  1.945   .     S
O1130  Zn1133  1.934   .     S
O1131  Zn1134  1.926   .     S
O1132  Zn1135  1.929   .     S
C1137  O1198   1.270   .     A
C1137  O1200   1.271   .     A
C1137  C1143   1.434   .     S
C1138  C1152   1.387   .     A
C1138  C1163   1.406   .     A
C1138  H1186   1.074   .     S
C1139  C1151   1.396   .     A
C1139  H1167   1.085   .     S
C1139  C1152   1.396   .     A
C1140  O1199   1.286   .     A
C1140  C1142   1.458   .     S
C1140  O1201   1.260   .     A
C1141  C1150   1.475   .     S
C1141  C1153   1.398   .     A
C1141  C1162   1.415   .     A
C1142  C1214   1.357   .     S
C1142  H1261   1.088   .     S
C1144  C1147   1.451   .     S
C1144  C719    1.332   1_565 S
C1144  H752    1.088   1_565 S
C1145  C1146   1.435   .     S
C1146  O1196   1.278   .     A
C1146  O1202   1.278   .     A
C1147  O1203   1.271   .     A
C1147  O1197   1.271   .     A
C1148  C1153   1.385   .     A
C1148  C520    1.402   1_556 S
C1148  H549    1.083   1_556 S
C1149  O1192   1.286   .     A
C1149  C1152   1.456   .     S
C1149  O1194   1.270   .     A
C1150  O1195   1.284   .     A
C1150  O1193   1.281   .     A
C1153  H1187   1.084   .     S
C1154  H1171   1.112   .     S
C1154  H1172   1.111   .     S
C1154  C1214   1.532   .     S
C1154  C1226   1.533   .     S
C1155  H1169   1.111   .     S
C1155  H1168   1.111   .     S
C1156  H1176   1.110   .     S
C1156  C1157   1.526   .     S
C1156  C512    1.519   1_556 S
C1156  H538    1.112   1_556 S
C1157  H1175   1.111   .     S
C1157  H1173   1.109   .     S
C1157  H1245   1.111   .     S
C1158  H1183   1.112   .     S
C1158  H1182   1.107   .     S
C1158  C1160   1.533   .     S
C1158  C1159   1.521   .     S
C1160  H1179   1.110   .     S
C1160  H1181   1.110   .     S
C1160  H1180   1.109   .     S
C1161  C1162   1.424   .     A
C1161  C520    1.438   1_556 S
C1161  C524    1.431   1_556 S
C1162  C1166   1.406   .     A
C1164  C1165   1.399   .     A
C1164  C512    1.422   1_556 S
C1164  C524    1.430   1_556 S
C1165  C1166   1.381   .     A
C1165  H1185   1.080   .     S
C1166  H1189   1.080   .     S
H1170  C1226   1.109   .     S
H1184  C719    1.086   1_565 S
O1191  Zn1205  1.956   .     S
O1191  Zn1206  1.928   .     S
O1191  Zn1204  1.948   .     S
O1191  Zn1207  1.937   .     S
O1192  Zn1205  1.921   .     S
O1193  Zn1207  1.931   .     S
O1194  Zn1206  1.935   .     S
O1195  Zn1204  1.925   .     S
O1196  Zn1204  1.931   .     S
O1197  Zn1207  1.924   .     S
O1198  Zn1205  1.935   .     S
O1199  Zn1206  1.944   .     S
O1200  Zn1207  1.945   .     S
O1201  Zn1204  1.934   .     S
O1202  Zn1205  1.926   .     S
O1203  Zn1206  1.929   .     S
C1208  O1269   1.270   .     A
C1208  O1271   1.271   .     A
C1208  C1214   1.434   .     S
C1209  C1223   1.387   .     A
C1209  C1234   1.406   .     A
C1209  H1257   1.074   .     S
C1210  C1222   1.396   .     A
C1210  H1238   1.085   .     S
C1210  C1223   1.396   .     A
C1211  O1270   1.286   .     A
C1211  C1213   1.458   .     S
C1211  O1272   1.260   .     A
C1212  C1221   1.475   .     S
C1212  C1224   1.398   .     A
C1212  C1233   1.415   .     A
C1213  C1072   1.357   1_655 S
C1213  H1119   1.088   1_655 S
C1215  C1218   1.451   .     S
C1215  C790    1.332   1_565 S
C1215  H823    1.088   1_565 S
C1216  C1217   1.435   .     S
C1217  O1267   1.278   .     A
C1217  O1273   1.278   .     A
C1218  O1274   1.271   .     A
C1218  O1268   1.271   .     A
C1219  C1224   1.385   .     A
C1219  C591    1.402   1_556 S
C1219  H620    1.083   1_556 S
C1220  O1263   1.286   .     A
C1220  C1223   1.456   .     S
C1220  O1265   1.270   .     A
C1221  O1266   1.284   .     A
C1221  O1264   1.281   .     A
C1224  H1258   1.084   .     S
C1225  H1242   1.112   .     S
C1225  H1243   1.111   .     S
C1225  C1072   1.532   1_655 S
C1225  C1084   1.533   1_655 S
C1226  H1240   1.111   .     S
C1226  H1239   1.111   .     S
C1227  H1247   1.110   .     S
C1227  C1228   1.526   .     S
C1227  C583    1.519   1_556 S
C1227  H609    1.112   1_556 S
C1228  H1246   1.111   .     S
C1228  H1244   1.109   .     S
C1228  H1103   1.111   1_655 S
C1229  H1254   1.112   .     S
C1229  H1253   1.107   .     S
C1229  C1231   1.533   .     S
C1229  C1230   1.521   .     S
C1231  H1250   1.110   .     S
C1231  H1252   1.110   .     S
C1231  H1251   1.109   .     S
C1232  C1233   1.424   .     A
C1232  C591    1.438   1_556 S
C1232  C595    1.431   1_556 S
C1233  C1237   1.406   .     A
C1235  C1236   1.399   .     A
C1235  C583    1.422   1_556 S
C1235  C595    1.430   1_556 S
C1236  C1237   1.381   .     A
C1236  H1256   1.080   .     S
C1237  H1260   1.080   .     S
H1241  C1084   1.109   1_655 S
H1255  C790    1.086   1_565 S
O1262  Zn1276  1.956   .     S
O1262  Zn1277  1.928   .     S
O1262  Zn1275  1.948   .     S
O1262  Zn1278  1.937   .     S
O1263  Zn1276  1.921   .     S
O1264  Zn1278  1.931   .     S
O1265  Zn1277  1.935   .     S
O1266  Zn1275  1.925   .     S
O1267  Zn1275  1.931   .     S
O1268  Zn1278  1.924   .     S
O1269  Zn1276  1.935   .     S
O1270  Zn1277  1.944   .     S
O1271  Zn1278  1.945   .     S
O1272  Zn1275  1.934   .     S
O1273  Zn1276  1.926   .     S
O1274  Zn1277  1.929   .     S
