data_str_m2_o10_o17_pcu_sym.61
_audit_creation_date              2020-01-03
_audit_creation_method            'Materials Studio'
_symmetry_space_group_name_H-M    'P1'
_symmetry_Int_Tables_number       1
_symmetry_cell_setting            triclinic
loop_
_symmetry_equiv_pos_as_xyz
  x,y,z
_cell_length_a                    30.0914
_cell_length_b                    26.2853
_cell_length_c                    22.2979
_cell_angle_alpha                 103.0638
_cell_angle_beta                  93.5204
_cell_angle_gamma                 92.2654
loop_
_atom_site_label
_atom_site_type_symbol
_atom_site_fract_x
_atom_site_fract_y
_atom_site_fract_z
_atom_site_U_iso_or_equiv
_atom_site_adp_type
_atom_site_occupancy
C1     C     0.24959   0.06672   0.15107   0.00000  Uiso   1.00
C2     C     0.09086   0.11930   0.14503   0.00000  Uiso   1.00
C3     C     0.38338   0.16730   0.16290   0.00000  Uiso   1.00
C4     C     0.11662   0.16603   0.17044   0.00000  Uiso   1.00
C5     C     0.40352   0.12060   0.13764   0.00000  Uiso   1.00
C6     C     0.09648   0.21274   0.19569   0.00000  Uiso   1.00
C7     C     0.45044   0.11879   0.14329   0.00000  Uiso   1.00
C8     C     0.04956   0.21454   0.19004   0.00000  Uiso   1.00
C9     C     0.47647   0.16639   0.16626   0.00000  Uiso   1.00
C10    C     0.02353   0.16695   0.16708   0.00000  Uiso   1.00
C11    C     0.45561   0.21358   0.18846   0.00000  Uiso   1.00
C12    C     0.25041   0.26662   0.18226   0.00000  Uiso   1.00
C13    C     0.04439   0.11976   0.14488   0.00000  Uiso   1.00
C14    C     0.47257   0.07142   0.12586   0.00000  Uiso   1.00
C15    C     0.02743   0.26191   0.20748   0.00000  Uiso   1.00
C16    C     0.37552   0.07619   0.10271   0.00000  Uiso   1.00
C17    C     0.12448   0.25715   0.23060   0.00000  Uiso   1.00
C18    C     0.01856   0.07288   0.12433   0.00000  Uiso   1.00
C19    C     0.48144   0.26046   0.20901   0.00000  Uiso   1.00
C20    C     0.25257   0.01096   0.14244   0.00000  Uiso   1.00
C21    C     0.24743   0.32237   0.19089   0.00000  Uiso   1.00
C22    C     0.16470   0.16674   0.16789   0.00000  Uiso   1.00
C23    C     0.33531   0.16659   0.16544   0.00000  Uiso   1.00
C24    C     0.40914   0.21403   0.18831   0.00000  Uiso   1.00
Cu25   Cu    0.25501   0.17246   0.22813   0.00000  Uiso   1.00
Cu26   Cu    0.24500   0.16087   0.10521   0.00000  Uiso   1.00
H27    H     0.03409   0.03606   0.10946   0.00000  Uiso   1.00
H28    H     0.23380   0.33008   0.27770   0.00000  Uiso   1.00
H29    H     0.46591   0.29727   0.22388   0.00000  Uiso   1.00
H30    H     0.21509   0.12650   0.31620   0.00000  Uiso   1.00
H31    H     0.28492   0.20684   0.01714   0.00000  Uiso   1.00
H32    H     0.35804   0.25899   0.19906   0.00000  Uiso   1.00
H33    H     0.14196   0.07434   0.13428   0.00000  Uiso   1.00
H34    H     0.43092   0.02236   0.14680   0.00000  Uiso   1.00
H35    H     0.06907   0.31098   0.18653   0.00000  Uiso   1.00
H36    H     0.26621   0.00325   0.05563   0.00000  Uiso   1.00
N37    N     0.23745   0.15214   0.01284   0.00000  Uiso   1.00
N38    N     0.26256   0.18119   0.32049   0.00000  Uiso   1.00
N39    N     0.35327   0.04088   0.07462   0.00000  Uiso   1.00
N40    N     0.14673   0.29247   0.25867   0.00000  Uiso   1.00
O41    O     0.25326   0.09538   0.20659   0.00000  Uiso   1.00
O42    O     0.10981   0.07233   0.12134   0.00000  Uiso   1.00
O43    O     0.45096   0.02264   0.11319   0.00000  Uiso   1.00
O44    O     0.04904   0.31069   0.22016   0.00000  Uiso   1.00
O45    O     0.26202   0.31427   0.08533   0.00000  Uiso   1.00
O46    O     0.23798   0.01906   0.24800   0.00000  Uiso   1.00
O47    O     0.24675   0.23796   0.12674   0.00000  Uiso   1.00
O48    O     0.24480   0.08559   0.10279   0.00000  Uiso   1.00
O49    O     0.25520   0.24774   0.23055   0.00000  Uiso   1.00
O50    O     0.18936   0.17155   0.21857   0.00000  Uiso   1.00
O51    O     0.31065   0.16179   0.11476   0.00000  Uiso   1.00
O52    O     0.18090   0.16176   0.11477   0.00000  Uiso   1.00
O53    O     0.31910   0.17157   0.21857   0.00000  Uiso   1.00
O54    O     0.39019   0.26100   0.21200   0.00000  Uiso   1.00
C55    C     0.74959   0.06672   0.15107   0.00000  Uiso   1.00
C56    C     0.59086   0.11930   0.14503   0.00000  Uiso   1.00
C57    C     0.88338   0.16730   0.16290   0.00000  Uiso   1.00
C58    C     0.61662   0.16603   0.17044   0.00000  Uiso   1.00
C59    C     0.90352   0.12060   0.13764   0.00000  Uiso   1.00
C60    C     0.59648   0.21274   0.19569   0.00000  Uiso   1.00
C61    C     0.95044   0.11879   0.14329   0.00000  Uiso   1.00
C62    C     0.54956   0.21454   0.19004   0.00000  Uiso   1.00
C63    C     0.97647   0.16639   0.16626   0.00000  Uiso   1.00
C64    C     0.52353   0.16695   0.16708   0.00000  Uiso   1.00
C65    C     0.95561   0.21358   0.18846   0.00000  Uiso   1.00
C66    C     0.75041   0.26662   0.18226   0.00000  Uiso   1.00
C67    C     0.54439   0.11976   0.14488   0.00000  Uiso   1.00
C68    C     0.97257   0.07142   0.12586   0.00000  Uiso   1.00
C69    C     0.52743   0.26191   0.20748   0.00000  Uiso   1.00
C70    C     0.87552   0.07619   0.10271   0.00000  Uiso   1.00
C71    C     0.62448   0.25715   0.23060   0.00000  Uiso   1.00
C72    C     0.51856   0.07288   0.12433   0.00000  Uiso   1.00
C73    C     0.98144   0.26046   0.20901   0.00000  Uiso   1.00
C74    C     0.75257   0.01096   0.14244   0.00000  Uiso   1.00
C75    C     0.74743   0.32237   0.19089   0.00000  Uiso   1.00
C76    C     0.66470   0.16674   0.16789   0.00000  Uiso   1.00
C77    C     0.83531   0.16659   0.16544   0.00000  Uiso   1.00
C78    C     0.90914   0.21403   0.18831   0.00000  Uiso   1.00
Cu79   Cu    0.75501   0.17246   0.22813   0.00000  Uiso   1.00
Cu80   Cu    0.74500   0.16087   0.10521   0.00000  Uiso   1.00
H81    H     0.53409   0.03606   0.10946   0.00000  Uiso   1.00
H82    H     0.73380   0.33008   0.27770   0.00000  Uiso   1.00
H83    H     0.96591   0.29727   0.22388   0.00000  Uiso   1.00
H84    H     0.71509   0.12650   0.31620   0.00000  Uiso   1.00
H85    H     0.78492   0.20684   0.01714   0.00000  Uiso   1.00
H86    H     0.85804   0.25899   0.19906   0.00000  Uiso   1.00
H87    H     0.64196   0.07434   0.13428   0.00000  Uiso   1.00
H88    H     0.93092   0.02236   0.14680   0.00000  Uiso   1.00
H89    H     0.56907   0.31098   0.18653   0.00000  Uiso   1.00
H90    H     0.76621   0.00325   0.05563   0.00000  Uiso   1.00
N91    N     0.73745   0.15214   0.01284   0.00000  Uiso   1.00
N92    N     0.76256   0.18119   0.32049   0.00000  Uiso   1.00
N93    N     0.85327   0.04088   0.07462   0.00000  Uiso   1.00
N94    N     0.64673   0.29247   0.25867   0.00000  Uiso   1.00
O95    O     0.75326   0.09538   0.20659   0.00000  Uiso   1.00
O96    O     0.60981   0.07233   0.12134   0.00000  Uiso   1.00
O97    O     0.95096   0.02264   0.11319   0.00000  Uiso   1.00
O98    O     0.54904   0.31069   0.22016   0.00000  Uiso   1.00
O99    O     0.76202   0.31427   0.08533   0.00000  Uiso   1.00
O100   O     0.73798   0.01906   0.24800   0.00000  Uiso   1.00
O101   O     0.74675   0.23796   0.12674   0.00000  Uiso   1.00
O102   O     0.74480   0.08559   0.10279   0.00000  Uiso   1.00
O103   O     0.75520   0.24774   0.23055   0.00000  Uiso   1.00
O104   O     0.68936   0.17155   0.21857   0.00000  Uiso   1.00
O105   O     0.81065   0.16179   0.11476   0.00000  Uiso   1.00
O106   O     0.68090   0.16176   0.11477   0.00000  Uiso   1.00
O107   O     0.81910   0.17157   0.21857   0.00000  Uiso   1.00
O108   O     0.89019   0.26100   0.21200   0.00000  Uiso   1.00
C109   C     0.24959   0.40005   0.15107   0.00000  Uiso   1.00
C110   C     0.09086   0.45263   0.14503   0.00000  Uiso   1.00
C111   C     0.38338   0.50063   0.16290   0.00000  Uiso   1.00
C112   C     0.11662   0.49937   0.17044   0.00000  Uiso   1.00
C113   C     0.40352   0.45393   0.13764   0.00000  Uiso   1.00
C114   C     0.09648   0.54607   0.19569   0.00000  Uiso   1.00
C115   C     0.45044   0.45213   0.14329   0.00000  Uiso   1.00
C116   C     0.04956   0.54787   0.19004   0.00000  Uiso   1.00
C117   C     0.47647   0.49972   0.16626   0.00000  Uiso   1.00
C118   C     0.02353   0.50028   0.16708   0.00000  Uiso   1.00
C119   C     0.45561   0.54691   0.18846   0.00000  Uiso   1.00
C120   C     0.25041   0.59995   0.18226   0.00000  Uiso   1.00
C121   C     0.04439   0.45309   0.14488   0.00000  Uiso   1.00
C122   C     0.47257   0.40476   0.12586   0.00000  Uiso   1.00
C123   C     0.02743   0.59524   0.20748   0.00000  Uiso   1.00
C124   C     0.37552   0.40953   0.10271   0.00000  Uiso   1.00
C125   C     0.12448   0.59048   0.23060   0.00000  Uiso   1.00
C126   C     0.01856   0.40621   0.12433   0.00000  Uiso   1.00
C127   C     0.48144   0.59379   0.20901   0.00000  Uiso   1.00
C128   C     0.25257   0.34430   0.14244   0.00000  Uiso   1.00
C129   C     0.24743   0.65570   0.19089   0.00000  Uiso   1.00
C130   C     0.16470   0.50008   0.16789   0.00000  Uiso   1.00
C131   C     0.33531   0.49992   0.16544   0.00000  Uiso   1.00
C132   C     0.40914   0.54737   0.18831   0.00000  Uiso   1.00
Cu133  Cu    0.25501   0.50579   0.22813   0.00000  Uiso   1.00
Cu134  Cu    0.24500   0.49421   0.10521   0.00000  Uiso   1.00
H135   H     0.03409   0.36939   0.10946   0.00000  Uiso   1.00
H136   H     0.23380   0.66342   0.27770   0.00000  Uiso   1.00
H137   H     0.46591   0.63061   0.22388   0.00000  Uiso   1.00
H138   H     0.21509   0.45983   0.31620   0.00000  Uiso   1.00
H139   H     0.28492   0.54017   0.01714   0.00000  Uiso   1.00
H140   H     0.35804   0.59232   0.19906   0.00000  Uiso   1.00
H141   H     0.14196   0.40768   0.13428   0.00000  Uiso   1.00
H142   H     0.43092   0.35569   0.14680   0.00000  Uiso   1.00
H143   H     0.06907   0.64431   0.18653   0.00000  Uiso   1.00
H144   H     0.26621   0.33659   0.05563   0.00000  Uiso   1.00
N145   N     0.23745   0.48547   0.01284   0.00000  Uiso   1.00
N146   N     0.26256   0.51453   0.32049   0.00000  Uiso   1.00
N147   N     0.35327   0.37421   0.07462   0.00000  Uiso   1.00
N148   N     0.14673   0.62580   0.25867   0.00000  Uiso   1.00
O149   O     0.25326   0.42871   0.20659   0.00000  Uiso   1.00
O150   O     0.10981   0.40566   0.12134   0.00000  Uiso   1.00
O151   O     0.45096   0.35598   0.11319   0.00000  Uiso   1.00
O152   O     0.04904   0.64402   0.22016   0.00000  Uiso   1.00
O153   O     0.26202   0.64761   0.08533   0.00000  Uiso   1.00
O154   O     0.23798   0.35240   0.24800   0.00000  Uiso   1.00
O155   O     0.24675   0.57129   0.12674   0.00000  Uiso   1.00
O156   O     0.24480   0.41892   0.10279   0.00000  Uiso   1.00
O157   O     0.25520   0.58108   0.23055   0.00000  Uiso   1.00
O158   O     0.18936   0.50488   0.21857   0.00000  Uiso   1.00
O159   O     0.31065   0.49512   0.11476   0.00000  Uiso   1.00
O160   O     0.18090   0.49510   0.11477   0.00000  Uiso   1.00
O161   O     0.31910   0.50490   0.21857   0.00000  Uiso   1.00
O162   O     0.39019   0.59434   0.21200   0.00000  Uiso   1.00
C163   C     0.74959   0.40005   0.15107   0.00000  Uiso   1.00
C164   C     0.59086   0.45263   0.14503   0.00000  Uiso   1.00
C165   C     0.88338   0.50063   0.16290   0.00000  Uiso   1.00
C166   C     0.61662   0.49937   0.17044   0.00000  Uiso   1.00
C167   C     0.90352   0.45393   0.13764   0.00000  Uiso   1.00
C168   C     0.59648   0.54607   0.19569   0.00000  Uiso   1.00
C169   C     0.95044   0.45213   0.14329   0.00000  Uiso   1.00
C170   C     0.54956   0.54787   0.19004   0.00000  Uiso   1.00
C171   C     0.97647   0.49972   0.16626   0.00000  Uiso   1.00
C172   C     0.52353   0.50028   0.16708   0.00000  Uiso   1.00
C173   C     0.95561   0.54691   0.18846   0.00000  Uiso   1.00
C174   C     0.75041   0.59995   0.18226   0.00000  Uiso   1.00
C175   C     0.54439   0.45309   0.14488   0.00000  Uiso   1.00
C176   C     0.97257   0.40476   0.12586   0.00000  Uiso   1.00
C177   C     0.52743   0.59524   0.20748   0.00000  Uiso   1.00
C178   C     0.87552   0.40953   0.10271   0.00000  Uiso   1.00
C179   C     0.62448   0.59048   0.23060   0.00000  Uiso   1.00
C180   C     0.51856   0.40621   0.12433   0.00000  Uiso   1.00
C181   C     0.98144   0.59379   0.20901   0.00000  Uiso   1.00
C182   C     0.75257   0.34430   0.14244   0.00000  Uiso   1.00
C183   C     0.74743   0.65570   0.19089   0.00000  Uiso   1.00
C184   C     0.66470   0.50008   0.16789   0.00000  Uiso   1.00
C185   C     0.83531   0.49992   0.16544   0.00000  Uiso   1.00
C186   C     0.90914   0.54737   0.18831   0.00000  Uiso   1.00
Cu187  Cu    0.75501   0.50579   0.22813   0.00000  Uiso   1.00
Cu188  Cu    0.74500   0.49421   0.10521   0.00000  Uiso   1.00
H189   H     0.53409   0.36939   0.10946   0.00000  Uiso   1.00
H190   H     0.73380   0.66342   0.27770   0.00000  Uiso   1.00
H191   H     0.96591   0.63061   0.22388   0.00000  Uiso   1.00
H192   H     0.71509   0.45983   0.31620   0.00000  Uiso   1.00
H193   H     0.78492   0.54017   0.01714   0.00000  Uiso   1.00
H194   H     0.85804   0.59232   0.19906   0.00000  Uiso   1.00
H195   H     0.64196   0.40768   0.13428   0.00000  Uiso   1.00
H196   H     0.93092   0.35569   0.14680   0.00000  Uiso   1.00
H197   H     0.56907   0.64431   0.18653   0.00000  Uiso   1.00
H198   H     0.76621   0.33659   0.05563   0.00000  Uiso   1.00
N199   N     0.73745   0.48547   0.01284   0.00000  Uiso   1.00
N200   N     0.76256   0.51453   0.32049   0.00000  Uiso   1.00
N201   N     0.85327   0.37421   0.07462   0.00000  Uiso   1.00
N202   N     0.64673   0.62580   0.25867   0.00000  Uiso   1.00
O203   O     0.75326   0.42871   0.20659   0.00000  Uiso   1.00
O204   O     0.60981   0.40566   0.12134   0.00000  Uiso   1.00
O205   O     0.95096   0.35598   0.11319   0.00000  Uiso   1.00
O206   O     0.54904   0.64402   0.22016   0.00000  Uiso   1.00
O207   O     0.76202   0.64761   0.08533   0.00000  Uiso   1.00
O208   O     0.73798   0.35240   0.24800   0.00000  Uiso   1.00
O209   O     0.74675   0.57129   0.12674   0.00000  Uiso   1.00
O210   O     0.74480   0.41892   0.10279   0.00000  Uiso   1.00
O211   O     0.75520   0.58108   0.23055   0.00000  Uiso   1.00
O212   O     0.68936   0.50488   0.21857   0.00000  Uiso   1.00
O213   O     0.81065   0.49512   0.11476   0.00000  Uiso   1.00
O214   O     0.68090   0.49510   0.11477   0.00000  Uiso   1.00
O215   O     0.81910   0.50490   0.21857   0.00000  Uiso   1.00
O216   O     0.89019   0.59434   0.21200   0.00000  Uiso   1.00
C217   C     0.24959   0.73338   0.15107   0.00000  Uiso   1.00
C218   C     0.09086   0.78597   0.14503   0.00000  Uiso   1.00
C219   C     0.38338   0.83397   0.16290   0.00000  Uiso   1.00
C220   C     0.11662   0.83270   0.17044   0.00000  Uiso   1.00
C221   C     0.40352   0.78727   0.13764   0.00000  Uiso   1.00
C222   C     0.09648   0.87940   0.19569   0.00000  Uiso   1.00
C223   C     0.45044   0.78546   0.14329   0.00000  Uiso   1.00
C224   C     0.04956   0.88121   0.19004   0.00000  Uiso   1.00
C225   C     0.47647   0.83305   0.16626   0.00000  Uiso   1.00
C226   C     0.02353   0.83361   0.16708   0.00000  Uiso   1.00
C227   C     0.45561   0.88024   0.18846   0.00000  Uiso   1.00
C228   C     0.25041   0.93328   0.18226   0.00000  Uiso   1.00
C229   C     0.04439   0.78642   0.14488   0.00000  Uiso   1.00
C230   C     0.47257   0.73809   0.12586   0.00000  Uiso   1.00
C231   C     0.02743   0.92858   0.20748   0.00000  Uiso   1.00
C232   C     0.37552   0.74286   0.10271   0.00000  Uiso   1.00
C233   C     0.12448   0.92381   0.23060   0.00000  Uiso   1.00
C234   C     0.01856   0.73954   0.12433   0.00000  Uiso   1.00
C235   C     0.48144   0.92712   0.20901   0.00000  Uiso   1.00
C236   C     0.25257   0.67763   0.14244   0.00000  Uiso   1.00
C237   C     0.24743   0.98904   0.19089   0.00000  Uiso   1.00
C238   C     0.16470   0.83341   0.16789   0.00000  Uiso   1.00
C239   C     0.33531   0.83326   0.16544   0.00000  Uiso   1.00
C240   C     0.40914   0.88070   0.18831   0.00000  Uiso   1.00
Cu241  Cu    0.25501   0.83913   0.22813   0.00000  Uiso   1.00
Cu242  Cu    0.24500   0.82754   0.10521   0.00000  Uiso   1.00
H243   H     0.03409   0.70272   0.10946   0.00000  Uiso   1.00
H244   H     0.23380   0.99675   0.27770   0.00000  Uiso   1.00
H245   H     0.46591   0.96394   0.22388   0.00000  Uiso   1.00
H246   H     0.21509   0.79316   0.31620   0.00000  Uiso   1.00
H247   H     0.28492   0.87350   0.01714   0.00000  Uiso   1.00
H248   H     0.35804   0.92566   0.19906   0.00000  Uiso   1.00
H249   H     0.14196   0.74101   0.13428   0.00000  Uiso   1.00
H250   H     0.43092   0.68903   0.14680   0.00000  Uiso   1.00
H251   H     0.06907   0.97765   0.18653   0.00000  Uiso   1.00
H252   H     0.26621   0.66992   0.05563   0.00000  Uiso   1.00
N253   N     0.23745   0.81881   0.01284   0.00000  Uiso   1.00
N254   N     0.26256   0.84786   0.32049   0.00000  Uiso   1.00
N255   N     0.35327   0.70755   0.07462   0.00000  Uiso   1.00
N256   N     0.14673   0.95913   0.25867   0.00000  Uiso   1.00
O257   O     0.25326   0.76204   0.20659   0.00000  Uiso   1.00
O258   O     0.10981   0.73899   0.12134   0.00000  Uiso   1.00
O259   O     0.45096   0.68931   0.11319   0.00000  Uiso   1.00
O260   O     0.04904   0.97736   0.22016   0.00000  Uiso   1.00
O261   O     0.26202   0.98094   0.08533   0.00000  Uiso   1.00
O262   O     0.23798   0.68573   0.24800   0.00000  Uiso   1.00
O263   O     0.24675   0.90462   0.12674   0.00000  Uiso   1.00
O264   O     0.24480   0.75226   0.10279   0.00000  Uiso   1.00
O265   O     0.25520   0.91441   0.23055   0.00000  Uiso   1.00
O266   O     0.18936   0.83821   0.21857   0.00000  Uiso   1.00
O267   O     0.31065   0.82845   0.11476   0.00000  Uiso   1.00
O268   O     0.18090   0.82843   0.11477   0.00000  Uiso   1.00
O269   O     0.31910   0.83824   0.21857   0.00000  Uiso   1.00
O270   O     0.39019   0.92767   0.21200   0.00000  Uiso   1.00
C271   C     0.74959   0.73338   0.15107   0.00000  Uiso   1.00
C272   C     0.59086   0.78597   0.14503   0.00000  Uiso   1.00
C273   C     0.88338   0.83397   0.16290   0.00000  Uiso   1.00
C274   C     0.61662   0.83270   0.17044   0.00000  Uiso   1.00
C275   C     0.90352   0.78727   0.13764   0.00000  Uiso   1.00
C276   C     0.59648   0.87940   0.19569   0.00000  Uiso   1.00
C277   C     0.95044   0.78546   0.14329   0.00000  Uiso   1.00
C278   C     0.54956   0.88121   0.19004   0.00000  Uiso   1.00
C279   C     0.97647   0.83305   0.16626   0.00000  Uiso   1.00
C280   C     0.52353   0.83361   0.16708   0.00000  Uiso   1.00
C281   C     0.95561   0.88024   0.18846   0.00000  Uiso   1.00
C282   C     0.75041   0.93328   0.18226   0.00000  Uiso   1.00
C283   C     0.54439   0.78642   0.14488   0.00000  Uiso   1.00
C284   C     0.97257   0.73809   0.12586   0.00000  Uiso   1.00
C285   C     0.52743   0.92858   0.20748   0.00000  Uiso   1.00
C286   C     0.87552   0.74286   0.10271   0.00000  Uiso   1.00
C287   C     0.62448   0.92381   0.23060   0.00000  Uiso   1.00
C288   C     0.51856   0.73954   0.12433   0.00000  Uiso   1.00
C289   C     0.98144   0.92712   0.20901   0.00000  Uiso   1.00
C290   C     0.75257   0.67763   0.14244   0.00000  Uiso   1.00
C291   C     0.74743   0.98904   0.19089   0.00000  Uiso   1.00
C292   C     0.66470   0.83341   0.16789   0.00000  Uiso   1.00
C293   C     0.83531   0.83326   0.16544   0.00000  Uiso   1.00
C294   C     0.90914   0.88070   0.18831   0.00000  Uiso   1.00
Cu295  Cu    0.75501   0.83913   0.22813   0.00000  Uiso   1.00
Cu296  Cu    0.74500   0.82754   0.10521   0.00000  Uiso   1.00
H297   H     0.53409   0.70272   0.10946   0.00000  Uiso   1.00
H298   H     0.73380   0.99675   0.27770   0.00000  Uiso   1.00
H299   H     0.96591   0.96394   0.22388   0.00000  Uiso   1.00
H300   H     0.71509   0.79316   0.31620   0.00000  Uiso   1.00
H301   H     0.78492   0.87350   0.01714   0.00000  Uiso   1.00
H302   H     0.85804   0.92566   0.19906   0.00000  Uiso   1.00
H303   H     0.64196   0.74101   0.13428   0.00000  Uiso   1.00
H304   H     0.93092   0.68903   0.14680   0.00000  Uiso   1.00
H305   H     0.56907   0.97765   0.18653   0.00000  Uiso   1.00
H306   H     0.76621   0.66992   0.05563   0.00000  Uiso   1.00
N307   N     0.73745   0.81881   0.01284   0.00000  Uiso   1.00
N308   N     0.76256   0.84786   0.32049   0.00000  Uiso   1.00
N309   N     0.85327   0.70755   0.07462   0.00000  Uiso   1.00
N310   N     0.64673   0.95913   0.25867   0.00000  Uiso   1.00
O311   O     0.75326   0.76204   0.20659   0.00000  Uiso   1.00
O312   O     0.60981   0.73899   0.12134   0.00000  Uiso   1.00
O313   O     0.95096   0.68931   0.11319   0.00000  Uiso   1.00
O314   O     0.54904   0.97736   0.22016   0.00000  Uiso   1.00
O315   O     0.76202   0.98094   0.08533   0.00000  Uiso   1.00
O316   O     0.73798   0.68573   0.24800   0.00000  Uiso   1.00
O317   O     0.74675   0.90462   0.12674   0.00000  Uiso   1.00
O318   O     0.74480   0.75226   0.10279   0.00000  Uiso   1.00
O319   O     0.75520   0.91441   0.23055   0.00000  Uiso   1.00
O320   O     0.68936   0.83821   0.21857   0.00000  Uiso   1.00
O321   O     0.81065   0.82845   0.11476   0.00000  Uiso   1.00
O322   O     0.68090   0.82843   0.11477   0.00000  Uiso   1.00
O323   O     0.81910   0.83824   0.21857   0.00000  Uiso   1.00
O324   O     0.89019   0.92767   0.21200   0.00000  Uiso   1.00
C325   C     0.24959   0.06672   0.48441   0.00000  Uiso   1.00
C326   C     0.09086   0.11930   0.47836   0.00000  Uiso   1.00
C327   C     0.38338   0.16730   0.49623   0.00000  Uiso   1.00
C328   C     0.11662   0.16603   0.50377   0.00000  Uiso   1.00
C329   C     0.40352   0.12060   0.47097   0.00000  Uiso   1.00
C330   C     0.09648   0.21274   0.52903   0.00000  Uiso   1.00
C331   C     0.45044   0.11879   0.47663   0.00000  Uiso   1.00
C332   C     0.04956   0.21454   0.52338   0.00000  Uiso   1.00
C333   C     0.47647   0.16639   0.49960   0.00000  Uiso   1.00
C334   C     0.02353   0.16695   0.50041   0.00000  Uiso   1.00
C335   C     0.45561   0.21358   0.52179   0.00000  Uiso   1.00
C336   C     0.25041   0.26662   0.51559   0.00000  Uiso   1.00
C337   C     0.04439   0.11976   0.47822   0.00000  Uiso   1.00
C338   C     0.47257   0.07142   0.45919   0.00000  Uiso   1.00
C339   C     0.02743   0.26191   0.54082   0.00000  Uiso   1.00
C340   C     0.37552   0.07619   0.43605   0.00000  Uiso   1.00
C341   C     0.12448   0.25715   0.56393   0.00000  Uiso   1.00
C342   C     0.01856   0.07288   0.45766   0.00000  Uiso   1.00
C343   C     0.48144   0.26046   0.54234   0.00000  Uiso   1.00
C344   C     0.25257   0.01096   0.47577   0.00000  Uiso   1.00
C345   C     0.24743   0.32237   0.52423   0.00000  Uiso   1.00
C346   C     0.16470   0.16674   0.50122   0.00000  Uiso   1.00
C347   C     0.33531   0.16659   0.49878   0.00000  Uiso   1.00
C348   C     0.40914   0.21403   0.52165   0.00000  Uiso   1.00
Cu349  Cu    0.25501   0.17246   0.56146   0.00000  Uiso   1.00
Cu350  Cu    0.24500   0.16087   0.43854   0.00000  Uiso   1.00
H351   H     0.03409   0.03606   0.44280   0.00000  Uiso   1.00
H352   H     0.23380   0.33008   0.61104   0.00000  Uiso   1.00
H353   H     0.46591   0.29727   0.55721   0.00000  Uiso   1.00
H354   H     0.21509   0.12650   0.64953   0.00000  Uiso   1.00
H355   H     0.28492   0.20684   0.35047   0.00000  Uiso   1.00
H356   H     0.35804   0.25899   0.53239   0.00000  Uiso   1.00
H357   H     0.14196   0.07434   0.46761   0.00000  Uiso   1.00
H358   H     0.43092   0.02236   0.48014   0.00000  Uiso   1.00
H359   H     0.06907   0.31098   0.51986   0.00000  Uiso   1.00
H360   H     0.26621   0.00325   0.38896   0.00000  Uiso   1.00
N361   N     0.23745   0.15214   0.34617   0.00000  Uiso   1.00
N362   N     0.26256   0.18119   0.65383   0.00000  Uiso   1.00
N363   N     0.35327   0.04088   0.40795   0.00000  Uiso   1.00
N364   N     0.14673   0.29247   0.59201   0.00000  Uiso   1.00
O365   O     0.25326   0.09538   0.53992   0.00000  Uiso   1.00
O366   O     0.10981   0.07233   0.45467   0.00000  Uiso   1.00
O367   O     0.45096   0.02264   0.44652   0.00000  Uiso   1.00
O368   O     0.04904   0.31069   0.55349   0.00000  Uiso   1.00
O369   O     0.26202   0.31427   0.41867   0.00000  Uiso   1.00
O370   O     0.23798   0.01906   0.58134   0.00000  Uiso   1.00
O371   O     0.24675   0.23796   0.46008   0.00000  Uiso   1.00
O372   O     0.24480   0.08559   0.43612   0.00000  Uiso   1.00
O373   O     0.25520   0.24774   0.56388   0.00000  Uiso   1.00
O374   O     0.18936   0.17155   0.55191   0.00000  Uiso   1.00
O375   O     0.31065   0.16179   0.44809   0.00000  Uiso   1.00
O376   O     0.18090   0.16176   0.44810   0.00000  Uiso   1.00
O377   O     0.31910   0.17157   0.55190   0.00000  Uiso   1.00
O378   O     0.39019   0.26100   0.54533   0.00000  Uiso   1.00
C379   C     0.74959   0.06672   0.48441   0.00000  Uiso   1.00
C380   C     0.59086   0.11930   0.47836   0.00000  Uiso   1.00
C381   C     0.88338   0.16730   0.49623   0.00000  Uiso   1.00
C382   C     0.61662   0.16603   0.50377   0.00000  Uiso   1.00
C383   C     0.90352   0.12060   0.47097   0.00000  Uiso   1.00
C384   C     0.59648   0.21274   0.52903   0.00000  Uiso   1.00
C385   C     0.95044   0.11879   0.47663   0.00000  Uiso   1.00
C386   C     0.54956   0.21454   0.52338   0.00000  Uiso   1.00
C387   C     0.97647   0.16639   0.49960   0.00000  Uiso   1.00
C388   C     0.52353   0.16695   0.50041   0.00000  Uiso   1.00
C389   C     0.95561   0.21358   0.52179   0.00000  Uiso   1.00
C390   C     0.75041   0.26662   0.51559   0.00000  Uiso   1.00
C391   C     0.54439   0.11976   0.47822   0.00000  Uiso   1.00
C392   C     0.97257   0.07142   0.45919   0.00000  Uiso   1.00
C393   C     0.52743   0.26191   0.54082   0.00000  Uiso   1.00
C394   C     0.87552   0.07619   0.43605   0.00000  Uiso   1.00
C395   C     0.62448   0.25715   0.56393   0.00000  Uiso   1.00
C396   C     0.51856   0.07288   0.45766   0.00000  Uiso   1.00
C397   C     0.98144   0.26046   0.54234   0.00000  Uiso   1.00
C398   C     0.75257   0.01096   0.47577   0.00000  Uiso   1.00
C399   C     0.74743   0.32237   0.52423   0.00000  Uiso   1.00
C400   C     0.66470   0.16674   0.50122   0.00000  Uiso   1.00
C401   C     0.83531   0.16659   0.49878   0.00000  Uiso   1.00
C402   C     0.90914   0.21403   0.52165   0.00000  Uiso   1.00
Cu403  Cu    0.75501   0.17246   0.56146   0.00000  Uiso   1.00
Cu404  Cu    0.74500   0.16087   0.43854   0.00000  Uiso   1.00
H405   H     0.53409   0.03606   0.44280   0.00000  Uiso   1.00
H406   H     0.73380   0.33008   0.61104   0.00000  Uiso   1.00
H407   H     0.96591   0.29727   0.55721   0.00000  Uiso   1.00
H408   H     0.71509   0.12650   0.64953   0.00000  Uiso   1.00
H409   H     0.78492   0.20684   0.35047   0.00000  Uiso   1.00
H410   H     0.85804   0.25899   0.53239   0.00000  Uiso   1.00
H411   H     0.64196   0.07434   0.46761   0.00000  Uiso   1.00
H412   H     0.93092   0.02236   0.48014   0.00000  Uiso   1.00
H413   H     0.56907   0.31098   0.51986   0.00000  Uiso   1.00
H414   H     0.76621   0.00325   0.38896   0.00000  Uiso   1.00
N415   N     0.73745   0.15214   0.34617   0.00000  Uiso   1.00
N416   N     0.76256   0.18119   0.65383   0.00000  Uiso   1.00
N417   N     0.85327   0.04088   0.40795   0.00000  Uiso   1.00
N418   N     0.64673   0.29247   0.59201   0.00000  Uiso   1.00
O419   O     0.75326   0.09538   0.53992   0.00000  Uiso   1.00
O420   O     0.60981   0.07233   0.45467   0.00000  Uiso   1.00
O421   O     0.95096   0.02264   0.44652   0.00000  Uiso   1.00
O422   O     0.54904   0.31069   0.55349   0.00000  Uiso   1.00
O423   O     0.76202   0.31427   0.41867   0.00000  Uiso   1.00
O424   O     0.73798   0.01906   0.58134   0.00000  Uiso   1.00
O425   O     0.74675   0.23796   0.46008   0.00000  Uiso   1.00
O426   O     0.74480   0.08559   0.43612   0.00000  Uiso   1.00
O427   O     0.75520   0.24774   0.56388   0.00000  Uiso   1.00
O428   O     0.68936   0.17155   0.55191   0.00000  Uiso   1.00
O429   O     0.81065   0.16179   0.44809   0.00000  Uiso   1.00
O430   O     0.68090   0.16176   0.44810   0.00000  Uiso   1.00
O431   O     0.81910   0.17157   0.55190   0.00000  Uiso   1.00
O432   O     0.89019   0.26100   0.54533   0.00000  Uiso   1.00
C433   C     0.24959   0.40005   0.48441   0.00000  Uiso   1.00
C434   C     0.09086   0.45263   0.47836   0.00000  Uiso   1.00
C435   C     0.38338   0.50063   0.49623   0.00000  Uiso   1.00
C436   C     0.11662   0.49937   0.50377   0.00000  Uiso   1.00
C437   C     0.40352   0.45393   0.47097   0.00000  Uiso   1.00
C438   C     0.09648   0.54607   0.52903   0.00000  Uiso   1.00
C439   C     0.45044   0.45213   0.47663   0.00000  Uiso   1.00
C440   C     0.04956   0.54787   0.52338   0.00000  Uiso   1.00
C441   C     0.47647   0.49972   0.49960   0.00000  Uiso   1.00
C442   C     0.02353   0.50028   0.50041   0.00000  Uiso   1.00
C443   C     0.45561   0.54691   0.52179   0.00000  Uiso   1.00
C444   C     0.25041   0.59995   0.51559   0.00000  Uiso   1.00
C445   C     0.04439   0.45309   0.47822   0.00000  Uiso   1.00
C446   C     0.47257   0.40476   0.45919   0.00000  Uiso   1.00
C447   C     0.02743   0.59524   0.54082   0.00000  Uiso   1.00
C448   C     0.37552   0.40953   0.43605   0.00000  Uiso   1.00
C449   C     0.12448   0.59048   0.56393   0.00000  Uiso   1.00
C450   C     0.01856   0.40621   0.45766   0.00000  Uiso   1.00
C451   C     0.48144   0.59379   0.54234   0.00000  Uiso   1.00
C452   C     0.25257   0.34430   0.47577   0.00000  Uiso   1.00
C453   C     0.24743   0.65570   0.52423   0.00000  Uiso   1.00
C454   C     0.16470   0.50008   0.50122   0.00000  Uiso   1.00
C455   C     0.33531   0.49992   0.49878   0.00000  Uiso   1.00
C456   C     0.40914   0.54737   0.52165   0.00000  Uiso   1.00
Cu457  Cu    0.25501   0.50579   0.56146   0.00000  Uiso   1.00
Cu458  Cu    0.24500   0.49421   0.43854   0.00000  Uiso   1.00
H459   H     0.03409   0.36939   0.44280   0.00000  Uiso   1.00
H460   H     0.23380   0.66342   0.61104   0.00000  Uiso   1.00
H461   H     0.46591   0.63061   0.55721   0.00000  Uiso   1.00
H462   H     0.21509   0.45983   0.64953   0.00000  Uiso   1.00
H463   H     0.28492   0.54017   0.35047   0.00000  Uiso   1.00
H464   H     0.35804   0.59232   0.53239   0.00000  Uiso   1.00
H465   H     0.14196   0.40768   0.46761   0.00000  Uiso   1.00
H466   H     0.43092   0.35569   0.48014   0.00000  Uiso   1.00
H467   H     0.06907   0.64431   0.51986   0.00000  Uiso   1.00
H468   H     0.26621   0.33659   0.38896   0.00000  Uiso   1.00
N469   N     0.23745   0.48547   0.34617   0.00000  Uiso   1.00
N470   N     0.26256   0.51453   0.65383   0.00000  Uiso   1.00
N471   N     0.35327   0.37421   0.40795   0.00000  Uiso   1.00
N472   N     0.14673   0.62580   0.59201   0.00000  Uiso   1.00
O473   O     0.25326   0.42871   0.53992   0.00000  Uiso   1.00
O474   O     0.10981   0.40566   0.45467   0.00000  Uiso   1.00
O475   O     0.45096   0.35598   0.44652   0.00000  Uiso   1.00
O476   O     0.04904   0.64402   0.55349   0.00000  Uiso   1.00
O477   O     0.26202   0.64761   0.41867   0.00000  Uiso   1.00
O478   O     0.23798   0.35240   0.58134   0.00000  Uiso   1.00
O479   O     0.24675   0.57129   0.46008   0.00000  Uiso   1.00
O480   O     0.24480   0.41892   0.43612   0.00000  Uiso   1.00
O481   O     0.25520   0.58108   0.56388   0.00000  Uiso   1.00
O482   O     0.18936   0.50488   0.55191   0.00000  Uiso   1.00
O483   O     0.31065   0.49512   0.44809   0.00000  Uiso   1.00
O484   O     0.18090   0.49510   0.44810   0.00000  Uiso   1.00
O485   O     0.31910   0.50490   0.55190   0.00000  Uiso   1.00
O486   O     0.39019   0.59434   0.54533   0.00000  Uiso   1.00
C487   C     0.74959   0.40005   0.48441   0.00000  Uiso   1.00
C488   C     0.59086   0.45263   0.47836   0.00000  Uiso   1.00
C489   C     0.88338   0.50063   0.49623   0.00000  Uiso   1.00
C490   C     0.61662   0.49937   0.50377   0.00000  Uiso   1.00
C491   C     0.90352   0.45393   0.47097   0.00000  Uiso   1.00
C492   C     0.59648   0.54607   0.52903   0.00000  Uiso   1.00
C493   C     0.95044   0.45213   0.47663   0.00000  Uiso   1.00
C494   C     0.54956   0.54787   0.52338   0.00000  Uiso   1.00
C495   C     0.97647   0.49972   0.49960   0.00000  Uiso   1.00
C496   C     0.52353   0.50028   0.50041   0.00000  Uiso   1.00
C497   C     0.95561   0.54691   0.52179   0.00000  Uiso   1.00
C498   C     0.75041   0.59995   0.51559   0.00000  Uiso   1.00
C499   C     0.54439   0.45309   0.47822   0.00000  Uiso   1.00
C500   C     0.97257   0.40476   0.45919   0.00000  Uiso   1.00
C501   C     0.52743   0.59524   0.54082   0.00000  Uiso   1.00
C502   C     0.87552   0.40953   0.43605   0.00000  Uiso   1.00
C503   C     0.62448   0.59048   0.56393   0.00000  Uiso   1.00
C504   C     0.51856   0.40621   0.45766   0.00000  Uiso   1.00
C505   C     0.98144   0.59379   0.54234   0.00000  Uiso   1.00
C506   C     0.75257   0.34430   0.47577   0.00000  Uiso   1.00
C507   C     0.74743   0.65570   0.52423   0.00000  Uiso   1.00
C508   C     0.66470   0.50008   0.50122   0.00000  Uiso   1.00
C509   C     0.83531   0.49992   0.49878   0.00000  Uiso   1.00
C510   C     0.90914   0.54737   0.52165   0.00000  Uiso   1.00
Cu511  Cu    0.75501   0.50579   0.56146   0.00000  Uiso   1.00
Cu512  Cu    0.74500   0.49421   0.43854   0.00000  Uiso   1.00
H513   H     0.53409   0.36939   0.44280   0.00000  Uiso   1.00
H514   H     0.73380   0.66342   0.61104   0.00000  Uiso   1.00
H515   H     0.96591   0.63061   0.55721   0.00000  Uiso   1.00
H516   H     0.71509   0.45983   0.64953   0.00000  Uiso   1.00
H517   H     0.78492   0.54017   0.35047   0.00000  Uiso   1.00
H518   H     0.85804   0.59232   0.53239   0.00000  Uiso   1.00
H519   H     0.64196   0.40768   0.46761   0.00000  Uiso   1.00
H520   H     0.93092   0.35569   0.48014   0.00000  Uiso   1.00
H521   H     0.56907   0.64431   0.51986   0.00000  Uiso   1.00
H522   H     0.76621   0.33659   0.38896   0.00000  Uiso   1.00
N523   N     0.73745   0.48547   0.34617   0.00000  Uiso   1.00
N524   N     0.76256   0.51453   0.65383   0.00000  Uiso   1.00
N525   N     0.85327   0.37421   0.40795   0.00000  Uiso   1.00
N526   N     0.64673   0.62580   0.59201   0.00000  Uiso   1.00
O527   O     0.75326   0.42871   0.53992   0.00000  Uiso   1.00
O528   O     0.60981   0.40566   0.45467   0.00000  Uiso   1.00
O529   O     0.95096   0.35598   0.44652   0.00000  Uiso   1.00
O530   O     0.54904   0.64402   0.55349   0.00000  Uiso   1.00
O531   O     0.76202   0.64761   0.41867   0.00000  Uiso   1.00
O532   O     0.73798   0.35240   0.58134   0.00000  Uiso   1.00
O533   O     0.74675   0.57129   0.46008   0.00000  Uiso   1.00
O534   O     0.74480   0.41892   0.43612   0.00000  Uiso   1.00
O535   O     0.75520   0.58108   0.56388   0.00000  Uiso   1.00
O536   O     0.68936   0.50488   0.55191   0.00000  Uiso   1.00
O537   O     0.81065   0.49512   0.44809   0.00000  Uiso   1.00
O538   O     0.68090   0.49510   0.44810   0.00000  Uiso   1.00
O539   O     0.81910   0.50490   0.55190   0.00000  Uiso   1.00
O540   O     0.89019   0.59434   0.54533   0.00000  Uiso   1.00
C541   C     0.24959   0.73338   0.48441   0.00000  Uiso   1.00
C542   C     0.09086   0.78597   0.47836   0.00000  Uiso   1.00
C543   C     0.38338   0.83397   0.49623   0.00000  Uiso   1.00
C544   C     0.11662   0.83270   0.50377   0.00000  Uiso   1.00
C545   C     0.40352   0.78727   0.47097   0.00000  Uiso   1.00
C546   C     0.09648   0.87940   0.52903   0.00000  Uiso   1.00
C547   C     0.45044   0.78546   0.47663   0.00000  Uiso   1.00
C548   C     0.04956   0.88121   0.52338   0.00000  Uiso   1.00
C549   C     0.47647   0.83305   0.49960   0.00000  Uiso   1.00
C550   C     0.02353   0.83361   0.50041   0.00000  Uiso   1.00
C551   C     0.45561   0.88024   0.52179   0.00000  Uiso   1.00
C552   C     0.25041   0.93328   0.51559   0.00000  Uiso   1.00
C553   C     0.04439   0.78642   0.47822   0.00000  Uiso   1.00
C554   C     0.47257   0.73809   0.45919   0.00000  Uiso   1.00
C555   C     0.02743   0.92858   0.54082   0.00000  Uiso   1.00
C556   C     0.37552   0.74286   0.43605   0.00000  Uiso   1.00
C557   C     0.12448   0.92381   0.56393   0.00000  Uiso   1.00
C558   C     0.01856   0.73954   0.45766   0.00000  Uiso   1.00
C559   C     0.48144   0.92712   0.54234   0.00000  Uiso   1.00
C560   C     0.25257   0.67763   0.47577   0.00000  Uiso   1.00
C561   C     0.24743   0.98904   0.52423   0.00000  Uiso   1.00
C562   C     0.16470   0.83341   0.50122   0.00000  Uiso   1.00
C563   C     0.33531   0.83326   0.49878   0.00000  Uiso   1.00
C564   C     0.40914   0.88070   0.52165   0.00000  Uiso   1.00
Cu565  Cu    0.25501   0.83913   0.56146   0.00000  Uiso   1.00
Cu566  Cu    0.24500   0.82754   0.43854   0.00000  Uiso   1.00
H567   H     0.03409   0.70272   0.44280   0.00000  Uiso   1.00
H568   H     0.23380   0.99675   0.61104   0.00000  Uiso   1.00
H569   H     0.46591   0.96394   0.55721   0.00000  Uiso   1.00
H570   H     0.21509   0.79316   0.64953   0.00000  Uiso   1.00
H571   H     0.28492   0.87350   0.35047   0.00000  Uiso   1.00
H572   H     0.35804   0.92566   0.53239   0.00000  Uiso   1.00
H573   H     0.14196   0.74101   0.46761   0.00000  Uiso   1.00
H574   H     0.43092   0.68903   0.48014   0.00000  Uiso   1.00
H575   H     0.06907   0.97765   0.51986   0.00000  Uiso   1.00
H576   H     0.26621   0.66992   0.38896   0.00000  Uiso   1.00
N577   N     0.23745   0.81881   0.34617   0.00000  Uiso   1.00
N578   N     0.26256   0.84786   0.65383   0.00000  Uiso   1.00
N579   N     0.35327   0.70755   0.40795   0.00000  Uiso   1.00
N580   N     0.14673   0.95913   0.59201   0.00000  Uiso   1.00
O581   O     0.25326   0.76204   0.53992   0.00000  Uiso   1.00
O582   O     0.10981   0.73899   0.45467   0.00000  Uiso   1.00
O583   O     0.45096   0.68931   0.44652   0.00000  Uiso   1.00
O584   O     0.04904   0.97736   0.55349   0.00000  Uiso   1.00
O585   O     0.26202   0.98094   0.41867   0.00000  Uiso   1.00
O586   O     0.23798   0.68573   0.58134   0.00000  Uiso   1.00
O587   O     0.24675   0.90462   0.46008   0.00000  Uiso   1.00
O588   O     0.24480   0.75226   0.43612   0.00000  Uiso   1.00
O589   O     0.25520   0.91441   0.56388   0.00000  Uiso   1.00
O590   O     0.18936   0.83821   0.55191   0.00000  Uiso   1.00
O591   O     0.31065   0.82845   0.44809   0.00000  Uiso   1.00
O592   O     0.18090   0.82843   0.44810   0.00000  Uiso   1.00
O593   O     0.31910   0.83824   0.55190   0.00000  Uiso   1.00
O594   O     0.39019   0.92767   0.54533   0.00000  Uiso   1.00
C595   C     0.74959   0.73338   0.48441   0.00000  Uiso   1.00
C596   C     0.59086   0.78597   0.47836   0.00000  Uiso   1.00
C597   C     0.88338   0.83397   0.49623   0.00000  Uiso   1.00
C598   C     0.61662   0.83270   0.50377   0.00000  Uiso   1.00
C599   C     0.90352   0.78727   0.47097   0.00000  Uiso   1.00
C600   C     0.59648   0.87940   0.52903   0.00000  Uiso   1.00
C601   C     0.95044   0.78546   0.47663   0.00000  Uiso   1.00
C602   C     0.54956   0.88121   0.52338   0.00000  Uiso   1.00
C603   C     0.97647   0.83305   0.49960   0.00000  Uiso   1.00
C604   C     0.52353   0.83361   0.50041   0.00000  Uiso   1.00
C605   C     0.95561   0.88024   0.52179   0.00000  Uiso   1.00
C606   C     0.75041   0.93328   0.51559   0.00000  Uiso   1.00
C607   C     0.54439   0.78642   0.47822   0.00000  Uiso   1.00
C608   C     0.97257   0.73809   0.45919   0.00000  Uiso   1.00
C609   C     0.52743   0.92858   0.54082   0.00000  Uiso   1.00
C610   C     0.87552   0.74286   0.43605   0.00000  Uiso   1.00
C611   C     0.62448   0.92381   0.56393   0.00000  Uiso   1.00
C612   C     0.51856   0.73954   0.45766   0.00000  Uiso   1.00
C613   C     0.98144   0.92712   0.54234   0.00000  Uiso   1.00
C614   C     0.75257   0.67763   0.47577   0.00000  Uiso   1.00
C615   C     0.74743   0.98904   0.52423   0.00000  Uiso   1.00
C616   C     0.66470   0.83341   0.50122   0.00000  Uiso   1.00
C617   C     0.83531   0.83326   0.49878   0.00000  Uiso   1.00
C618   C     0.90914   0.88070   0.52165   0.00000  Uiso   1.00
Cu619  Cu    0.75501   0.83913   0.56146   0.00000  Uiso   1.00
Cu620  Cu    0.74500   0.82754   0.43854   0.00000  Uiso   1.00
H621   H     0.53409   0.70272   0.44280   0.00000  Uiso   1.00
H622   H     0.73380   0.99675   0.61104   0.00000  Uiso   1.00
H623   H     0.96591   0.96394   0.55721   0.00000  Uiso   1.00
H624   H     0.71509   0.79316   0.64953   0.00000  Uiso   1.00
H625   H     0.78492   0.87350   0.35047   0.00000  Uiso   1.00
H626   H     0.85804   0.92566   0.53239   0.00000  Uiso   1.00
H627   H     0.64196   0.74101   0.46761   0.00000  Uiso   1.00
H628   H     0.93092   0.68903   0.48014   0.00000  Uiso   1.00
H629   H     0.56907   0.97765   0.51986   0.00000  Uiso   1.00
H630   H     0.76621   0.66992   0.38896   0.00000  Uiso   1.00
N631   N     0.73745   0.81881   0.34617   0.00000  Uiso   1.00
N632   N     0.76256   0.84786   0.65383   0.00000  Uiso   1.00
N633   N     0.85327   0.70755   0.40795   0.00000  Uiso   1.00
N634   N     0.64673   0.95913   0.59201   0.00000  Uiso   1.00
O635   O     0.75326   0.76204   0.53992   0.00000  Uiso   1.00
O636   O     0.60981   0.73899   0.45467   0.00000  Uiso   1.00
O637   O     0.95096   0.68931   0.44652   0.00000  Uiso   1.00
O638   O     0.54904   0.97736   0.55349   0.00000  Uiso   1.00
O639   O     0.76202   0.98094   0.41867   0.00000  Uiso   1.00
O640   O     0.73798   0.68573   0.58134   0.00000  Uiso   1.00
O641   O     0.74675   0.90462   0.46008   0.00000  Uiso   1.00
O642   O     0.74480   0.75226   0.43612   0.00000  Uiso   1.00
O643   O     0.75520   0.91441   0.56388   0.00000  Uiso   1.00
O644   O     0.68936   0.83821   0.55191   0.00000  Uiso   1.00
O645   O     0.81065   0.82845   0.44809   0.00000  Uiso   1.00
O646   O     0.68090   0.82843   0.44810   0.00000  Uiso   1.00
O647   O     0.81910   0.83824   0.55190   0.00000  Uiso   1.00
O648   O     0.89019   0.92767   0.54533   0.00000  Uiso   1.00
C649   C     0.24959   0.06672   0.81774   0.00000  Uiso   1.00
C650   C     0.09086   0.11930   0.81169   0.00000  Uiso   1.00
C651   C     0.38338   0.16730   0.82956   0.00000  Uiso   1.00
C652   C     0.11662   0.16603   0.83710   0.00000  Uiso   1.00
C653   C     0.40352   0.12060   0.80430   0.00000  Uiso   1.00
C654   C     0.09648   0.21274   0.86236   0.00000  Uiso   1.00
C655   C     0.45044   0.11879   0.80996   0.00000  Uiso   1.00
C656   C     0.04956   0.21454   0.85671   0.00000  Uiso   1.00
C657   C     0.47647   0.16639   0.83293   0.00000  Uiso   1.00
C658   C     0.02353   0.16695   0.83374   0.00000  Uiso   1.00
C659   C     0.45561   0.21358   0.85513   0.00000  Uiso   1.00
C660   C     0.25041   0.26662   0.84893   0.00000  Uiso   1.00
C661   C     0.04439   0.11976   0.81155   0.00000  Uiso   1.00
C662   C     0.47257   0.07142   0.79252   0.00000  Uiso   1.00
C663   C     0.02743   0.26191   0.87415   0.00000  Uiso   1.00
C664   C     0.37552   0.07619   0.76938   0.00000  Uiso   1.00
C665   C     0.12448   0.25715   0.89727   0.00000  Uiso   1.00
C666   C     0.01856   0.07288   0.79100   0.00000  Uiso   1.00
C667   C     0.48144   0.26046   0.87568   0.00000  Uiso   1.00
C668   C     0.25257   0.01096   0.80911   0.00000  Uiso   1.00
C669   C     0.24743   0.32237   0.85756   0.00000  Uiso   1.00
C670   C     0.16470   0.16674   0.83456   0.00000  Uiso   1.00
C671   C     0.33531   0.16659   0.83211   0.00000  Uiso   1.00
C672   C     0.40914   0.21403   0.85498   0.00000  Uiso   1.00
Cu673  Cu    0.25501   0.17246   0.89479   0.00000  Uiso   1.00
Cu674  Cu    0.24500   0.16087   0.77187   0.00000  Uiso   1.00
H675   H     0.03409   0.03606   0.77613   0.00000  Uiso   1.00
H676   H     0.23380   0.33008   0.94437   0.00000  Uiso   1.00
H677   H     0.46591   0.29727   0.89055   0.00000  Uiso   1.00
H678   H     0.21509   0.12650   0.98286   0.00000  Uiso   1.00
H679   H     0.28492   0.20684   0.68380   0.00000  Uiso   1.00
H680   H     0.35804   0.25899   0.86572   0.00000  Uiso   1.00
H681   H     0.14196   0.07434   0.80094   0.00000  Uiso   1.00
H682   H     0.43092   0.02236   0.81347   0.00000  Uiso   1.00
H683   H     0.06907   0.31098   0.85320   0.00000  Uiso   1.00
H684   H     0.26621   0.00325   0.72230   0.00000  Uiso   1.00
N685   N     0.23745   0.15214   0.67951   0.00000  Uiso   1.00
N686   N     0.26256   0.18119   0.98716   0.00000  Uiso   1.00
N687   N     0.35327   0.04088   0.74129   0.00000  Uiso   1.00
N688   N     0.14673   0.29247   0.92534   0.00000  Uiso   1.00
O689   O     0.25326   0.09538   0.87326   0.00000  Uiso   1.00
O690   O     0.10981   0.07233   0.78801   0.00000  Uiso   1.00
O691   O     0.45096   0.02264   0.77985   0.00000  Uiso   1.00
O692   O     0.04904   0.31069   0.88682   0.00000  Uiso   1.00
O693   O     0.26202   0.31427   0.75200   0.00000  Uiso   1.00
O694   O     0.23798   0.01906   0.91467   0.00000  Uiso   1.00
O695   O     0.24675   0.23796   0.79341   0.00000  Uiso   1.00
O696   O     0.24480   0.08559   0.76945   0.00000  Uiso   1.00
O697   O     0.25520   0.24774   0.89721   0.00000  Uiso   1.00
O698   O     0.18936   0.17155   0.88524   0.00000  Uiso   1.00
O699   O     0.31065   0.16179   0.78143   0.00000  Uiso   1.00
O700   O     0.18090   0.16176   0.78143   0.00000  Uiso   1.00
O701   O     0.31910   0.17157   0.88523   0.00000  Uiso   1.00
O702   O     0.39019   0.26100   0.87867   0.00000  Uiso   1.00
C703   C     0.74959   0.06672   0.81774   0.00000  Uiso   1.00
C704   C     0.59086   0.11930   0.81169   0.00000  Uiso   1.00
C705   C     0.88338   0.16730   0.82956   0.00000  Uiso   1.00
C706   C     0.61662   0.16603   0.83710   0.00000  Uiso   1.00
C707   C     0.90352   0.12060   0.80430   0.00000  Uiso   1.00
C708   C     0.59648   0.21274   0.86236   0.00000  Uiso   1.00
C709   C     0.95044   0.11879   0.80996   0.00000  Uiso   1.00
C710   C     0.54956   0.21454   0.85671   0.00000  Uiso   1.00
C711   C     0.97647   0.16639   0.83293   0.00000  Uiso   1.00
C712   C     0.52353   0.16695   0.83374   0.00000  Uiso   1.00
C713   C     0.95561   0.21358   0.85513   0.00000  Uiso   1.00
C714   C     0.75041   0.26662   0.84893   0.00000  Uiso   1.00
C715   C     0.54439   0.11976   0.81155   0.00000  Uiso   1.00
C716   C     0.97257   0.07142   0.79252   0.00000  Uiso   1.00
C717   C     0.52743   0.26191   0.87415   0.00000  Uiso   1.00
C718   C     0.87552   0.07619   0.76938   0.00000  Uiso   1.00
C719   C     0.62448   0.25715   0.89727   0.00000  Uiso   1.00
C720   C     0.51856   0.07288   0.79100   0.00000  Uiso   1.00
C721   C     0.98144   0.26046   0.87568   0.00000  Uiso   1.00
C722   C     0.75257   0.01096   0.80911   0.00000  Uiso   1.00
C723   C     0.74743   0.32237   0.85756   0.00000  Uiso   1.00
C724   C     0.66470   0.16674   0.83456   0.00000  Uiso   1.00
C725   C     0.83531   0.16659   0.83211   0.00000  Uiso   1.00
C726   C     0.90914   0.21403   0.85498   0.00000  Uiso   1.00
Cu727  Cu    0.75501   0.17246   0.89479   0.00000  Uiso   1.00
Cu728  Cu    0.74500   0.16087   0.77187   0.00000  Uiso   1.00
H729   H     0.53409   0.03606   0.77613   0.00000  Uiso   1.00
H730   H     0.73380   0.33008   0.94437   0.00000  Uiso   1.00
H731   H     0.96591   0.29727   0.89055   0.00000  Uiso   1.00
H732   H     0.71509   0.12650   0.98286   0.00000  Uiso   1.00
H733   H     0.78492   0.20684   0.68380   0.00000  Uiso   1.00
H734   H     0.85804   0.25899   0.86572   0.00000  Uiso   1.00
H735   H     0.64196   0.07434   0.80094   0.00000  Uiso   1.00
H736   H     0.93092   0.02236   0.81347   0.00000  Uiso   1.00
H737   H     0.56907   0.31098   0.85320   0.00000  Uiso   1.00
H738   H     0.76621   0.00325   0.72230   0.00000  Uiso   1.00
N739   N     0.73745   0.15214   0.67951   0.00000  Uiso   1.00
N740   N     0.76256   0.18119   0.98716   0.00000  Uiso   1.00
N741   N     0.85327   0.04088   0.74129   0.00000  Uiso   1.00
N742   N     0.64673   0.29247   0.92534   0.00000  Uiso   1.00
O743   O     0.75326   0.09538   0.87326   0.00000  Uiso   1.00
O744   O     0.60981   0.07233   0.78801   0.00000  Uiso   1.00
O745   O     0.95096   0.02264   0.77985   0.00000  Uiso   1.00
O746   O     0.54904   0.31069   0.88682   0.00000  Uiso   1.00
O747   O     0.76202   0.31427   0.75200   0.00000  Uiso   1.00
O748   O     0.73798   0.01906   0.91467   0.00000  Uiso   1.00
O749   O     0.74675   0.23796   0.79341   0.00000  Uiso   1.00
O750   O     0.74480   0.08559   0.76945   0.00000  Uiso   1.00
O751   O     0.75520   0.24774   0.89721   0.00000  Uiso   1.00
O752   O     0.68936   0.17155   0.88524   0.00000  Uiso   1.00
O753   O     0.81065   0.16179   0.78143   0.00000  Uiso   1.00
O754   O     0.68090   0.16176   0.78143   0.00000  Uiso   1.00
O755   O     0.81910   0.17157   0.88523   0.00000  Uiso   1.00
O756   O     0.89019   0.26100   0.87867   0.00000  Uiso   1.00
C757   C     0.24959   0.40005   0.81774   0.00000  Uiso   1.00
C758   C     0.09086   0.45263   0.81169   0.00000  Uiso   1.00
C759   C     0.38338   0.50063   0.82956   0.00000  Uiso   1.00
C760   C     0.11662   0.49937   0.83710   0.00000  Uiso   1.00
C761   C     0.40352   0.45393   0.80430   0.00000  Uiso   1.00
C762   C     0.09648   0.54607   0.86236   0.00000  Uiso   1.00
C763   C     0.45044   0.45213   0.80996   0.00000  Uiso   1.00
C764   C     0.04956   0.54787   0.85671   0.00000  Uiso   1.00
C765   C     0.47647   0.49972   0.83293   0.00000  Uiso   1.00
C766   C     0.02353   0.50028   0.83374   0.00000  Uiso   1.00
C767   C     0.45561   0.54691   0.85513   0.00000  Uiso   1.00
C768   C     0.25041   0.59995   0.84893   0.00000  Uiso   1.00
C769   C     0.04439   0.45309   0.81155   0.00000  Uiso   1.00
C770   C     0.47257   0.40476   0.79252   0.00000  Uiso   1.00
C771   C     0.02743   0.59524   0.87415   0.00000  Uiso   1.00
C772   C     0.37552   0.40953   0.76938   0.00000  Uiso   1.00
C773   C     0.12448   0.59048   0.89727   0.00000  Uiso   1.00
C774   C     0.01856   0.40621   0.79100   0.00000  Uiso   1.00
C775   C     0.48144   0.59379   0.87568   0.00000  Uiso   1.00
C776   C     0.25257   0.34430   0.80911   0.00000  Uiso   1.00
C777   C     0.24743   0.65570   0.85756   0.00000  Uiso   1.00
C778   C     0.16470   0.50008   0.83456   0.00000  Uiso   1.00
C779   C     0.33531   0.49992   0.83211   0.00000  Uiso   1.00
C780   C     0.40914   0.54737   0.85498   0.00000  Uiso   1.00
Cu781  Cu    0.25501   0.50579   0.89479   0.00000  Uiso   1.00
Cu782  Cu    0.24500   0.49421   0.77187   0.00000  Uiso   1.00
H783   H     0.03409   0.36939   0.77613   0.00000  Uiso   1.00
H784   H     0.23380   0.66342   0.94437   0.00000  Uiso   1.00
H785   H     0.46591   0.63061   0.89055   0.00000  Uiso   1.00
H786   H     0.21509   0.45983   0.98286   0.00000  Uiso   1.00
H787   H     0.28492   0.54017   0.68380   0.00000  Uiso   1.00
H788   H     0.35804   0.59232   0.86572   0.00000  Uiso   1.00
H789   H     0.14196   0.40768   0.80094   0.00000  Uiso   1.00
H790   H     0.43092   0.35569   0.81347   0.00000  Uiso   1.00
H791   H     0.06907   0.64431   0.85320   0.00000  Uiso   1.00
H792   H     0.26621   0.33659   0.72230   0.00000  Uiso   1.00
N793   N     0.23745   0.48547   0.67951   0.00000  Uiso   1.00
N794   N     0.26256   0.51453   0.98716   0.00000  Uiso   1.00
N795   N     0.35327   0.37421   0.74129   0.00000  Uiso   1.00
N796   N     0.14673   0.62580   0.92534   0.00000  Uiso   1.00
O797   O     0.25326   0.42871   0.87326   0.00000  Uiso   1.00
O798   O     0.10981   0.40566   0.78801   0.00000  Uiso   1.00
O799   O     0.45096   0.35598   0.77985   0.00000  Uiso   1.00
O800   O     0.04904   0.64402   0.88682   0.00000  Uiso   1.00
O801   O     0.26202   0.64761   0.75200   0.00000  Uiso   1.00
O802   O     0.23798   0.35240   0.91467   0.00000  Uiso   1.00
O803   O     0.24675   0.57129   0.79341   0.00000  Uiso   1.00
O804   O     0.24480   0.41892   0.76945   0.00000  Uiso   1.00
O805   O     0.25520   0.58108   0.89721   0.00000  Uiso   1.00
O806   O     0.18936   0.50488   0.88524   0.00000  Uiso   1.00
O807   O     0.31065   0.49512   0.78143   0.00000  Uiso   1.00
O808   O     0.18090   0.49510   0.78143   0.00000  Uiso   1.00
O809   O     0.31910   0.50490   0.88523   0.00000  Uiso   1.00
O810   O     0.39019   0.59434   0.87867   0.00000  Uiso   1.00
C811   C     0.74959   0.40005   0.81774   0.00000  Uiso   1.00
C812   C     0.59086   0.45263   0.81169   0.00000  Uiso   1.00
C813   C     0.88338   0.50063   0.82956   0.00000  Uiso   1.00
C814   C     0.61662   0.49937   0.83710   0.00000  Uiso   1.00
C815   C     0.90352   0.45393   0.80430   0.00000  Uiso   1.00
C816   C     0.59648   0.54607   0.86236   0.00000  Uiso   1.00
C817   C     0.95044   0.45213   0.80996   0.00000  Uiso   1.00
C818   C     0.54956   0.54787   0.85671   0.00000  Uiso   1.00
C819   C     0.97647   0.49972   0.83293   0.00000  Uiso   1.00
C820   C     0.52353   0.50028   0.83374   0.00000  Uiso   1.00
C821   C     0.95561   0.54691   0.85513   0.00000  Uiso   1.00
C822   C     0.75041   0.59995   0.84893   0.00000  Uiso   1.00
C823   C     0.54439   0.45309   0.81155   0.00000  Uiso   1.00
C824   C     0.97257   0.40476   0.79252   0.00000  Uiso   1.00
C825   C     0.52743   0.59524   0.87415   0.00000  Uiso   1.00
C826   C     0.87552   0.40953   0.76938   0.00000  Uiso   1.00
C827   C     0.62448   0.59048   0.89727   0.00000  Uiso   1.00
C828   C     0.51856   0.40621   0.79100   0.00000  Uiso   1.00
C829   C     0.98144   0.59379   0.87568   0.00000  Uiso   1.00
C830   C     0.75257   0.34430   0.80911   0.00000  Uiso   1.00
C831   C     0.74743   0.65570   0.85756   0.00000  Uiso   1.00
C832   C     0.66470   0.50008   0.83456   0.00000  Uiso   1.00
C833   C     0.83531   0.49992   0.83211   0.00000  Uiso   1.00
C834   C     0.90914   0.54737   0.85498   0.00000  Uiso   1.00
Cu835  Cu    0.75501   0.50579   0.89479   0.00000  Uiso   1.00
Cu836  Cu    0.74500   0.49421   0.77187   0.00000  Uiso   1.00
H837   H     0.53409   0.36939   0.77613   0.00000  Uiso   1.00
H838   H     0.73380   0.66342   0.94437   0.00000  Uiso   1.00
H839   H     0.96591   0.63061   0.89055   0.00000  Uiso   1.00
H840   H     0.71509   0.45983   0.98286   0.00000  Uiso   1.00
H841   H     0.78492   0.54017   0.68380   0.00000  Uiso   1.00
H842   H     0.85804   0.59232   0.86572   0.00000  Uiso   1.00
H843   H     0.64196   0.40768   0.80094   0.00000  Uiso   1.00
H844   H     0.93092   0.35569   0.81347   0.00000  Uiso   1.00
H845   H     0.56907   0.64431   0.85320   0.00000  Uiso   1.00
H846   H     0.76621   0.33659   0.72230   0.00000  Uiso   1.00
N847   N     0.73745   0.48547   0.67951   0.00000  Uiso   1.00
N848   N     0.76256   0.51453   0.98716   0.00000  Uiso   1.00
N849   N     0.85327   0.37421   0.74129   0.00000  Uiso   1.00
N850   N     0.64673   0.62580   0.92534   0.00000  Uiso   1.00
O851   O     0.75326   0.42871   0.87326   0.00000  Uiso   1.00
O852   O     0.60981   0.40566   0.78801   0.00000  Uiso   1.00
O853   O     0.95096   0.35598   0.77985   0.00000  Uiso   1.00
O854   O     0.54904   0.64402   0.88682   0.00000  Uiso   1.00
O855   O     0.76202   0.64761   0.75200   0.00000  Uiso   1.00
O856   O     0.73798   0.35240   0.91467   0.00000  Uiso   1.00
O857   O     0.74675   0.57129   0.79341   0.00000  Uiso   1.00
O858   O     0.74480   0.41892   0.76945   0.00000  Uiso   1.00
O859   O     0.75520   0.58108   0.89721   0.00000  Uiso   1.00
O860   O     0.68936   0.50488   0.88524   0.00000  Uiso   1.00
O861   O     0.81065   0.49512   0.78143   0.00000  Uiso   1.00
O862   O     0.68090   0.49510   0.78143   0.00000  Uiso   1.00
O863   O     0.81910   0.50490   0.88523   0.00000  Uiso   1.00
O864   O     0.89019   0.59434   0.87867   0.00000  Uiso   1.00
C865   C     0.24959   0.73338   0.81774   0.00000  Uiso   1.00
C866   C     0.09086   0.78597   0.81169   0.00000  Uiso   1.00
C867   C     0.38338   0.83397   0.82956   0.00000  Uiso   1.00
C868   C     0.11662   0.83270   0.83710   0.00000  Uiso   1.00
C869   C     0.40352   0.78727   0.80430   0.00000  Uiso   1.00
C870   C     0.09648   0.87940   0.86236   0.00000  Uiso   1.00
C871   C     0.45044   0.78546   0.80996   0.00000  Uiso   1.00
C872   C     0.04956   0.88121   0.85671   0.00000  Uiso   1.00
C873   C     0.47647   0.83305   0.83293   0.00000  Uiso   1.00
C874   C     0.02353   0.83361   0.83374   0.00000  Uiso   1.00
C875   C     0.45561   0.88024   0.85513   0.00000  Uiso   1.00
C876   C     0.25041   0.93328   0.84893   0.00000  Uiso   1.00
C877   C     0.04439   0.78642   0.81155   0.00000  Uiso   1.00
C878   C     0.47257   0.73809   0.79252   0.00000  Uiso   1.00
C879   C     0.02743   0.92858   0.87415   0.00000  Uiso   1.00
C880   C     0.37552   0.74286   0.76938   0.00000  Uiso   1.00
C881   C     0.12448   0.92381   0.89727   0.00000  Uiso   1.00
C882   C     0.01856   0.73954   0.79100   0.00000  Uiso   1.00
C883   C     0.48144   0.92712   0.87568   0.00000  Uiso   1.00
C884   C     0.25257   0.67763   0.80911   0.00000  Uiso   1.00
C885   C     0.24743   0.98904   0.85756   0.00000  Uiso   1.00
C886   C     0.16470   0.83341   0.83456   0.00000  Uiso   1.00
C887   C     0.33531   0.83326   0.83211   0.00000  Uiso   1.00
C888   C     0.40914   0.88070   0.85498   0.00000  Uiso   1.00
Cu889  Cu    0.25501   0.83913   0.89479   0.00000  Uiso   1.00
Cu890  Cu    0.24500   0.82754   0.77187   0.00000  Uiso   1.00
H891   H     0.03409   0.70272   0.77613   0.00000  Uiso   1.00
H892   H     0.23380   0.99675   0.94437   0.00000  Uiso   1.00
H893   H     0.46591   0.96394   0.89055   0.00000  Uiso   1.00
H894   H     0.21509   0.79316   0.98286   0.00000  Uiso   1.00
H895   H     0.28492   0.87350   0.68380   0.00000  Uiso   1.00
H896   H     0.35804   0.92566   0.86572   0.00000  Uiso   1.00
H897   H     0.14196   0.74101   0.80094   0.00000  Uiso   1.00
H898   H     0.43092   0.68903   0.81347   0.00000  Uiso   1.00
H899   H     0.06907   0.97765   0.85320   0.00000  Uiso   1.00
H900   H     0.26621   0.66992   0.72230   0.00000  Uiso   1.00
N901   N     0.23745   0.81881   0.67951   0.00000  Uiso   1.00
N902   N     0.26256   0.84786   0.98716   0.00000  Uiso   1.00
N903   N     0.35327   0.70755   0.74129   0.00000  Uiso   1.00
N904   N     0.14673   0.95913   0.92534   0.00000  Uiso   1.00
O905   O     0.25326   0.76204   0.87326   0.00000  Uiso   1.00
O906   O     0.10981   0.73899   0.78801   0.00000  Uiso   1.00
O907   O     0.45096   0.68931   0.77985   0.00000  Uiso   1.00
O908   O     0.04904   0.97736   0.88682   0.00000  Uiso   1.00
O909   O     0.26202   0.98094   0.75200   0.00000  Uiso   1.00
O910   O     0.23798   0.68573   0.91467   0.00000  Uiso   1.00
O911   O     0.24675   0.90462   0.79341   0.00000  Uiso   1.00
O912   O     0.24480   0.75226   0.76945   0.00000  Uiso   1.00
O913   O     0.25520   0.91441   0.89721   0.00000  Uiso   1.00
O914   O     0.18936   0.83821   0.88524   0.00000  Uiso   1.00
O915   O     0.31065   0.82845   0.78143   0.00000  Uiso   1.00
O916   O     0.18090   0.82843   0.78143   0.00000  Uiso   1.00
O917   O     0.31910   0.83824   0.88523   0.00000  Uiso   1.00
O918   O     0.39019   0.92767   0.87867   0.00000  Uiso   1.00
C919   C     0.74959   0.73338   0.81774   0.00000  Uiso   1.00
C920   C     0.59086   0.78597   0.81169   0.00000  Uiso   1.00
C921   C     0.88338   0.83397   0.82956   0.00000  Uiso   1.00
C922   C     0.61662   0.83270   0.83710   0.00000  Uiso   1.00
C923   C     0.90352   0.78727   0.80430   0.00000  Uiso   1.00
C924   C     0.59648   0.87940   0.86236   0.00000  Uiso   1.00
C925   C     0.95044   0.78546   0.80996   0.00000  Uiso   1.00
C926   C     0.54956   0.88121   0.85671   0.00000  Uiso   1.00
C927   C     0.97647   0.83305   0.83293   0.00000  Uiso   1.00
C928   C     0.52353   0.83361   0.83374   0.00000  Uiso   1.00
C929   C     0.95561   0.88024   0.85513   0.00000  Uiso   1.00
C930   C     0.75041   0.93328   0.84893   0.00000  Uiso   1.00
C931   C     0.54439   0.78642   0.81155   0.00000  Uiso   1.00
C932   C     0.97257   0.73809   0.79252   0.00000  Uiso   1.00
C933   C     0.52743   0.92858   0.87415   0.00000  Uiso   1.00
C934   C     0.87552   0.74286   0.76938   0.00000  Uiso   1.00
C935   C     0.62448   0.92381   0.89727   0.00000  Uiso   1.00
C936   C     0.51856   0.73954   0.79100   0.00000  Uiso   1.00
C937   C     0.98144   0.92712   0.87568   0.00000  Uiso   1.00
C938   C     0.75257   0.67763   0.80911   0.00000  Uiso   1.00
C939   C     0.74743   0.98904   0.85756   0.00000  Uiso   1.00
C940   C     0.66470   0.83341   0.83456   0.00000  Uiso   1.00
C941   C     0.83531   0.83326   0.83211   0.00000  Uiso   1.00
C942   C     0.90914   0.88070   0.85498   0.00000  Uiso   1.00
Cu943  Cu    0.75501   0.83913   0.89479   0.00000  Uiso   1.00
Cu944  Cu    0.74500   0.82754   0.77187   0.00000  Uiso   1.00
H945   H     0.53409   0.70272   0.77613   0.00000  Uiso   1.00
H946   H     0.73380   0.99675   0.94437   0.00000  Uiso   1.00
H947   H     0.96591   0.96394   0.89055   0.00000  Uiso   1.00
H948   H     0.71509   0.79316   0.98286   0.00000  Uiso   1.00
H949   H     0.78492   0.87350   0.68380   0.00000  Uiso   1.00
H950   H     0.85804   0.92566   0.86572   0.00000  Uiso   1.00
H951   H     0.64196   0.74101   0.80094   0.00000  Uiso   1.00
H952   H     0.93092   0.68903   0.81347   0.00000  Uiso   1.00
H953   H     0.56907   0.97765   0.85320   0.00000  Uiso   1.00
H954   H     0.76621   0.66992   0.72230   0.00000  Uiso   1.00
N955   N     0.73745   0.81881   0.67951   0.00000  Uiso   1.00
N956   N     0.76256   0.84786   0.98716   0.00000  Uiso   1.00
N957   N     0.85327   0.70755   0.74129   0.00000  Uiso   1.00
N958   N     0.64673   0.95913   0.92534   0.00000  Uiso   1.00
O959   O     0.75326   0.76204   0.87326   0.00000  Uiso   1.00
O960   O     0.60981   0.73899   0.78801   0.00000  Uiso   1.00
O961   O     0.95096   0.68931   0.77985   0.00000  Uiso   1.00
O962   O     0.54904   0.97736   0.88682   0.00000  Uiso   1.00
O963   O     0.76202   0.98094   0.75200   0.00000  Uiso   1.00
O964   O     0.73798   0.68573   0.91467   0.00000  Uiso   1.00
O965   O     0.74675   0.90462   0.79341   0.00000  Uiso   1.00
O966   O     0.74480   0.75226   0.76945   0.00000  Uiso   1.00
O967   O     0.75520   0.91441   0.89721   0.00000  Uiso   1.00
O968   O     0.68936   0.83821   0.88524   0.00000  Uiso   1.00
O969   O     0.81065   0.82845   0.78143   0.00000  Uiso   1.00
O970   O     0.68090   0.82843   0.78143   0.00000  Uiso   1.00
O971   O     0.81910   0.83824   0.88523   0.00000  Uiso   1.00
O972   O     0.89019   0.92767   0.87867   0.00000  Uiso   1.00
loop_
_geom_bond_atom_site_label_1
_geom_bond_atom_site_label_2
_geom_bond_distance
_geom_bond_site_symmetry_2
_ccdc_geom_bond_type
C1     O48     1.286   .     A
C1     O41     1.291   .     A
C1     C20     1.441   .     S
C2     C4      1.410   .     A
C2     O42     1.388   .     S
C2     C13     1.399   .     A
C3     C5      1.407   .     A
C3     C24     1.410   .     A
C3     C23     1.451   .     S
C4     C22     1.451   .     S
C4     C6      1.407   .     A
C5     C7      1.414   .     A
C5     C16     1.452   .     S
C6     C17     1.452   .     S
C6     C8      1.414   .     A
C7     C9      1.423   .     A
C7     C14     1.422   .     A
C8     C15     1.422   .     A
C8     C10     1.423   .     A
C9     C11     1.414   .     A
C9     C64     1.414   .     S
C10    C13     1.414   .     A
C10    C63     1.414   1_455 S
C11    C19     1.399   .     A
C11    C24     1.399   .     A
C12    O49     1.286   .     A
C12    O47     1.291   .     A
C12    C21     1.441   .     S
C13    C18     1.399   .     A
C14    O43     1.376   .     S
C14    C72     1.386   .     S
C15    O44     1.376   .     S
C15    C73     1.386   1_455 S
C16    N39     1.157   .     T
C17    N40     1.157   .     T
C18    H27     1.084   .     S
C18    C68     1.386   1_455 S
C19    H29     1.084   .     S
C19    C69     1.386   .     S
C20    C237    1.348   1_545 S
C20    O261    1.390   1_545 S
C21    C128    1.348   .     S
C21    O154    1.390   .     S
C22    O50     1.292   .     A
C22    O52     1.290   .     A
C23    O51     1.292   .     A
C23    O53     1.290   .     A
C24    O54     1.388   .     S
Cu25   N38     2.018   .     S
Cu25   O53     1.954   .     S
Cu25   O49     1.967   .     S
Cu25   O41     1.972   .     S
Cu25   O50     1.973   .     S
Cu25   Cu26    2.685   .     S
Cu26   N37     2.018   .     S
Cu26   O52     1.954   .     S
Cu26   O48     1.967   .     S
Cu26   O51     1.973   .     S
Cu26   O47     1.972   .     S
H28    O154    0.989   .     S
H30    N361    1.029   .     S
H31    N686    1.029   1_554 S
H32    O54     0.988   .     S
H33    O42     0.988   .     S
H34    O43     0.992   .     S
H35    O44     0.992   .     S
H36    O261    0.989   1_545 S
N37    H678    1.029   1_554 S
N37    N686    1.299   1_554 S
N38    N361    1.299   .     S
N38    H355    1.029   .     S
O45    H144    0.989   .     S
O45    C128    1.390   .     S
O46    C237    1.390   1_545 S
O46    H244    0.989   1_545 S
C55    O102    1.286   .     A
C55    O95     1.291   .     A
C55    C74     1.441   .     S
C56    C58     1.410   .     A
C56    O96     1.388   .     S
C56    C67     1.399   .     A
C57    C59     1.407   .     A
C57    C78     1.410   .     A
C57    C77     1.451   .     S
C58    C76     1.451   .     S
C58    C60     1.407   .     A
C59    C61     1.414   .     A
C59    C70     1.452   .     S
C60    C71     1.452   .     S
C60    C62     1.414   .     A
C61    C63     1.423   .     A
C61    C68     1.422   .     A
C62    C69     1.422   .     A
C62    C64     1.423   .     A
C63    C65     1.414   .     A
C63    C10     1.414   1_655 S
C64    C67     1.414   .     A
C65    C73     1.399   .     A
C65    C78     1.399   .     A
C66    O103    1.286   .     A
C66    O101    1.291   .     A
C66    C75     1.441   .     S
C67    C72     1.399   .     A
C68    O97     1.376   .     S
C68    C18     1.386   1_655 S
C69    O98     1.376   .     S
C70    N93     1.157   .     T
C71    N94     1.157   .     T
C72    H81     1.084   .     S
C73    H83     1.084   .     S
C73    C15     1.386   1_655 S
C74    C291    1.348   1_545 S
C74    O315    1.390   1_545 S
C75    C182    1.348   .     S
C75    O208    1.390   .     S
C76    O104    1.292   .     A
C76    O106    1.290   .     A
C77    O105    1.292   .     A
C77    O107    1.290   .     A
C78    O108    1.388   .     S
Cu79   N92     2.018   .     S
Cu79   O107    1.954   .     S
Cu79   O103    1.967   .     S
Cu79   O95     1.972   .     S
Cu79   O104    1.973   .     S
Cu79   Cu80    2.685   .     S
Cu80   N91     2.018   .     S
Cu80   O106    1.954   .     S
Cu80   O102    1.967   .     S
Cu80   O105    1.973   .     S
Cu80   O101    1.972   .     S
H82    O208    0.989   .     S
H84    N415    1.029   .     S
H85    N740    1.029   1_554 S
H86    O108    0.988   .     S
H87    O96     0.988   .     S
H88    O97     0.992   .     S
H89    O98     0.992   .     S
H90    O315    0.989   1_545 S
N91    H732    1.029   1_554 S
N91    N740    1.299   1_554 S
N92    N415    1.299   .     S
N92    H409    1.029   .     S
O99    H198    0.989   .     S
O99    C182    1.390   .     S
O100   C291    1.390   1_545 S
O100   H298    0.989   1_545 S
C109   O156    1.286   .     A
C109   O149    1.291   .     A
C109   C128    1.441   .     S
C110   C112    1.410   .     A
C110   O150    1.388   .     S
C110   C121    1.399   .     A
C111   C113    1.407   .     A
C111   C132    1.410   .     A
C111   C131    1.451   .     S
C112   C130    1.451   .     S
C112   C114    1.407   .     A
C113   C115    1.414   .     A
C113   C124    1.452   .     S
C114   C125    1.452   .     S
C114   C116    1.414   .     A
C115   C117    1.423   .     A
C115   C122    1.422   .     A
C116   C123    1.422   .     A
C116   C118    1.423   .     A
C117   C119    1.414   .     A
C117   C172    1.414   .     S
C118   C121    1.414   .     A
C118   C171    1.414   1_455 S
C119   C127    1.399   .     A
C119   C132    1.399   .     A
C120   O157    1.286   .     A
C120   O155    1.291   .     A
C120   C129    1.441   .     S
C121   C126    1.399   .     A
C122   O151    1.376   .     S
C122   C180    1.386   .     S
C123   O152    1.376   .     S
C123   C181    1.386   1_455 S
C124   N147    1.157   .     T
C125   N148    1.157   .     T
C126   H135    1.084   .     S
C126   C176    1.386   1_455 S
C127   H137    1.084   .     S
C127   C177    1.386   .     S
C129   C236    1.348   .     S
C129   O262    1.390   .     S
C130   O158    1.292   .     A
C130   O160    1.290   .     A
C131   O159    1.292   .     A
C131   O161    1.290   .     A
C132   O162    1.388   .     S
Cu133  N146    2.018   .     S
Cu133  O161    1.954   .     S
Cu133  O157    1.967   .     S
Cu133  O149    1.972   .     S
Cu133  O158    1.973   .     S
Cu133  Cu134   2.685   .     S
Cu134  N145    2.018   .     S
Cu134  O160    1.954   .     S
Cu134  O156    1.967   .     S
Cu134  O159    1.973   .     S
Cu134  O155    1.972   .     S
H136   O262    0.989   .     S
H138   N469    1.029   .     S
H139   N794    1.029   1_554 S
H140   O162    0.988   .     S
H141   O150    0.988   .     S
H142   O151    0.992   .     S
H143   O152    0.992   .     S
N145   H786    1.029   1_554 S
N145   N794    1.299   1_554 S
N146   N469    1.299   .     S
N146   H463    1.029   .     S
O153   H252    0.989   .     S
O153   C236    1.390   .     S
C163   O210    1.286   .     A
C163   O203    1.291   .     A
C163   C182    1.441   .     S
C164   C166    1.410   .     A
C164   O204    1.388   .     S
C164   C175    1.399   .     A
C165   C167    1.407   .     A
C165   C186    1.410   .     A
C165   C185    1.451   .     S
C166   C184    1.451   .     S
C166   C168    1.407   .     A
C167   C169    1.414   .     A
C167   C178    1.452   .     S
C168   C179    1.452   .     S
C168   C170    1.414   .     A
C169   C171    1.423   .     A
C169   C176    1.422   .     A
C170   C177    1.422   .     A
C170   C172    1.423   .     A
C171   C173    1.414   .     A
C171   C118    1.414   1_655 S
C172   C175    1.414   .     A
C173   C181    1.399   .     A
C173   C186    1.399   .     A
C174   O211    1.286   .     A
C174   O209    1.291   .     A
C174   C183    1.441   .     S
C175   C180    1.399   .     A
C176   O205    1.376   .     S
C176   C126    1.386   1_655 S
C177   O206    1.376   .     S
C178   N201    1.157   .     T
C179   N202    1.157   .     T
C180   H189    1.084   .     S
C181   H191    1.084   .     S
C181   C123    1.386   1_655 S
C183   C290    1.348   .     S
C183   O316    1.390   .     S
C184   O212    1.292   .     A
C184   O214    1.290   .     A
C185   O213    1.292   .     A
C185   O215    1.290   .     A
C186   O216    1.388   .     S
Cu187  N200    2.018   .     S
Cu187  O215    1.954   .     S
Cu187  O211    1.967   .     S
Cu187  O203    1.972   .     S
Cu187  O212    1.973   .     S
Cu187  Cu188   2.685   .     S
Cu188  N199    2.018   .     S
Cu188  O214    1.954   .     S
Cu188  O210    1.967   .     S
Cu188  O213    1.973   .     S
Cu188  O209    1.972   .     S
H190   O316    0.989   .     S
H192   N523    1.029   .     S
H193   N848    1.029   1_554 S
H194   O216    0.988   .     S
H195   O204    0.988   .     S
H196   O205    0.992   .     S
H197   O206    0.992   .     S
N199   H840    1.029   1_554 S
N199   N848    1.299   1_554 S
N200   N523    1.299   .     S
N200   H517    1.029   .     S
O207   H306    0.989   .     S
O207   C290    1.390   .     S
C217   O264    1.286   .     A
C217   O257    1.291   .     A
C217   C236    1.441   .     S
C218   C220    1.410   .     A
C218   O258    1.388   .     S
C218   C229    1.399   .     A
C219   C221    1.407   .     A
C219   C240    1.410   .     A
C219   C239    1.451   .     S
C220   C238    1.451   .     S
C220   C222    1.407   .     A
C221   C223    1.414   .     A
C221   C232    1.452   .     S
C222   C233    1.452   .     S
C222   C224    1.414   .     A
C223   C225    1.423   .     A
C223   C230    1.422   .     A
C224   C231    1.422   .     A
C224   C226    1.423   .     A
C225   C227    1.414   .     A
C225   C280    1.414   .     S
C226   C229    1.414   .     A
C226   C279    1.414   1_455 S
C227   C235    1.399   .     A
C227   C240    1.399   .     A
C228   O265    1.286   .     A
C228   O263    1.291   .     A
C228   C237    1.441   .     S
C229   C234    1.399   .     A
C230   O259    1.376   .     S
C230   C288    1.386   .     S
C231   O260    1.376   .     S
C231   C289    1.386   1_455 S
C232   N255    1.157   .     T
C233   N256    1.157   .     T
C234   H243    1.084   .     S
C234   C284    1.386   1_455 S
C235   H245    1.084   .     S
C235   C285    1.386   .     S
C237   C20     1.348   1_565 S
C237   O46     1.390   1_565 S
C238   O266    1.292   .     A
C238   O268    1.290   .     A
C239   O267    1.292   .     A
C239   O269    1.290   .     A
C240   O270    1.388   .     S
Cu241  N254    2.018   .     S
Cu241  O269    1.954   .     S
Cu241  O265    1.967   .     S
Cu241  O257    1.972   .     S
Cu241  O266    1.973   .     S
Cu241  Cu242   2.685   .     S
Cu242  N253    2.018   .     S
Cu242  O268    1.954   .     S
Cu242  O264    1.967   .     S
Cu242  O267    1.973   .     S
Cu242  O263    1.972   .     S
H244   O46     0.989   1_565 S
H246   N577    1.029   .     S
H247   N902    1.029   1_554 S
H248   O270    0.988   .     S
H249   O258    0.988   .     S
H250   O259    0.992   .     S
H251   O260    0.992   .     S
N253   H894    1.029   1_554 S
N253   N902    1.299   1_554 S
N254   N577    1.299   .     S
N254   H571    1.029   .     S
O261   H36     0.989   1_565 S
O261   C20     1.390   1_565 S
C271   O318    1.286   .     A
C271   O311    1.291   .     A
C271   C290    1.441   .     S
C272   C274    1.410   .     A
C272   O312    1.388   .     S
C272   C283    1.399   .     A
C273   C275    1.407   .     A
C273   C294    1.410   .     A
C273   C293    1.451   .     S
C274   C292    1.451   .     S
C274   C276    1.407   .     A
C275   C277    1.414   .     A
C275   C286    1.452   .     S
C276   C287    1.452   .     S
C276   C278    1.414   .     A
C277   C279    1.423   .     A
C277   C284    1.422   .     A
C278   C285    1.422   .     A
C278   C280    1.423   .     A
C279   C281    1.414   .     A
C279   C226    1.414   1_655 S
C280   C283    1.414   .     A
C281   C289    1.399   .     A
C281   C294    1.399   .     A
C282   O319    1.286   .     A
C282   O317    1.291   .     A
C282   C291    1.441   .     S
C283   C288    1.399   .     A
C284   O313    1.376   .     S
C284   C234    1.386   1_655 S
C285   O314    1.376   .     S
C286   N309    1.157   .     T
C287   N310    1.157   .     T
C288   H297    1.084   .     S
C289   H299    1.084   .     S
C289   C231    1.386   1_655 S
C291   C74     1.348   1_565 S
C291   O100    1.390   1_565 S
C292   O320    1.292   .     A
C292   O322    1.290   .     A
C293   O321    1.292   .     A
C293   O323    1.290   .     A
C294   O324    1.388   .     S
Cu295  N308    2.018   .     S
Cu295  O323    1.954   .     S
Cu295  O319    1.967   .     S
Cu295  O311    1.972   .     S
Cu295  O320    1.973   .     S
Cu295  Cu296   2.685   .     S
Cu296  N307    2.018   .     S
Cu296  O322    1.954   .     S
Cu296  O318    1.967   .     S
Cu296  O321    1.973   .     S
Cu296  O317    1.972   .     S
H298   O100    0.989   1_565 S
H300   N631    1.029   .     S
H301   N956    1.029   1_554 S
H302   O324    0.988   .     S
H303   O312    0.988   .     S
H304   O313    0.992   .     S
H305   O314    0.992   .     S
N307   H948    1.029   1_554 S
N307   N956    1.299   1_554 S
N308   N631    1.299   .     S
N308   H625    1.029   .     S
O315   H90     0.989   1_565 S
O315   C74     1.390   1_565 S
C325   O372    1.286   .     A
C325   O365    1.291   .     A
C325   C344    1.441   .     S
C326   C328    1.410   .     A
C326   O366    1.388   .     S
C326   C337    1.399   .     A
C327   C329    1.407   .     A
C327   C348    1.410   .     A
C327   C347    1.451   .     S
C328   C346    1.451   .     S
C328   C330    1.407   .     A
C329   C331    1.414   .     A
C329   C340    1.452   .     S
C330   C341    1.452   .     S
C330   C332    1.414   .     A
C331   C333    1.423   .     A
C331   C338    1.422   .     A
C332   C339    1.422   .     A
C332   C334    1.423   .     A
C333   C335    1.414   .     A
C333   C388    1.414   .     S
C334   C337    1.414   .     A
C334   C387    1.414   1_455 S
C335   C343    1.399   .     A
C335   C348    1.399   .     A
C336   O373    1.286   .     A
C336   O371    1.291   .     A
C336   C345    1.441   .     S
C337   C342    1.399   .     A
C338   O367    1.376   .     S
C338   C396    1.386   .     S
C339   O368    1.376   .     S
C339   C397    1.386   1_455 S
C340   N363    1.157   .     T
C341   N364    1.157   .     T
C342   H351    1.084   .     S
C342   C392    1.386   1_455 S
C343   H353    1.084   .     S
C343   C393    1.386   .     S
C344   C561    1.348   1_545 S
C344   O585    1.390   1_545 S
C345   C452    1.348   .     S
C345   O478    1.390   .     S
C346   O374    1.292   .     A
C346   O376    1.290   .     A
C347   O375    1.292   .     A
C347   O377    1.290   .     A
C348   O378    1.388   .     S
Cu349  N362    2.018   .     S
Cu349  O377    1.954   .     S
Cu349  O373    1.967   .     S
Cu349  O365    1.972   .     S
Cu349  O374    1.973   .     S
Cu349  Cu350   2.685   .     S
Cu350  N361    2.018   .     S
Cu350  O376    1.954   .     S
Cu350  O372    1.967   .     S
Cu350  O375    1.973   .     S
Cu350  O371    1.972   .     S
H352   O478    0.989   .     S
H354   N685    1.029   .     S
H356   O378    0.988   .     S
H357   O366    0.988   .     S
H358   O367    0.992   .     S
H359   O368    0.992   .     S
H360   O585    0.989   1_545 S
N362   N685    1.299   .     S
N362   H679    1.029   .     S
O369   H468    0.989   .     S
O369   C452    1.390   .     S
O370   C561    1.390   1_545 S
O370   H568    0.989   1_545 S
C379   O426    1.286   .     A
C379   O419    1.291   .     A
C379   C398    1.441   .     S
C380   C382    1.410   .     A
C380   O420    1.388   .     S
C380   C391    1.399   .     A
C381   C383    1.407   .     A
C381   C402    1.410   .     A
C381   C401    1.451   .     S
C382   C400    1.451   .     S
C382   C384    1.407   .     A
C383   C385    1.414   .     A
C383   C394    1.452   .     S
C384   C395    1.452   .     S
C384   C386    1.414   .     A
C385   C387    1.423   .     A
C385   C392    1.422   .     A
C386   C393    1.422   .     A
C386   C388    1.423   .     A
C387   C389    1.414   .     A
C387   C334    1.414   1_655 S
C388   C391    1.414   .     A
C389   C397    1.399   .     A
C389   C402    1.399   .     A
C390   O427    1.286   .     A
C390   O425    1.291   .     A
C390   C399    1.441   .     S
C391   C396    1.399   .     A
C392   O421    1.376   .     S
C392   C342    1.386   1_655 S
C393   O422    1.376   .     S
C394   N417    1.157   .     T
C395   N418    1.157   .     T
C396   H405    1.084   .     S
C397   H407    1.084   .     S
C397   C339    1.386   1_655 S
C398   C615    1.348   1_545 S
C398   O639    1.390   1_545 S
C399   C506    1.348   .     S
C399   O532    1.390   .     S
C400   O428    1.292   .     A
C400   O430    1.290   .     A
C401   O429    1.292   .     A
C401   O431    1.290   .     A
C402   O432    1.388   .     S
Cu403  N416    2.018   .     S
Cu403  O431    1.954   .     S
Cu403  O427    1.967   .     S
Cu403  O419    1.972   .     S
Cu403  O428    1.973   .     S
Cu403  Cu404   2.685   .     S
Cu404  N415    2.018   .     S
Cu404  O430    1.954   .     S
Cu404  O426    1.967   .     S
Cu404  O429    1.973   .     S
Cu404  O425    1.972   .     S
H406   O532    0.989   .     S
H408   N739    1.029   .     S
H410   O432    0.988   .     S
H411   O420    0.988   .     S
H412   O421    0.992   .     S
H413   O422    0.992   .     S
H414   O639    0.989   1_545 S
N416   N739    1.299   .     S
N416   H733    1.029   .     S
O423   H522    0.989   .     S
O423   C506    1.390   .     S
O424   C615    1.390   1_545 S
O424   H622    0.989   1_545 S
C433   O480    1.286   .     A
C433   O473    1.291   .     A
C433   C452    1.441   .     S
C434   C436    1.410   .     A
C434   O474    1.388   .     S
C434   C445    1.399   .     A
C435   C437    1.407   .     A
C435   C456    1.410   .     A
C435   C455    1.451   .     S
C436   C454    1.451   .     S
C436   C438    1.407   .     A
C437   C439    1.414   .     A
C437   C448    1.452   .     S
C438   C449    1.452   .     S
C438   C440    1.414   .     A
C439   C441    1.423   .     A
C439   C446    1.422   .     A
C440   C447    1.422   .     A
C440   C442    1.423   .     A
C441   C443    1.414   .     A
C441   C496    1.414   .     S
C442   C445    1.414   .     A
C442   C495    1.414   1_455 S
C443   C451    1.399   .     A
C443   C456    1.399   .     A
C444   O481    1.286   .     A
C444   O479    1.291   .     A
C444   C453    1.441   .     S
C445   C450    1.399   .     A
C446   O475    1.376   .     S
C446   C504    1.386   .     S
C447   O476    1.376   .     S
C447   C505    1.386   1_455 S
C448   N471    1.157   .     T
C449   N472    1.157   .     T
C450   H459    1.084   .     S
C450   C500    1.386   1_455 S
C451   H461    1.084   .     S
C451   C501    1.386   .     S
C453   C560    1.348   .     S
C453   O586    1.390   .     S
C454   O482    1.292   .     A
C454   O484    1.290   .     A
C455   O483    1.292   .     A
C455   O485    1.290   .     A
C456   O486    1.388   .     S
Cu457  N470    2.018   .     S
Cu457  O485    1.954   .     S
Cu457  O481    1.967   .     S
Cu457  O473    1.972   .     S
Cu457  O482    1.973   .     S
Cu457  Cu458   2.685   .     S
Cu458  N469    2.018   .     S
Cu458  O484    1.954   .     S
Cu458  O480    1.967   .     S
Cu458  O483    1.973   .     S
Cu458  O479    1.972   .     S
H460   O586    0.989   .     S
H462   N793    1.029   .     S
H464   O486    0.988   .     S
H465   O474    0.988   .     S
H466   O475    0.992   .     S
H467   O476    0.992   .     S
N470   N793    1.299   .     S
N470   H787    1.029   .     S
O477   H576    0.989   .     S
O477   C560    1.390   .     S
C487   O534    1.286   .     A
C487   O527    1.291   .     A
C487   C506    1.441   .     S
C488   C490    1.410   .     A
C488   O528    1.388   .     S
C488   C499    1.399   .     A
C489   C491    1.407   .     A
C489   C510    1.410   .     A
C489   C509    1.451   .     S
C490   C508    1.451   .     S
C490   C492    1.407   .     A
C491   C493    1.414   .     A
C491   C502    1.452   .     S
C492   C503    1.452   .     S
C492   C494    1.414   .     A
C493   C495    1.423   .     A
C493   C500    1.422   .     A
C494   C501    1.422   .     A
C494   C496    1.423   .     A
C495   C497    1.414   .     A
C495   C442    1.414   1_655 S
C496   C499    1.414   .     A
C497   C505    1.399   .     A
C497   C510    1.399   .     A
C498   O535    1.286   .     A
C498   O533    1.291   .     A
C498   C507    1.441   .     S
C499   C504    1.399   .     A
C500   O529    1.376   .     S
C500   C450    1.386   1_655 S
C501   O530    1.376   .     S
C502   N525    1.157   .     T
C503   N526    1.157   .     T
C504   H513    1.084   .     S
C505   H515    1.084   .     S
C505   C447    1.386   1_655 S
C507   C614    1.348   .     S
C507   O640    1.390   .     S
C508   O536    1.292   .     A
C508   O538    1.290   .     A
C509   O537    1.292   .     A
C509   O539    1.290   .     A
C510   O540    1.388   .     S
Cu511  N524    2.018   .     S
Cu511  O539    1.954   .     S
Cu511  O535    1.967   .     S
Cu511  O527    1.972   .     S
Cu511  O536    1.973   .     S
Cu511  Cu512   2.685   .     S
Cu512  N523    2.018   .     S
Cu512  O538    1.954   .     S
Cu512  O534    1.967   .     S
Cu512  O537    1.973   .     S
Cu512  O533    1.972   .     S
H514   O640    0.989   .     S
H516   N847    1.029   .     S
H518   O540    0.988   .     S
H519   O528    0.988   .     S
H520   O529    0.992   .     S
H521   O530    0.992   .     S
N524   N847    1.299   .     S
N524   H841    1.029   .     S
O531   H630    0.989   .     S
O531   C614    1.390   .     S
C541   O588    1.286   .     A
C541   O581    1.291   .     A
C541   C560    1.441   .     S
C542   C544    1.410   .     A
C542   O582    1.388   .     S
C542   C553    1.399   .     A
C543   C545    1.407   .     A
C543   C564    1.410   .     A
C543   C563    1.451   .     S
C544   C562    1.451   .     S
C544   C546    1.407   .     A
C545   C547    1.414   .     A
C545   C556    1.452   .     S
C546   C557    1.452   .     S
C546   C548    1.414   .     A
C547   C549    1.423   .     A
C547   C554    1.422   .     A
C548   C555    1.422   .     A
C548   C550    1.423   .     A
C549   C551    1.414   .     A
C549   C604    1.414   .     S
C550   C553    1.414   .     A
C550   C603    1.414   1_455 S
C551   C559    1.399   .     A
C551   C564    1.399   .     A
C552   O589    1.286   .     A
C552   O587    1.291   .     A
C552   C561    1.441   .     S
C553   C558    1.399   .     A
C554   O583    1.376   .     S
C554   C612    1.386   .     S
C555   O584    1.376   .     S
C555   C613    1.386   1_455 S
C556   N579    1.157   .     T
C557   N580    1.157   .     T
C558   H567    1.084   .     S
C558   C608    1.386   1_455 S
C559   H569    1.084   .     S
C559   C609    1.386   .     S
C561   C344    1.348   1_565 S
C561   O370    1.390   1_565 S
C562   O590    1.292   .     A
C562   O592    1.290   .     A
C563   O591    1.292   .     A
C563   O593    1.290   .     A
C564   O594    1.388   .     S
Cu565  N578    2.018   .     S
Cu565  O593    1.954   .     S
Cu565  O589    1.967   .     S
Cu565  O581    1.972   .     S
Cu565  O590    1.973   .     S
Cu565  Cu566   2.685   .     S
Cu566  N577    2.018   .     S
Cu566  O592    1.954   .     S
Cu566  O588    1.967   .     S
Cu566  O591    1.973   .     S
Cu566  O587    1.972   .     S
H568   O370    0.989   1_565 S
H570   N901    1.029   .     S
H572   O594    0.988   .     S
H573   O582    0.988   .     S
H574   O583    0.992   .     S
H575   O584    0.992   .     S
N578   N901    1.299   .     S
N578   H895    1.029   .     S
O585   H360    0.989   1_565 S
O585   C344    1.390   1_565 S
C595   O642    1.286   .     A
C595   O635    1.291   .     A
C595   C614    1.441   .     S
C596   C598    1.410   .     A
C596   O636    1.388   .     S
C596   C607    1.399   .     A
C597   C599    1.407   .     A
C597   C618    1.410   .     A
C597   C617    1.451   .     S
C598   C616    1.451   .     S
C598   C600    1.407   .     A
C599   C601    1.414   .     A
C599   C610    1.452   .     S
C600   C611    1.452   .     S
C600   C602    1.414   .     A
C601   C603    1.423   .     A
C601   C608    1.422   .     A
C602   C609    1.422   .     A
C602   C604    1.423   .     A
C603   C605    1.414   .     A
C603   C550    1.414   1_655 S
C604   C607    1.414   .     A
C605   C613    1.399   .     A
C605   C618    1.399   .     A
C606   O643    1.286   .     A
C606   O641    1.291   .     A
C606   C615    1.441   .     S
C607   C612    1.399   .     A
C608   O637    1.376   .     S
C608   C558    1.386   1_655 S
C609   O638    1.376   .     S
C610   N633    1.157   .     T
C611   N634    1.157   .     T
C612   H621    1.084   .     S
C613   H623    1.084   .     S
C613   C555    1.386   1_655 S
C615   C398    1.348   1_565 S
C615   O424    1.390   1_565 S
C616   O644    1.292   .     A
C616   O646    1.290   .     A
C617   O645    1.292   .     A
C617   O647    1.290   .     A
C618   O648    1.388   .     S
Cu619  N632    2.018   .     S
Cu619  O647    1.954   .     S
Cu619  O643    1.967   .     S
Cu619  O635    1.972   .     S
Cu619  O644    1.973   .     S
Cu619  Cu620   2.685   .     S
Cu620  N631    2.018   .     S
Cu620  O646    1.954   .     S
Cu620  O642    1.967   .     S
Cu620  O645    1.973   .     S
Cu620  O641    1.972   .     S
H622   O424    0.989   1_565 S
H624   N955    1.029   .     S
H626   O648    0.988   .     S
H627   O636    0.988   .     S
H628   O637    0.992   .     S
H629   O638    0.992   .     S
N632   N955    1.299   .     S
N632   H949    1.029   .     S
O639   H414    0.989   1_565 S
O639   C398    1.390   1_565 S
C649   O696    1.286   .     A
C649   O689    1.291   .     A
C649   C668    1.441   .     S
C650   C652    1.410   .     A
C650   O690    1.388   .     S
C650   C661    1.399   .     A
C651   C653    1.407   .     A
C651   C672    1.410   .     A
C651   C671    1.451   .     S
C652   C670    1.451   .     S
C652   C654    1.407   .     A
C653   C655    1.414   .     A
C653   C664    1.452   .     S
C654   C665    1.452   .     S
C654   C656    1.414   .     A
C655   C657    1.423   .     A
C655   C662    1.422   .     A
C656   C663    1.422   .     A
C656   C658    1.423   .     A
C657   C659    1.414   .     A
C657   C712    1.414   .     S
C658   C661    1.414   .     A
C658   C711    1.414   1_455 S
C659   C667    1.399   .     A
C659   C672    1.399   .     A
C660   O697    1.286   .     A
C660   O695    1.291   .     A
C660   C669    1.441   .     S
C661   C666    1.399   .     A
C662   O691    1.376   .     S
C662   C720    1.386   .     S
C663   O692    1.376   .     S
C663   C721    1.386   1_455 S
C664   N687    1.157   .     T
C665   N688    1.157   .     T
C666   H675    1.084   .     S
C666   C716    1.386   1_455 S
C667   H677    1.084   .     S
C667   C717    1.386   .     S
C668   C885    1.348   1_545 S
C668   O909    1.390   1_545 S
C669   C776    1.348   .     S
C669   O802    1.390   .     S
C670   O698    1.292   .     A
C670   O700    1.290   .     A
C671   O699    1.292   .     A
C671   O701    1.290   .     A
C672   O702    1.388   .     S
Cu673  N686    2.018   .     S
Cu673  O701    1.954   .     S
Cu673  O697    1.967   .     S
Cu673  O689    1.972   .     S
Cu673  O698    1.973   .     S
Cu673  Cu674   2.685   .     S
Cu674  N685    2.018   .     S
Cu674  O700    1.954   .     S
Cu674  O696    1.967   .     S
Cu674  O699    1.973   .     S
Cu674  O695    1.972   .     S
H676   O802    0.989   .     S
H678   N37     1.029   1_556 S
H680   O702    0.988   .     S
H681   O690    0.988   .     S
H682   O691    0.992   .     S
H683   O692    0.992   .     S
H684   O909    0.989   1_545 S
N686   N37     1.299   1_556 S
N686   H31     1.029   1_556 S
O693   H792    0.989   .     S
O693   C776    1.390   .     S
O694   C885    1.390   1_545 S
O694   H892    0.989   1_545 S
C703   O750    1.286   .     A
C703   O743    1.291   .     A
C703   C722    1.441   .     S
C704   C706    1.410   .     A
C704   O744    1.388   .     S
C704   C715    1.399   .     A
C705   C707    1.407   .     A
C705   C726    1.410   .     A
C705   C725    1.451   .     S
C706   C724    1.451   .     S
C706   C708    1.407   .     A
C707   C709    1.414   .     A
C707   C718    1.452   .     S
C708   C719    1.452   .     S
C708   C710    1.414   .     A
C709   C711    1.423   .     A
C709   C716    1.422   .     A
C710   C717    1.422   .     A
C710   C712    1.423   .     A
C711   C713    1.414   .     A
C711   C658    1.414   1_655 S
C712   C715    1.414   .     A
C713   C721    1.399   .     A
C713   C726    1.399   .     A
C714   O751    1.286   .     A
C714   O749    1.291   .     A
C714   C723    1.441   .     S
C715   C720    1.399   .     A
C716   O745    1.376   .     S
C716   C666    1.386   1_655 S
C717   O746    1.376   .     S
C718   N741    1.157   .     T
C719   N742    1.157   .     T
C720   H729    1.084   .     S
C721   H731    1.084   .     S
C721   C663    1.386   1_655 S
C722   C939    1.348   1_545 S
C722   O963    1.390   1_545 S
C723   C830    1.348   .     S
C723   O856    1.390   .     S
C724   O752    1.292   .     A
C724   O754    1.290   .     A
C725   O753    1.292   .     A
C725   O755    1.290   .     A
C726   O756    1.388   .     S
Cu727  N740    2.018   .     S
Cu727  O755    1.954   .     S
Cu727  O751    1.967   .     S
Cu727  O743    1.972   .     S
Cu727  O752    1.973   .     S
Cu727  Cu728   2.685   .     S
Cu728  N739    2.018   .     S
Cu728  O754    1.954   .     S
Cu728  O750    1.967   .     S
Cu728  O753    1.973   .     S
Cu728  O749    1.972   .     S
H730   O856    0.989   .     S
H732   N91     1.029   1_556 S
H734   O756    0.988   .     S
H735   O744    0.988   .     S
H736   O745    0.992   .     S
H737   O746    0.992   .     S
H738   O963    0.989   1_545 S
N740   N91     1.299   1_556 S
N740   H85     1.029   1_556 S
O747   H846    0.989   .     S
O747   C830    1.390   .     S
O748   C939    1.390   1_545 S
O748   H946    0.989   1_545 S
C757   O804    1.286   .     A
C757   O797    1.291   .     A
C757   C776    1.441   .     S
C758   C760    1.410   .     A
C758   O798    1.388   .     S
C758   C769    1.399   .     A
C759   C761    1.407   .     A
C759   C780    1.410   .     A
C759   C779    1.451   .     S
C760   C778    1.451   .     S
C760   C762    1.407   .     A
C761   C763    1.414   .     A
C761   C772    1.452   .     S
C762   C773    1.452   .     S
C762   C764    1.414   .     A
C763   C765    1.423   .     A
C763   C770    1.422   .     A
C764   C771    1.422   .     A
C764   C766    1.423   .     A
C765   C767    1.414   .     A
C765   C820    1.414   .     S
C766   C769    1.414   .     A
C766   C819    1.414   1_455 S
C767   C775    1.399   .     A
C767   C780    1.399   .     A
C768   O805    1.286   .     A
C768   O803    1.291   .     A
C768   C777    1.441   .     S
C769   C774    1.399   .     A
C770   O799    1.376   .     S
C770   C828    1.386   .     S
C771   O800    1.376   .     S
C771   C829    1.386   1_455 S
C772   N795    1.157   .     T
C773   N796    1.157   .     T
C774   H783    1.084   .     S
C774   C824    1.386   1_455 S
C775   H785    1.084   .     S
C775   C825    1.386   .     S
C777   C884    1.348   .     S
C777   O910    1.390   .     S
C778   O806    1.292   .     A
C778   O808    1.290   .     A
C779   O807    1.292   .     A
C779   O809    1.290   .     A
C780   O810    1.388   .     S
Cu781  N794    2.018   .     S
Cu781  O809    1.954   .     S
Cu781  O805    1.967   .     S
Cu781  O797    1.972   .     S
Cu781  O806    1.973   .     S
Cu781  Cu782   2.685   .     S
Cu782  N793    2.018   .     S
Cu782  O808    1.954   .     S
Cu782  O804    1.967   .     S
Cu782  O807    1.973   .     S
Cu782  O803    1.972   .     S
H784   O910    0.989   .     S
H786   N145    1.029   1_556 S
H788   O810    0.988   .     S
H789   O798    0.988   .     S
H790   O799    0.992   .     S
H791   O800    0.992   .     S
N794   N145    1.299   1_556 S
N794   H139    1.029   1_556 S
O801   H900    0.989   .     S
O801   C884    1.390   .     S
C811   O858    1.286   .     A
C811   O851    1.291   .     A
C811   C830    1.441   .     S
C812   C814    1.410   .     A
C812   O852    1.388   .     S
C812   C823    1.399   .     A
C813   C815    1.407   .     A
C813   C834    1.410   .     A
C813   C833    1.451   .     S
C814   C832    1.451   .     S
C814   C816    1.407   .     A
C815   C817    1.414   .     A
C815   C826    1.452   .     S
C816   C827    1.452   .     S
C816   C818    1.414   .     A
C817   C819    1.423   .     A
C817   C824    1.422   .     A
C818   C825    1.422   .     A
C818   C820    1.423   .     A
C819   C821    1.414   .     A
C819   C766    1.414   1_655 S
C820   C823    1.414   .     A
C821   C829    1.399   .     A
C821   C834    1.399   .     A
C822   O859    1.286   .     A
C822   O857    1.291   .     A
C822   C831    1.441   .     S
C823   C828    1.399   .     A
C824   O853    1.376   .     S
C824   C774    1.386   1_655 S
C825   O854    1.376   .     S
C826   N849    1.157   .     T
C827   N850    1.157   .     T
C828   H837    1.084   .     S
C829   H839    1.084   .     S
C829   C771    1.386   1_655 S
C831   C938    1.348   .     S
C831   O964    1.390   .     S
C832   O860    1.292   .     A
C832   O862    1.290   .     A
C833   O861    1.292   .     A
C833   O863    1.290   .     A
C834   O864    1.388   .     S
Cu835  N848    2.018   .     S
Cu835  O863    1.954   .     S
Cu835  O859    1.967   .     S
Cu835  O851    1.972   .     S
Cu835  O860    1.973   .     S
Cu835  Cu836   2.685   .     S
Cu836  N847    2.018   .     S
Cu836  O862    1.954   .     S
Cu836  O858    1.967   .     S
Cu836  O861    1.973   .     S
Cu836  O857    1.972   .     S
H838   O964    0.989   .     S
H840   N199    1.029   1_556 S
H842   O864    0.988   .     S
H843   O852    0.988   .     S
H844   O853    0.992   .     S
H845   O854    0.992   .     S
N848   N199    1.299   1_556 S
N848   H193    1.029   1_556 S
O855   H954    0.989   .     S
O855   C938    1.390   .     S
C865   O912    1.286   .     A
C865   O905    1.291   .     A
C865   C884    1.441   .     S
C866   C868    1.410   .     A
C866   O906    1.388   .     S
C866   C877    1.399   .     A
C867   C869    1.407   .     A
C867   C888    1.410   .     A
C867   C887    1.451   .     S
C868   C886    1.451   .     S
C868   C870    1.407   .     A
C869   C871    1.414   .     A
C869   C880    1.452   .     S
C870   C881    1.452   .     S
C870   C872    1.414   .     A
C871   C873    1.423   .     A
C871   C878    1.422   .     A
C872   C879    1.422   .     A
C872   C874    1.423   .     A
C873   C875    1.414   .     A
C873   C928    1.414   .     S
C874   C877    1.414   .     A
C874   C927    1.414   1_455 S
C875   C883    1.399   .     A
C875   C888    1.399   .     A
C876   O913    1.286   .     A
C876   O911    1.291   .     A
C876   C885    1.441   .     S
C877   C882    1.399   .     A
C878   O907    1.376   .     S
C878   C936    1.386   .     S
C879   O908    1.376   .     S
C879   C937    1.386   1_455 S
C880   N903    1.157   .     T
C881   N904    1.157   .     T
C882   H891    1.084   .     S
C882   C932    1.386   1_455 S
C883   H893    1.084   .     S
C883   C933    1.386   .     S
C885   C668    1.348   1_565 S
C885   O694    1.390   1_565 S
C886   O914    1.292   .     A
C886   O916    1.290   .     A
C887   O915    1.292   .     A
C887   O917    1.290   .     A
C888   O918    1.388   .     S
Cu889  N902    2.018   .     S
Cu889  O917    1.954   .     S
Cu889  O913    1.967   .     S
Cu889  O905    1.972   .     S
Cu889  O914    1.973   .     S
Cu889  Cu890   2.685   .     S
Cu890  N901    2.018   .     S
Cu890  O916    1.954   .     S
Cu890  O912    1.967   .     S
Cu890  O915    1.973   .     S
Cu890  O911    1.972   .     S
H892   O694    0.989   1_565 S
H894   N253    1.029   1_556 S
H896   O918    0.988   .     S
H897   O906    0.988   .     S
H898   O907    0.992   .     S
H899   O908    0.992   .     S
N902   N253    1.299   1_556 S
N902   H247    1.029   1_556 S
O909   H684    0.989   1_565 S
O909   C668    1.390   1_565 S
C919   O966    1.286   .     A
C919   O959    1.291   .     A
C919   C938    1.441   .     S
C920   C922    1.410   .     A
C920   O960    1.388   .     S
C920   C931    1.399   .     A
C921   C923    1.407   .     A
C921   C942    1.410   .     A
C921   C941    1.451   .     S
C922   C940    1.451   .     S
C922   C924    1.407   .     A
C923   C925    1.414   .     A
C923   C934    1.452   .     S
C924   C935    1.452   .     S
C924   C926    1.414   .     A
C925   C927    1.423   .     A
C925   C932    1.422   .     A
C926   C933    1.422   .     A
C926   C928    1.423   .     A
C927   C929    1.414   .     A
C927   C874    1.414   1_655 S
C928   C931    1.414   .     A
C929   C937    1.399   .     A
C929   C942    1.399   .     A
C930   O967    1.286   .     A
C930   O965    1.291   .     A
C930   C939    1.441   .     S
C931   C936    1.399   .     A
C932   O961    1.376   .     S
C932   C882    1.386   1_655 S
C933   O962    1.376   .     S
C934   N957    1.157   .     T
C935   N958    1.157   .     T
C936   H945    1.084   .     S
C937   H947    1.084   .     S
C937   C879    1.386   1_655 S
C939   C722    1.348   1_565 S
C939   O748    1.390   1_565 S
C940   O968    1.292   .     A
C940   O970    1.290   .     A
C941   O969    1.292   .     A
C941   O971    1.290   .     A
C942   O972    1.388   .     S
Cu943  N956    2.018   .     S
Cu943  O971    1.954   .     S
Cu943  O967    1.967   .     S
Cu943  O959    1.972   .     S
Cu943  O968    1.973   .     S
Cu943  Cu944   2.685   .     S
Cu944  N955    2.018   .     S
Cu944  O970    1.954   .     S
Cu944  O966    1.967   .     S
Cu944  O969    1.973   .     S
Cu944  O965    1.972   .     S
H946   O748    0.989   1_565 S
H948   N307    1.029   1_556 S
H950   O972    0.988   .     S
H951   O960    0.988   .     S
H952   O961    0.992   .     S
H953   O962    0.992   .     S
N956   N307    1.299   1_556 S
N956   H301    1.029   1_556 S
O963   H738    0.989   1_565 S
O963   C722    1.390   1_565 S
