data_str_m3_o2_o10_pcu_sym.191
_audit_creation_date              2020-01-03
_audit_creation_method            'Materials Studio'
_symmetry_space_group_name_H-M    'P1'
_symmetry_Int_Tables_number       1
_symmetry_cell_setting            triclinic
loop_
_symmetry_equiv_pos_as_xyz
  x,y,z
_cell_length_a                    25.7725
_cell_length_b                    30.0109
_cell_length_c                    28.4622
_cell_angle_alpha                 90.4156
_cell_angle_beta                  98.9508
_cell_angle_gamma                 90.4780
loop_
_atom_site_label
_atom_site_type_symbol
_atom_site_fract_x
_atom_site_fract_y
_atom_site_fract_z
_atom_site_U_iso_or_equiv
_atom_site_adp_type
_atom_site_occupancy
C1     C     0.16641   0.16394   0.24983   0.00000  Uiso   1.00
C2     C     0.16652   0.33607   0.25011   0.00000  Uiso   1.00
C3     C     0.13788   0.21843   0.04823   0.00000  Uiso   1.00
C4     C     0.20467   0.27347   0.45303   0.00000  Uiso   1.00
C5     C     0.13770   0.21908   0.09751   0.00000  Uiso   1.00
C6     C     0.20391   0.27368   0.40363   0.00000  Uiso   1.00
C7     C     0.19442   0.28179   0.10664   0.00000  Uiso   1.00
C8     C     0.12839   0.22740   0.39195   0.00000  Uiso   1.00
C9     C     0.19399   0.28322   0.05715   0.00000  Uiso   1.00
C10    C     0.12668   0.22781   0.44115   0.00000  Uiso   1.00
C11    C     0.16588   0.25085   0.02661   0.00000  Uiso   1.00
C12    C     0.16565   0.25068   0.47316   0.00000  Uiso   1.00
C13    C     0.06702   0.24995   0.23750   0.00000  Uiso   1.00
C14    C     0.26631   0.25002   0.26250   0.00000  Uiso   1.00
C15    C     0.01190   0.24994   0.23083   0.00000  Uiso   1.00
C16    C     0.32143   0.25001   0.26918   0.00000  Uiso   1.00
C17    C     0.14558   0.04739   0.28608   0.00000  Uiso   1.00
C18    C     0.14604   0.45225   0.20778   0.00000  Uiso   1.00
C19    C     0.14657   0.09338   0.28628   0.00000  Uiso   1.00
C20    C     0.14710   0.40629   0.20791   0.00000  Uiso   1.00
C21    C     0.16537   0.11604   0.24946   0.00000  Uiso   1.00
C22    C     0.16558   0.38397   0.25013   0.00000  Uiso   1.00
C23    C     0.18308   0.09273   0.21239   0.00000  Uiso   1.00
C24    C     0.18304   0.40761   0.29223   0.00000  Uiso   1.00
C25    C     0.18268   0.04672   0.21249   0.00000  Uiso   1.00
C26    C     0.18256   0.45362   0.29196   0.00000  Uiso   1.00
C27    C     0.16394   0.02405   0.24935   0.00000  Uiso   1.00
C28    C     0.16403   0.47594   0.24973   0.00000  Uiso   1.00
H29    H     0.32442   0.24988   0.19452   0.00000  Uiso   1.00
H30    H     0.00892   0.25007   0.30550   0.00000  Uiso   1.00
H31    H     0.13028   0.03006   0.31433   0.00000  Uiso   1.00
H32    H     0.13094   0.46930   0.17515   0.00000  Uiso   1.00
H33    H     0.13217   0.11116   0.31484   0.00000  Uiso   1.00
H34    H     0.13296   0.38826   0.17524   0.00000  Uiso   1.00
H35    H     0.19799   0.11001   0.18389   0.00000  Uiso   1.00
H36    H     0.19774   0.39062   0.32499   0.00000  Uiso   1.00
H37    H     0.19760   0.02885   0.18428   0.00000  Uiso   1.00
H38    H     0.19723   0.47177   0.32442   0.00000  Uiso   1.00
H39    H     0.11604   0.19221   0.02751   0.00000  Uiso   1.00
H40    H     0.23621   0.29120   0.47506   0.00000  Uiso   1.00
H41    H     0.21648   0.30665   0.12938   0.00000  Uiso   1.00
H42    H     0.09846   0.20939   0.36817   0.00000  Uiso   1.00
H43    H     0.21518   0.31013   0.04346   0.00000  Uiso   1.00
H44    H     0.09435   0.21064   0.45334   0.00000  Uiso   1.00
N45    N     0.16667   0.24999   0.12624   0.00000  Uiso   1.00
N46    N     0.16667   0.25001   0.37376   0.00000  Uiso   1.00
O47    O     0.16667   0.18454   0.28974   0.00000  Uiso   1.00
O48    O     0.16666   0.31547   0.21026   0.00000  Uiso   1.00
O49    O     0.16667   0.18453   0.21026   0.00000  Uiso   1.00
O50    O     0.16666   0.31547   0.28974   0.00000  Uiso   1.00
O51    O     0.09058   0.25000   0.28044   0.00000  Uiso   1.00
O52    O     0.24275   0.25000   0.21956   0.00000  Uiso   1.00
O53    O     0.09058   0.25000   0.20096   0.00000  Uiso   1.00
O54    O     0.24275   0.25001   0.29904   0.00000  Uiso   1.00
Zn55   Zn    0.16667   0.25001   0.30307   0.00000  Uiso   1.00
Zn56   Zn    0.16667   0.25000   0.19693   0.00000  Uiso   1.00
Cl57   Cl    0.09769   0.18005   0.12077   0.00000  Uiso   1.00
Cl58   Cl    0.25106   0.30653   0.38141   0.00000  Uiso   1.00
C59    C     0.49974   0.16394   0.24983   0.00000  Uiso   1.00
C60    C     0.49986   0.33607   0.25011   0.00000  Uiso   1.00
C61    C     0.47121   0.21843   0.04823   0.00000  Uiso   1.00
C62    C     0.53801   0.27347   0.45303   0.00000  Uiso   1.00
C63    C     0.47103   0.21908   0.09751   0.00000  Uiso   1.00
C64    C     0.53724   0.27368   0.40363   0.00000  Uiso   1.00
C65    C     0.52775   0.28179   0.10664   0.00000  Uiso   1.00
C66    C     0.46172   0.22740   0.39195   0.00000  Uiso   1.00
C67    C     0.52732   0.28322   0.05715   0.00000  Uiso   1.00
C68    C     0.46002   0.22781   0.44115   0.00000  Uiso   1.00
C69    C     0.49921   0.25085   0.02661   0.00000  Uiso   1.00
C70    C     0.49899   0.25068   0.47316   0.00000  Uiso   1.00
C71    C     0.40035   0.24995   0.23750   0.00000  Uiso   1.00
C72    C     0.59965   0.25002   0.26250   0.00000  Uiso   1.00
C73    C     0.34524   0.24994   0.23083   0.00000  Uiso   1.00
C74    C     0.65476   0.25001   0.26918   0.00000  Uiso   1.00
C75    C     0.47891   0.04739   0.28608   0.00000  Uiso   1.00
C76    C     0.47937   0.45225   0.20778   0.00000  Uiso   1.00
C77    C     0.47990   0.09338   0.28628   0.00000  Uiso   1.00
C78    C     0.48043   0.40629   0.20791   0.00000  Uiso   1.00
C79    C     0.49870   0.11604   0.24946   0.00000  Uiso   1.00
C80    C     0.49891   0.38397   0.25013   0.00000  Uiso   1.00
C81    C     0.51642   0.09273   0.21239   0.00000  Uiso   1.00
C82    C     0.51637   0.40761   0.29223   0.00000  Uiso   1.00
C83    C     0.51601   0.04672   0.21249   0.00000  Uiso   1.00
C84    C     0.51589   0.45362   0.29196   0.00000  Uiso   1.00
C85    C     0.49727   0.02405   0.24935   0.00000  Uiso   1.00
C86    C     0.49736   0.47594   0.24973   0.00000  Uiso   1.00
H87    H     0.65775   0.24988   0.19452   0.00000  Uiso   1.00
H88    H     0.34225   0.25007   0.30550   0.00000  Uiso   1.00
H89    H     0.46361   0.03006   0.31433   0.00000  Uiso   1.00
H90    H     0.46427   0.46930   0.17515   0.00000  Uiso   1.00
H91    H     0.46550   0.11116   0.31484   0.00000  Uiso   1.00
H92    H     0.46629   0.38826   0.17524   0.00000  Uiso   1.00
H93    H     0.53132   0.11001   0.18389   0.00000  Uiso   1.00
H94    H     0.53107   0.39062   0.32499   0.00000  Uiso   1.00
H95    H     0.53093   0.02885   0.18428   0.00000  Uiso   1.00
H96    H     0.53056   0.47177   0.32442   0.00000  Uiso   1.00
H97    H     0.44937   0.19221   0.02751   0.00000  Uiso   1.00
H98    H     0.56954   0.29120   0.47506   0.00000  Uiso   1.00
H99    H     0.54981   0.30665   0.12938   0.00000  Uiso   1.00
H100   H     0.43179   0.20939   0.36817   0.00000  Uiso   1.00
H101   H     0.54851   0.31013   0.04346   0.00000  Uiso   1.00
H102   H     0.42769   0.21064   0.45334   0.00000  Uiso   1.00
N103   N     0.50000   0.24999   0.12624   0.00000  Uiso   1.00
N104   N     0.50000   0.25001   0.37376   0.00000  Uiso   1.00
O105   O     0.50000   0.18454   0.28974   0.00000  Uiso   1.00
O106   O     0.50000   0.31547   0.21026   0.00000  Uiso   1.00
O107   O     0.50000   0.18453   0.21026   0.00000  Uiso   1.00
O108   O     0.50000   0.31547   0.28974   0.00000  Uiso   1.00
O109   O     0.42392   0.25000   0.28044   0.00000  Uiso   1.00
O110   O     0.57608   0.25000   0.21956   0.00000  Uiso   1.00
O111   O     0.42392   0.25000   0.20096   0.00000  Uiso   1.00
O112   O     0.57608   0.25001   0.29904   0.00000  Uiso   1.00
Zn113  Zn    0.50000   0.25001   0.30307   0.00000  Uiso   1.00
Zn114  Zn    0.50000   0.25000   0.19693   0.00000  Uiso   1.00
Cl115  Cl    0.43103   0.18005   0.12077   0.00000  Uiso   1.00
Cl116  Cl    0.58439   0.30653   0.38141   0.00000  Uiso   1.00
C117   C     0.83308   0.16394   0.24983   0.00000  Uiso   1.00
C118   C     0.83319   0.33607   0.25011   0.00000  Uiso   1.00
C119   C     0.80454   0.21843   0.04823   0.00000  Uiso   1.00
C120   C     0.87134   0.27347   0.45303   0.00000  Uiso   1.00
C121   C     0.80436   0.21908   0.09751   0.00000  Uiso   1.00
C122   C     0.87058   0.27368   0.40363   0.00000  Uiso   1.00
C123   C     0.86109   0.28179   0.10664   0.00000  Uiso   1.00
C124   C     0.79505   0.22740   0.39195   0.00000  Uiso   1.00
C125   C     0.86066   0.28322   0.05715   0.00000  Uiso   1.00
C126   C     0.79335   0.22781   0.44115   0.00000  Uiso   1.00
C127   C     0.83254   0.25085   0.02661   0.00000  Uiso   1.00
C128   C     0.83232   0.25068   0.47316   0.00000  Uiso   1.00
C129   C     0.73369   0.24995   0.23750   0.00000  Uiso   1.00
C130   C     0.93298   0.25002   0.26250   0.00000  Uiso   1.00
C131   C     0.67857   0.24994   0.23083   0.00000  Uiso   1.00
C132   C     0.98810   0.25001   0.26918   0.00000  Uiso   1.00
C133   C     0.81224   0.04739   0.28608   0.00000  Uiso   1.00
C134   C     0.81271   0.45225   0.20778   0.00000  Uiso   1.00
C135   C     0.81323   0.09338   0.28628   0.00000  Uiso   1.00
C136   C     0.81377   0.40629   0.20791   0.00000  Uiso   1.00
C137   C     0.83203   0.11604   0.24946   0.00000  Uiso   1.00
C138   C     0.83225   0.38397   0.25013   0.00000  Uiso   1.00
C139   C     0.84975   0.09273   0.21239   0.00000  Uiso   1.00
C140   C     0.84970   0.40761   0.29223   0.00000  Uiso   1.00
C141   C     0.84934   0.04672   0.21249   0.00000  Uiso   1.00
C142   C     0.84923   0.45362   0.29196   0.00000  Uiso   1.00
C143   C     0.83060   0.02405   0.24935   0.00000  Uiso   1.00
C144   C     0.83070   0.47594   0.24973   0.00000  Uiso   1.00
H145   H     0.99108   0.24988   0.19452   0.00000  Uiso   1.00
H146   H     0.67558   0.25007   0.30550   0.00000  Uiso   1.00
H147   H     0.79694   0.03006   0.31433   0.00000  Uiso   1.00
H148   H     0.79760   0.46930   0.17515   0.00000  Uiso   1.00
H149   H     0.79883   0.11116   0.31484   0.00000  Uiso   1.00
H150   H     0.79963   0.38826   0.17524   0.00000  Uiso   1.00
H151   H     0.86466   0.11001   0.18389   0.00000  Uiso   1.00
H152   H     0.86440   0.39062   0.32499   0.00000  Uiso   1.00
H153   H     0.86426   0.02885   0.18428   0.00000  Uiso   1.00
H154   H     0.86389   0.47177   0.32442   0.00000  Uiso   1.00
H155   H     0.78270   0.19221   0.02751   0.00000  Uiso   1.00
H156   H     0.90287   0.29120   0.47506   0.00000  Uiso   1.00
H157   H     0.88315   0.30665   0.12938   0.00000  Uiso   1.00
H158   H     0.76513   0.20939   0.36817   0.00000  Uiso   1.00
H159   H     0.88185   0.31013   0.04346   0.00000  Uiso   1.00
H160   H     0.76102   0.21064   0.45334   0.00000  Uiso   1.00
N161   N     0.83333   0.24999   0.12624   0.00000  Uiso   1.00
N162   N     0.83333   0.25001   0.37376   0.00000  Uiso   1.00
O163   O     0.83334   0.18454   0.28974   0.00000  Uiso   1.00
O164   O     0.83333   0.31547   0.21026   0.00000  Uiso   1.00
O165   O     0.83334   0.18453   0.21026   0.00000  Uiso   1.00
O166   O     0.83333   0.31547   0.28974   0.00000  Uiso   1.00
O167   O     0.75725   0.25000   0.28044   0.00000  Uiso   1.00
O168   O     0.90942   0.25000   0.21956   0.00000  Uiso   1.00
O169   O     0.75725   0.25000   0.20096   0.00000  Uiso   1.00
O170   O     0.90942   0.25001   0.29904   0.00000  Uiso   1.00
Zn171  Zn    0.83333   0.25001   0.30307   0.00000  Uiso   1.00
Zn172  Zn    0.83333   0.25000   0.19693   0.00000  Uiso   1.00
Cl173  Cl    0.76436   0.18005   0.12077   0.00000  Uiso   1.00
Cl174  Cl    0.91772   0.30653   0.38141   0.00000  Uiso   1.00
C175   C     0.16641   0.66394   0.24983   0.00000  Uiso   1.00
C176   C     0.16652   0.83607   0.25011   0.00000  Uiso   1.00
C177   C     0.13788   0.71843   0.04823   0.00000  Uiso   1.00
C178   C     0.20467   0.77347   0.45303   0.00000  Uiso   1.00
C179   C     0.13770   0.71908   0.09751   0.00000  Uiso   1.00
C180   C     0.20391   0.77368   0.40363   0.00000  Uiso   1.00
C181   C     0.19442   0.78179   0.10664   0.00000  Uiso   1.00
C182   C     0.12839   0.72740   0.39195   0.00000  Uiso   1.00
C183   C     0.19399   0.78322   0.05715   0.00000  Uiso   1.00
C184   C     0.12668   0.72781   0.44115   0.00000  Uiso   1.00
C185   C     0.16588   0.75085   0.02661   0.00000  Uiso   1.00
C186   C     0.16565   0.75068   0.47316   0.00000  Uiso   1.00
C187   C     0.06702   0.74995   0.23750   0.00000  Uiso   1.00
C188   C     0.26631   0.75002   0.26250   0.00000  Uiso   1.00
C189   C     0.01190   0.74994   0.23083   0.00000  Uiso   1.00
C190   C     0.32143   0.75001   0.26918   0.00000  Uiso   1.00
C191   C     0.14558   0.54739   0.28608   0.00000  Uiso   1.00
C192   C     0.14604   0.95225   0.20778   0.00000  Uiso   1.00
C193   C     0.14657   0.59338   0.28628   0.00000  Uiso   1.00
C194   C     0.14710   0.90629   0.20791   0.00000  Uiso   1.00
C195   C     0.16537   0.61604   0.24946   0.00000  Uiso   1.00
C196   C     0.16558   0.88397   0.25013   0.00000  Uiso   1.00
C197   C     0.18308   0.59273   0.21239   0.00000  Uiso   1.00
C198   C     0.18304   0.90761   0.29223   0.00000  Uiso   1.00
C199   C     0.18268   0.54672   0.21249   0.00000  Uiso   1.00
C200   C     0.18256   0.95362   0.29196   0.00000  Uiso   1.00
C201   C     0.16394   0.52405   0.24935   0.00000  Uiso   1.00
C202   C     0.16403   0.97594   0.24973   0.00000  Uiso   1.00
H203   H     0.32442   0.74988   0.19452   0.00000  Uiso   1.00
H204   H     0.00892   0.75007   0.30550   0.00000  Uiso   1.00
H205   H     0.13028   0.53006   0.31433   0.00000  Uiso   1.00
H206   H     0.13094   0.96930   0.17515   0.00000  Uiso   1.00
H207   H     0.13217   0.61116   0.31484   0.00000  Uiso   1.00
H208   H     0.13296   0.88826   0.17524   0.00000  Uiso   1.00
H209   H     0.19799   0.61001   0.18389   0.00000  Uiso   1.00
H210   H     0.19774   0.89062   0.32499   0.00000  Uiso   1.00
H211   H     0.19760   0.52885   0.18428   0.00000  Uiso   1.00
H212   H     0.19723   0.97177   0.32442   0.00000  Uiso   1.00
H213   H     0.11604   0.69221   0.02751   0.00000  Uiso   1.00
H214   H     0.23621   0.79120   0.47506   0.00000  Uiso   1.00
H215   H     0.21648   0.80665   0.12938   0.00000  Uiso   1.00
H216   H     0.09846   0.70939   0.36817   0.00000  Uiso   1.00
H217   H     0.21518   0.81013   0.04346   0.00000  Uiso   1.00
H218   H     0.09435   0.71064   0.45334   0.00000  Uiso   1.00
N219   N     0.16667   0.74999   0.12624   0.00000  Uiso   1.00
N220   N     0.16667   0.75001   0.37376   0.00000  Uiso   1.00
O221   O     0.16667   0.68454   0.28974   0.00000  Uiso   1.00
O222   O     0.16666   0.81547   0.21026   0.00000  Uiso   1.00
O223   O     0.16667   0.68453   0.21026   0.00000  Uiso   1.00
O224   O     0.16666   0.81547   0.28974   0.00000  Uiso   1.00
O225   O     0.09058   0.75000   0.28044   0.00000  Uiso   1.00
O226   O     0.24275   0.75000   0.21956   0.00000  Uiso   1.00
O227   O     0.09058   0.75000   0.20096   0.00000  Uiso   1.00
O228   O     0.24275   0.75001   0.29904   0.00000  Uiso   1.00
Zn229  Zn    0.16667   0.75001   0.30307   0.00000  Uiso   1.00
Zn230  Zn    0.16667   0.75000   0.19693   0.00000  Uiso   1.00
Cl231  Cl    0.09769   0.68005   0.12077   0.00000  Uiso   1.00
Cl232  Cl    0.25106   0.80653   0.38141   0.00000  Uiso   1.00
C233   C     0.49974   0.66394   0.24983   0.00000  Uiso   1.00
C234   C     0.49986   0.83607   0.25011   0.00000  Uiso   1.00
C235   C     0.47121   0.71843   0.04823   0.00000  Uiso   1.00
C236   C     0.53801   0.77347   0.45303   0.00000  Uiso   1.00
C237   C     0.47103   0.71908   0.09751   0.00000  Uiso   1.00
C238   C     0.53724   0.77368   0.40363   0.00000  Uiso   1.00
C239   C     0.52775   0.78179   0.10664   0.00000  Uiso   1.00
C240   C     0.46172   0.72740   0.39195   0.00000  Uiso   1.00
C241   C     0.52732   0.78322   0.05715   0.00000  Uiso   1.00
C242   C     0.46002   0.72781   0.44115   0.00000  Uiso   1.00
C243   C     0.49921   0.75085   0.02661   0.00000  Uiso   1.00
C244   C     0.49899   0.75068   0.47316   0.00000  Uiso   1.00
C245   C     0.40035   0.74995   0.23750   0.00000  Uiso   1.00
C246   C     0.59965   0.75002   0.26250   0.00000  Uiso   1.00
C247   C     0.34524   0.74994   0.23083   0.00000  Uiso   1.00
C248   C     0.65476   0.75001   0.26918   0.00000  Uiso   1.00
C249   C     0.47891   0.54739   0.28608   0.00000  Uiso   1.00
C250   C     0.47937   0.95225   0.20778   0.00000  Uiso   1.00
C251   C     0.47990   0.59338   0.28628   0.00000  Uiso   1.00
C252   C     0.48043   0.90629   0.20791   0.00000  Uiso   1.00
C253   C     0.49870   0.61604   0.24946   0.00000  Uiso   1.00
C254   C     0.49891   0.88397   0.25013   0.00000  Uiso   1.00
C255   C     0.51642   0.59273   0.21239   0.00000  Uiso   1.00
C256   C     0.51637   0.90761   0.29223   0.00000  Uiso   1.00
C257   C     0.51601   0.54672   0.21249   0.00000  Uiso   1.00
C258   C     0.51589   0.95362   0.29196   0.00000  Uiso   1.00
C259   C     0.49727   0.52405   0.24935   0.00000  Uiso   1.00
C260   C     0.49736   0.97594   0.24973   0.00000  Uiso   1.00
H261   H     0.65775   0.74988   0.19452   0.00000  Uiso   1.00
H262   H     0.34225   0.75007   0.30550   0.00000  Uiso   1.00
H263   H     0.46361   0.53006   0.31433   0.00000  Uiso   1.00
H264   H     0.46427   0.96930   0.17515   0.00000  Uiso   1.00
H265   H     0.46550   0.61116   0.31484   0.00000  Uiso   1.00
H266   H     0.46629   0.88826   0.17524   0.00000  Uiso   1.00
H267   H     0.53132   0.61001   0.18389   0.00000  Uiso   1.00
H268   H     0.53107   0.89062   0.32499   0.00000  Uiso   1.00
H269   H     0.53093   0.52885   0.18428   0.00000  Uiso   1.00
H270   H     0.53056   0.97177   0.32442   0.00000  Uiso   1.00
H271   H     0.44937   0.69221   0.02751   0.00000  Uiso   1.00
H272   H     0.56954   0.79120   0.47506   0.00000  Uiso   1.00
H273   H     0.54981   0.80665   0.12938   0.00000  Uiso   1.00
H274   H     0.43179   0.70939   0.36817   0.00000  Uiso   1.00
H275   H     0.54851   0.81013   0.04346   0.00000  Uiso   1.00
H276   H     0.42769   0.71064   0.45334   0.00000  Uiso   1.00
N277   N     0.50000   0.74999   0.12624   0.00000  Uiso   1.00
N278   N     0.50000   0.75001   0.37376   0.00000  Uiso   1.00
O279   O     0.50000   0.68454   0.28974   0.00000  Uiso   1.00
O280   O     0.50000   0.81547   0.21026   0.00000  Uiso   1.00
O281   O     0.50000   0.68453   0.21026   0.00000  Uiso   1.00
O282   O     0.50000   0.81547   0.28974   0.00000  Uiso   1.00
O283   O     0.42392   0.75000   0.28044   0.00000  Uiso   1.00
O284   O     0.57608   0.75000   0.21956   0.00000  Uiso   1.00
O285   O     0.42392   0.75000   0.20096   0.00000  Uiso   1.00
O286   O     0.57608   0.75001   0.29904   0.00000  Uiso   1.00
Zn287  Zn    0.50000   0.75001   0.30307   0.00000  Uiso   1.00
Zn288  Zn    0.50000   0.75000   0.19693   0.00000  Uiso   1.00
Cl289  Cl    0.43103   0.68005   0.12077   0.00000  Uiso   1.00
Cl290  Cl    0.58439   0.80653   0.38141   0.00000  Uiso   1.00
C291   C     0.83308   0.66394   0.24983   0.00000  Uiso   1.00
C292   C     0.83319   0.83607   0.25011   0.00000  Uiso   1.00
C293   C     0.80454   0.71843   0.04823   0.00000  Uiso   1.00
C294   C     0.87134   0.77347   0.45303   0.00000  Uiso   1.00
C295   C     0.80436   0.71908   0.09751   0.00000  Uiso   1.00
C296   C     0.87058   0.77368   0.40363   0.00000  Uiso   1.00
C297   C     0.86109   0.78179   0.10664   0.00000  Uiso   1.00
C298   C     0.79505   0.72740   0.39195   0.00000  Uiso   1.00
C299   C     0.86066   0.78322   0.05715   0.00000  Uiso   1.00
C300   C     0.79335   0.72781   0.44115   0.00000  Uiso   1.00
C301   C     0.83254   0.75085   0.02661   0.00000  Uiso   1.00
C302   C     0.83232   0.75068   0.47316   0.00000  Uiso   1.00
C303   C     0.73369   0.74995   0.23750   0.00000  Uiso   1.00
C304   C     0.93298   0.75002   0.26250   0.00000  Uiso   1.00
C305   C     0.67857   0.74994   0.23083   0.00000  Uiso   1.00
C306   C     0.98810   0.75001   0.26918   0.00000  Uiso   1.00
C307   C     0.81224   0.54739   0.28608   0.00000  Uiso   1.00
C308   C     0.81271   0.95225   0.20778   0.00000  Uiso   1.00
C309   C     0.81323   0.59338   0.28628   0.00000  Uiso   1.00
C310   C     0.81377   0.90629   0.20791   0.00000  Uiso   1.00
C311   C     0.83203   0.61604   0.24946   0.00000  Uiso   1.00
C312   C     0.83225   0.88397   0.25013   0.00000  Uiso   1.00
C313   C     0.84975   0.59273   0.21239   0.00000  Uiso   1.00
C314   C     0.84970   0.90761   0.29223   0.00000  Uiso   1.00
C315   C     0.84934   0.54672   0.21249   0.00000  Uiso   1.00
C316   C     0.84923   0.95362   0.29196   0.00000  Uiso   1.00
C317   C     0.83060   0.52405   0.24935   0.00000  Uiso   1.00
C318   C     0.83070   0.97594   0.24973   0.00000  Uiso   1.00
H319   H     0.99108   0.74988   0.19452   0.00000  Uiso   1.00
H320   H     0.67558   0.75007   0.30550   0.00000  Uiso   1.00
H321   H     0.79694   0.53006   0.31433   0.00000  Uiso   1.00
H322   H     0.79760   0.96930   0.17515   0.00000  Uiso   1.00
H323   H     0.79883   0.61116   0.31484   0.00000  Uiso   1.00
H324   H     0.79963   0.88826   0.17524   0.00000  Uiso   1.00
H325   H     0.86466   0.61001   0.18389   0.00000  Uiso   1.00
H326   H     0.86440   0.89062   0.32499   0.00000  Uiso   1.00
H327   H     0.86426   0.52885   0.18428   0.00000  Uiso   1.00
H328   H     0.86389   0.97177   0.32442   0.00000  Uiso   1.00
H329   H     0.78270   0.69221   0.02751   0.00000  Uiso   1.00
H330   H     0.90287   0.79120   0.47506   0.00000  Uiso   1.00
H331   H     0.88315   0.80665   0.12938   0.00000  Uiso   1.00
H332   H     0.76513   0.70939   0.36817   0.00000  Uiso   1.00
H333   H     0.88185   0.81013   0.04346   0.00000  Uiso   1.00
H334   H     0.76102   0.71064   0.45334   0.00000  Uiso   1.00
N335   N     0.83333   0.74999   0.12624   0.00000  Uiso   1.00
N336   N     0.83333   0.75001   0.37376   0.00000  Uiso   1.00
O337   O     0.83334   0.68454   0.28974   0.00000  Uiso   1.00
O338   O     0.83333   0.81547   0.21026   0.00000  Uiso   1.00
O339   O     0.83334   0.68453   0.21026   0.00000  Uiso   1.00
O340   O     0.83333   0.81547   0.28974   0.00000  Uiso   1.00
O341   O     0.75725   0.75000   0.28044   0.00000  Uiso   1.00
O342   O     0.90942   0.75000   0.21956   0.00000  Uiso   1.00
O343   O     0.75725   0.75000   0.20096   0.00000  Uiso   1.00
O344   O     0.90942   0.75001   0.29904   0.00000  Uiso   1.00
Zn345  Zn    0.83333   0.75001   0.30307   0.00000  Uiso   1.00
Zn346  Zn    0.83333   0.75000   0.19693   0.00000  Uiso   1.00
Cl347  Cl    0.76436   0.68005   0.12077   0.00000  Uiso   1.00
Cl348  Cl    0.91772   0.80653   0.38141   0.00000  Uiso   1.00
C349   C     0.16641   0.16394   0.74983   0.00000  Uiso   1.00
C350   C     0.16652   0.33607   0.75011   0.00000  Uiso   1.00
C351   C     0.13788   0.21843   0.54823   0.00000  Uiso   1.00
C352   C     0.20467   0.27347   0.95303   0.00000  Uiso   1.00
C353   C     0.13770   0.21908   0.59751   0.00000  Uiso   1.00
C354   C     0.20391   0.27368   0.90363   0.00000  Uiso   1.00
C355   C     0.19442   0.28179   0.60664   0.00000  Uiso   1.00
C356   C     0.12839   0.22740   0.89195   0.00000  Uiso   1.00
C357   C     0.19399   0.28322   0.55715   0.00000  Uiso   1.00
C358   C     0.12668   0.22781   0.94115   0.00000  Uiso   1.00
C359   C     0.16588   0.25085   0.52661   0.00000  Uiso   1.00
C360   C     0.16565   0.25068   0.97316   0.00000  Uiso   1.00
C361   C     0.06702   0.24995   0.73750   0.00000  Uiso   1.00
C362   C     0.26631   0.25002   0.76250   0.00000  Uiso   1.00
C363   C     0.01190   0.24994   0.73083   0.00000  Uiso   1.00
C364   C     0.32143   0.25001   0.76918   0.00000  Uiso   1.00
C365   C     0.14558   0.04739   0.78608   0.00000  Uiso   1.00
C366   C     0.14604   0.45225   0.70778   0.00000  Uiso   1.00
C367   C     0.14657   0.09338   0.78628   0.00000  Uiso   1.00
C368   C     0.14710   0.40629   0.70791   0.00000  Uiso   1.00
C369   C     0.16537   0.11604   0.74946   0.00000  Uiso   1.00
C370   C     0.16558   0.38397   0.75013   0.00000  Uiso   1.00
C371   C     0.18308   0.09273   0.71239   0.00000  Uiso   1.00
C372   C     0.18304   0.40761   0.79223   0.00000  Uiso   1.00
C373   C     0.18268   0.04672   0.71249   0.00000  Uiso   1.00
C374   C     0.18256   0.45362   0.79196   0.00000  Uiso   1.00
C375   C     0.16394   0.02405   0.74935   0.00000  Uiso   1.00
C376   C     0.16403   0.47594   0.74973   0.00000  Uiso   1.00
H377   H     0.32442   0.24988   0.69452   0.00000  Uiso   1.00
H378   H     0.00892   0.25007   0.80550   0.00000  Uiso   1.00
H379   H     0.13028   0.03006   0.81433   0.00000  Uiso   1.00
H380   H     0.13094   0.46930   0.67515   0.00000  Uiso   1.00
H381   H     0.13217   0.11116   0.81484   0.00000  Uiso   1.00
H382   H     0.13296   0.38826   0.67524   0.00000  Uiso   1.00
H383   H     0.19799   0.11001   0.68389   0.00000  Uiso   1.00
H384   H     0.19774   0.39062   0.82499   0.00000  Uiso   1.00
H385   H     0.19760   0.02885   0.68428   0.00000  Uiso   1.00
H386   H     0.19723   0.47177   0.82442   0.00000  Uiso   1.00
H387   H     0.11604   0.19221   0.52751   0.00000  Uiso   1.00
H388   H     0.23621   0.29120   0.97506   0.00000  Uiso   1.00
H389   H     0.21648   0.30665   0.62938   0.00000  Uiso   1.00
H390   H     0.09846   0.20939   0.86817   0.00000  Uiso   1.00
H391   H     0.21518   0.31013   0.54346   0.00000  Uiso   1.00
H392   H     0.09435   0.21064   0.95334   0.00000  Uiso   1.00
N393   N     0.16667   0.24999   0.62624   0.00000  Uiso   1.00
N394   N     0.16667   0.25001   0.87376   0.00000  Uiso   1.00
O395   O     0.16667   0.18454   0.78974   0.00000  Uiso   1.00
O396   O     0.16666   0.31547   0.71026   0.00000  Uiso   1.00
O397   O     0.16667   0.18453   0.71026   0.00000  Uiso   1.00
O398   O     0.16666   0.31547   0.78974   0.00000  Uiso   1.00
O399   O     0.09058   0.25000   0.78044   0.00000  Uiso   1.00
O400   O     0.24275   0.25000   0.71956   0.00000  Uiso   1.00
O401   O     0.09058   0.25000   0.70096   0.00000  Uiso   1.00
O402   O     0.24275   0.25001   0.79904   0.00000  Uiso   1.00
Zn403  Zn    0.16667   0.25001   0.80307   0.00000  Uiso   1.00
Zn404  Zn    0.16667   0.25000   0.69693   0.00000  Uiso   1.00
Cl405  Cl    0.09769   0.18005   0.62077   0.00000  Uiso   1.00
Cl406  Cl    0.25106   0.30653   0.88141   0.00000  Uiso   1.00
C407   C     0.49974   0.16394   0.74983   0.00000  Uiso   1.00
C408   C     0.49986   0.33607   0.75011   0.00000  Uiso   1.00
C409   C     0.47121   0.21843   0.54823   0.00000  Uiso   1.00
C410   C     0.53801   0.27347   0.95303   0.00000  Uiso   1.00
C411   C     0.47103   0.21908   0.59751   0.00000  Uiso   1.00
C412   C     0.53724   0.27368   0.90363   0.00000  Uiso   1.00
C413   C     0.52775   0.28179   0.60664   0.00000  Uiso   1.00
C414   C     0.46172   0.22740   0.89195   0.00000  Uiso   1.00
C415   C     0.52732   0.28322   0.55715   0.00000  Uiso   1.00
C416   C     0.46002   0.22781   0.94115   0.00000  Uiso   1.00
C417   C     0.49921   0.25085   0.52661   0.00000  Uiso   1.00
C418   C     0.49899   0.25068   0.97316   0.00000  Uiso   1.00
C419   C     0.40035   0.24995   0.73750   0.00000  Uiso   1.00
C420   C     0.59965   0.25002   0.76250   0.00000  Uiso   1.00
C421   C     0.34524   0.24994   0.73083   0.00000  Uiso   1.00
C422   C     0.65476   0.25001   0.76918   0.00000  Uiso   1.00
C423   C     0.47891   0.04739   0.78608   0.00000  Uiso   1.00
C424   C     0.47937   0.45225   0.70778   0.00000  Uiso   1.00
C425   C     0.47990   0.09338   0.78628   0.00000  Uiso   1.00
C426   C     0.48043   0.40629   0.70791   0.00000  Uiso   1.00
C427   C     0.49870   0.11604   0.74946   0.00000  Uiso   1.00
C428   C     0.49891   0.38397   0.75013   0.00000  Uiso   1.00
C429   C     0.51642   0.09273   0.71239   0.00000  Uiso   1.00
C430   C     0.51637   0.40761   0.79223   0.00000  Uiso   1.00
C431   C     0.51601   0.04672   0.71249   0.00000  Uiso   1.00
C432   C     0.51589   0.45362   0.79196   0.00000  Uiso   1.00
C433   C     0.49727   0.02405   0.74935   0.00000  Uiso   1.00
C434   C     0.49736   0.47594   0.74973   0.00000  Uiso   1.00
H435   H     0.65775   0.24988   0.69452   0.00000  Uiso   1.00
H436   H     0.34225   0.25007   0.80550   0.00000  Uiso   1.00
H437   H     0.46361   0.03006   0.81433   0.00000  Uiso   1.00
H438   H     0.46427   0.46930   0.67515   0.00000  Uiso   1.00
H439   H     0.46550   0.11116   0.81484   0.00000  Uiso   1.00
H440   H     0.46629   0.38826   0.67524   0.00000  Uiso   1.00
H441   H     0.53132   0.11001   0.68389   0.00000  Uiso   1.00
H442   H     0.53107   0.39062   0.82499   0.00000  Uiso   1.00
H443   H     0.53093   0.02885   0.68428   0.00000  Uiso   1.00
H444   H     0.53056   0.47177   0.82442   0.00000  Uiso   1.00
H445   H     0.44937   0.19221   0.52751   0.00000  Uiso   1.00
H446   H     0.56954   0.29120   0.97506   0.00000  Uiso   1.00
H447   H     0.54981   0.30665   0.62938   0.00000  Uiso   1.00
H448   H     0.43179   0.20939   0.86817   0.00000  Uiso   1.00
H449   H     0.54851   0.31013   0.54346   0.00000  Uiso   1.00
H450   H     0.42769   0.21064   0.95334   0.00000  Uiso   1.00
N451   N     0.50000   0.24999   0.62624   0.00000  Uiso   1.00
N452   N     0.50000   0.25001   0.87376   0.00000  Uiso   1.00
O453   O     0.50000   0.18454   0.78974   0.00000  Uiso   1.00
O454   O     0.50000   0.31547   0.71026   0.00000  Uiso   1.00
O455   O     0.50000   0.18453   0.71026   0.00000  Uiso   1.00
O456   O     0.50000   0.31547   0.78974   0.00000  Uiso   1.00
O457   O     0.42392   0.25000   0.78044   0.00000  Uiso   1.00
O458   O     0.57608   0.25000   0.71956   0.00000  Uiso   1.00
O459   O     0.42392   0.25000   0.70096   0.00000  Uiso   1.00
O460   O     0.57608   0.25001   0.79904   0.00000  Uiso   1.00
Zn461  Zn    0.50000   0.25001   0.80307   0.00000  Uiso   1.00
Zn462  Zn    0.50000   0.25000   0.69693   0.00000  Uiso   1.00
Cl463  Cl    0.43103   0.18005   0.62077   0.00000  Uiso   1.00
Cl464  Cl    0.58439   0.30653   0.88141   0.00000  Uiso   1.00
C465   C     0.83308   0.16394   0.74983   0.00000  Uiso   1.00
C466   C     0.83319   0.33607   0.75011   0.00000  Uiso   1.00
C467   C     0.80454   0.21843   0.54823   0.00000  Uiso   1.00
C468   C     0.87134   0.27347   0.95303   0.00000  Uiso   1.00
C469   C     0.80436   0.21908   0.59751   0.00000  Uiso   1.00
C470   C     0.87058   0.27368   0.90363   0.00000  Uiso   1.00
C471   C     0.86109   0.28179   0.60664   0.00000  Uiso   1.00
C472   C     0.79505   0.22740   0.89195   0.00000  Uiso   1.00
C473   C     0.86066   0.28322   0.55715   0.00000  Uiso   1.00
C474   C     0.79335   0.22781   0.94115   0.00000  Uiso   1.00
C475   C     0.83254   0.25085   0.52661   0.00000  Uiso   1.00
C476   C     0.83232   0.25068   0.97316   0.00000  Uiso   1.00
C477   C     0.73369   0.24995   0.73750   0.00000  Uiso   1.00
C478   C     0.93298   0.25002   0.76250   0.00000  Uiso   1.00
C479   C     0.67857   0.24994   0.73083   0.00000  Uiso   1.00
C480   C     0.98810   0.25001   0.76918   0.00000  Uiso   1.00
C481   C     0.81224   0.04739   0.78608   0.00000  Uiso   1.00
C482   C     0.81271   0.45225   0.70778   0.00000  Uiso   1.00
C483   C     0.81323   0.09338   0.78628   0.00000  Uiso   1.00
C484   C     0.81377   0.40629   0.70791   0.00000  Uiso   1.00
C485   C     0.83203   0.11604   0.74946   0.00000  Uiso   1.00
C486   C     0.83225   0.38397   0.75013   0.00000  Uiso   1.00
C487   C     0.84975   0.09273   0.71239   0.00000  Uiso   1.00
C488   C     0.84970   0.40761   0.79223   0.00000  Uiso   1.00
C489   C     0.84934   0.04672   0.71249   0.00000  Uiso   1.00
C490   C     0.84923   0.45362   0.79196   0.00000  Uiso   1.00
C491   C     0.83060   0.02405   0.74935   0.00000  Uiso   1.00
C492   C     0.83070   0.47594   0.74973   0.00000  Uiso   1.00
H493   H     0.99108   0.24988   0.69452   0.00000  Uiso   1.00
H494   H     0.67558   0.25007   0.80550   0.00000  Uiso   1.00
H495   H     0.79694   0.03006   0.81433   0.00000  Uiso   1.00
H496   H     0.79760   0.46930   0.67515   0.00000  Uiso   1.00
H497   H     0.79883   0.11116   0.81484   0.00000  Uiso   1.00
H498   H     0.79963   0.38826   0.67524   0.00000  Uiso   1.00
H499   H     0.86466   0.11001   0.68389   0.00000  Uiso   1.00
H500   H     0.86440   0.39062   0.82499   0.00000  Uiso   1.00
H501   H     0.86426   0.02885   0.68428   0.00000  Uiso   1.00
H502   H     0.86389   0.47177   0.82442   0.00000  Uiso   1.00
H503   H     0.78270   0.19221   0.52751   0.00000  Uiso   1.00
H504   H     0.90287   0.29120   0.97506   0.00000  Uiso   1.00
H505   H     0.88315   0.30665   0.62938   0.00000  Uiso   1.00
H506   H     0.76513   0.20939   0.86817   0.00000  Uiso   1.00
H507   H     0.88185   0.31013   0.54346   0.00000  Uiso   1.00
H508   H     0.76102   0.21064   0.95334   0.00000  Uiso   1.00
N509   N     0.83333   0.24999   0.62624   0.00000  Uiso   1.00
N510   N     0.83333   0.25001   0.87376   0.00000  Uiso   1.00
O511   O     0.83334   0.18454   0.78974   0.00000  Uiso   1.00
O512   O     0.83333   0.31547   0.71026   0.00000  Uiso   1.00
O513   O     0.83334   0.18453   0.71026   0.00000  Uiso   1.00
O514   O     0.83333   0.31547   0.78974   0.00000  Uiso   1.00
O515   O     0.75725   0.25000   0.78044   0.00000  Uiso   1.00
O516   O     0.90942   0.25000   0.71956   0.00000  Uiso   1.00
O517   O     0.75725   0.25000   0.70096   0.00000  Uiso   1.00
O518   O     0.90942   0.25001   0.79904   0.00000  Uiso   1.00
Zn519  Zn    0.83333   0.25001   0.80307   0.00000  Uiso   1.00
Zn520  Zn    0.83333   0.25000   0.69693   0.00000  Uiso   1.00
Cl521  Cl    0.76436   0.18005   0.62077   0.00000  Uiso   1.00
Cl522  Cl    0.91772   0.30653   0.88141   0.00000  Uiso   1.00
C523   C     0.16641   0.66394   0.74983   0.00000  Uiso   1.00
C524   C     0.16652   0.83607   0.75011   0.00000  Uiso   1.00
C525   C     0.13788   0.71843   0.54823   0.00000  Uiso   1.00
C526   C     0.20467   0.77347   0.95303   0.00000  Uiso   1.00
C527   C     0.13770   0.71908   0.59751   0.00000  Uiso   1.00
C528   C     0.20391   0.77368   0.90363   0.00000  Uiso   1.00
C529   C     0.19442   0.78179   0.60664   0.00000  Uiso   1.00
C530   C     0.12839   0.72740   0.89195   0.00000  Uiso   1.00
C531   C     0.19399   0.78322   0.55715   0.00000  Uiso   1.00
C532   C     0.12668   0.72781   0.94115   0.00000  Uiso   1.00
C533   C     0.16588   0.75085   0.52661   0.00000  Uiso   1.00
C534   C     0.16565   0.75068   0.97316   0.00000  Uiso   1.00
C535   C     0.06702   0.74995   0.73750   0.00000  Uiso   1.00
C536   C     0.26631   0.75002   0.76250   0.00000  Uiso   1.00
C537   C     0.01190   0.74994   0.73083   0.00000  Uiso   1.00
C538   C     0.32143   0.75001   0.76918   0.00000  Uiso   1.00
C539   C     0.14558   0.54739   0.78608   0.00000  Uiso   1.00
C540   C     0.14604   0.95225   0.70778   0.00000  Uiso   1.00
C541   C     0.14657   0.59338   0.78628   0.00000  Uiso   1.00
C542   C     0.14710   0.90629   0.70791   0.00000  Uiso   1.00
C543   C     0.16537   0.61604   0.74946   0.00000  Uiso   1.00
C544   C     0.16558   0.88397   0.75013   0.00000  Uiso   1.00
C545   C     0.18308   0.59273   0.71239   0.00000  Uiso   1.00
C546   C     0.18304   0.90761   0.79223   0.00000  Uiso   1.00
C547   C     0.18268   0.54672   0.71249   0.00000  Uiso   1.00
C548   C     0.18256   0.95362   0.79196   0.00000  Uiso   1.00
C549   C     0.16394   0.52405   0.74935   0.00000  Uiso   1.00
C550   C     0.16403   0.97594   0.74973   0.00000  Uiso   1.00
H551   H     0.32442   0.74988   0.69452   0.00000  Uiso   1.00
H552   H     0.00892   0.75007   0.80550   0.00000  Uiso   1.00
H553   H     0.13028   0.53006   0.81433   0.00000  Uiso   1.00
H554   H     0.13094   0.96930   0.67515   0.00000  Uiso   1.00
H555   H     0.13217   0.61116   0.81484   0.00000  Uiso   1.00
H556   H     0.13296   0.88826   0.67524   0.00000  Uiso   1.00
H557   H     0.19799   0.61001   0.68389   0.00000  Uiso   1.00
H558   H     0.19774   0.89062   0.82499   0.00000  Uiso   1.00
H559   H     0.19760   0.52885   0.68428   0.00000  Uiso   1.00
H560   H     0.19723   0.97177   0.82442   0.00000  Uiso   1.00
H561   H     0.11604   0.69221   0.52751   0.00000  Uiso   1.00
H562   H     0.23621   0.79120   0.97506   0.00000  Uiso   1.00
H563   H     0.21648   0.80665   0.62938   0.00000  Uiso   1.00
H564   H     0.09846   0.70939   0.86817   0.00000  Uiso   1.00
H565   H     0.21518   0.81013   0.54346   0.00000  Uiso   1.00
H566   H     0.09435   0.71064   0.95334   0.00000  Uiso   1.00
N567   N     0.16667   0.74999   0.62624   0.00000  Uiso   1.00
N568   N     0.16667   0.75001   0.87376   0.00000  Uiso   1.00
O569   O     0.16667   0.68454   0.78974   0.00000  Uiso   1.00
O570   O     0.16666   0.81547   0.71026   0.00000  Uiso   1.00
O571   O     0.16667   0.68453   0.71026   0.00000  Uiso   1.00
O572   O     0.16666   0.81547   0.78974   0.00000  Uiso   1.00
O573   O     0.09058   0.75000   0.78044   0.00000  Uiso   1.00
O574   O     0.24275   0.75000   0.71956   0.00000  Uiso   1.00
O575   O     0.09058   0.75000   0.70096   0.00000  Uiso   1.00
O576   O     0.24275   0.75001   0.79904   0.00000  Uiso   1.00
Zn577  Zn    0.16667   0.75001   0.80307   0.00000  Uiso   1.00
Zn578  Zn    0.16667   0.75000   0.69693   0.00000  Uiso   1.00
Cl579  Cl    0.09769   0.68005   0.62077   0.00000  Uiso   1.00
Cl580  Cl    0.25106   0.80653   0.88141   0.00000  Uiso   1.00
C581   C     0.49974   0.66394   0.74983   0.00000  Uiso   1.00
C582   C     0.49986   0.83607   0.75011   0.00000  Uiso   1.00
C583   C     0.47121   0.71843   0.54823   0.00000  Uiso   1.00
C584   C     0.53801   0.77347   0.95303   0.00000  Uiso   1.00
C585   C     0.47103   0.71908   0.59751   0.00000  Uiso   1.00
C586   C     0.53724   0.77368   0.90363   0.00000  Uiso   1.00
C587   C     0.52775   0.78179   0.60664   0.00000  Uiso   1.00
C588   C     0.46172   0.72740   0.89195   0.00000  Uiso   1.00
C589   C     0.52732   0.78322   0.55715   0.00000  Uiso   1.00
C590   C     0.46002   0.72781   0.94115   0.00000  Uiso   1.00
C591   C     0.49921   0.75085   0.52661   0.00000  Uiso   1.00
C592   C     0.49899   0.75068   0.97316   0.00000  Uiso   1.00
C593   C     0.40035   0.74995   0.73750   0.00000  Uiso   1.00
C594   C     0.59965   0.75002   0.76250   0.00000  Uiso   1.00
C595   C     0.34524   0.74994   0.73083   0.00000  Uiso   1.00
C596   C     0.65476   0.75001   0.76918   0.00000  Uiso   1.00
C597   C     0.47891   0.54739   0.78608   0.00000  Uiso   1.00
C598   C     0.47937   0.95225   0.70778   0.00000  Uiso   1.00
C599   C     0.47990   0.59338   0.78628   0.00000  Uiso   1.00
C600   C     0.48043   0.90629   0.70791   0.00000  Uiso   1.00
C601   C     0.49870   0.61604   0.74946   0.00000  Uiso   1.00
C602   C     0.49891   0.88397   0.75013   0.00000  Uiso   1.00
C603   C     0.51642   0.59273   0.71239   0.00000  Uiso   1.00
C604   C     0.51637   0.90761   0.79223   0.00000  Uiso   1.00
C605   C     0.51601   0.54672   0.71249   0.00000  Uiso   1.00
C606   C     0.51589   0.95362   0.79196   0.00000  Uiso   1.00
C607   C     0.49727   0.52405   0.74935   0.00000  Uiso   1.00
C608   C     0.49736   0.97594   0.74973   0.00000  Uiso   1.00
H609   H     0.65775   0.74988   0.69452   0.00000  Uiso   1.00
H610   H     0.34225   0.75007   0.80550   0.00000  Uiso   1.00
H611   H     0.46361   0.53006   0.81433   0.00000  Uiso   1.00
H612   H     0.46427   0.96930   0.67515   0.00000  Uiso   1.00
H613   H     0.46550   0.61116   0.81484   0.00000  Uiso   1.00
H614   H     0.46629   0.88826   0.67524   0.00000  Uiso   1.00
H615   H     0.53132   0.61001   0.68389   0.00000  Uiso   1.00
H616   H     0.53107   0.89062   0.82499   0.00000  Uiso   1.00
H617   H     0.53093   0.52885   0.68428   0.00000  Uiso   1.00
H618   H     0.53056   0.97177   0.82442   0.00000  Uiso   1.00
H619   H     0.44937   0.69221   0.52751   0.00000  Uiso   1.00
H620   H     0.56954   0.79120   0.97506   0.00000  Uiso   1.00
H621   H     0.54981   0.80665   0.62938   0.00000  Uiso   1.00
H622   H     0.43179   0.70939   0.86817   0.00000  Uiso   1.00
H623   H     0.54851   0.81013   0.54346   0.00000  Uiso   1.00
H624   H     0.42769   0.71064   0.95334   0.00000  Uiso   1.00
N625   N     0.50000   0.74999   0.62624   0.00000  Uiso   1.00
N626   N     0.50000   0.75001   0.87376   0.00000  Uiso   1.00
O627   O     0.50000   0.68454   0.78974   0.00000  Uiso   1.00
O628   O     0.50000   0.81547   0.71026   0.00000  Uiso   1.00
O629   O     0.50000   0.68453   0.71026   0.00000  Uiso   1.00
O630   O     0.50000   0.81547   0.78974   0.00000  Uiso   1.00
O631   O     0.42392   0.75000   0.78044   0.00000  Uiso   1.00
O632   O     0.57608   0.75000   0.71956   0.00000  Uiso   1.00
O633   O     0.42392   0.75000   0.70096   0.00000  Uiso   1.00
O634   O     0.57608   0.75001   0.79904   0.00000  Uiso   1.00
Zn635  Zn    0.50000   0.75001   0.80307   0.00000  Uiso   1.00
Zn636  Zn    0.50000   0.75000   0.69693   0.00000  Uiso   1.00
Cl637  Cl    0.43103   0.68005   0.62077   0.00000  Uiso   1.00
Cl638  Cl    0.58439   0.80653   0.88141   0.00000  Uiso   1.00
C639   C     0.83308   0.66394   0.74983   0.00000  Uiso   1.00
C640   C     0.83319   0.83607   0.75011   0.00000  Uiso   1.00
C641   C     0.80454   0.71843   0.54823   0.00000  Uiso   1.00
C642   C     0.87134   0.77347   0.95303   0.00000  Uiso   1.00
C643   C     0.80436   0.71908   0.59751   0.00000  Uiso   1.00
C644   C     0.87058   0.77368   0.90363   0.00000  Uiso   1.00
C645   C     0.86109   0.78179   0.60664   0.00000  Uiso   1.00
C646   C     0.79505   0.72740   0.89195   0.00000  Uiso   1.00
C647   C     0.86066   0.78322   0.55715   0.00000  Uiso   1.00
C648   C     0.79335   0.72781   0.94115   0.00000  Uiso   1.00
C649   C     0.83254   0.75085   0.52661   0.00000  Uiso   1.00
C650   C     0.83232   0.75068   0.97316   0.00000  Uiso   1.00
C651   C     0.73369   0.74995   0.73750   0.00000  Uiso   1.00
C652   C     0.93298   0.75002   0.76250   0.00000  Uiso   1.00
C653   C     0.67857   0.74994   0.73083   0.00000  Uiso   1.00
C654   C     0.98810   0.75001   0.76918   0.00000  Uiso   1.00
C655   C     0.81224   0.54739   0.78608   0.00000  Uiso   1.00
C656   C     0.81271   0.95225   0.70778   0.00000  Uiso   1.00
C657   C     0.81323   0.59338   0.78628   0.00000  Uiso   1.00
C658   C     0.81377   0.90629   0.70791   0.00000  Uiso   1.00
C659   C     0.83203   0.61604   0.74946   0.00000  Uiso   1.00
C660   C     0.83225   0.88397   0.75013   0.00000  Uiso   1.00
C661   C     0.84975   0.59273   0.71239   0.00000  Uiso   1.00
C662   C     0.84970   0.90761   0.79223   0.00000  Uiso   1.00
C663   C     0.84934   0.54672   0.71249   0.00000  Uiso   1.00
C664   C     0.84923   0.95362   0.79196   0.00000  Uiso   1.00
C665   C     0.83060   0.52405   0.74935   0.00000  Uiso   1.00
C666   C     0.83070   0.97594   0.74973   0.00000  Uiso   1.00
H667   H     0.99108   0.74988   0.69452   0.00000  Uiso   1.00
H668   H     0.67558   0.75007   0.80550   0.00000  Uiso   1.00
H669   H     0.79694   0.53006   0.81433   0.00000  Uiso   1.00
H670   H     0.79760   0.96930   0.67515   0.00000  Uiso   1.00
H671   H     0.79883   0.61116   0.81484   0.00000  Uiso   1.00
H672   H     0.79963   0.88826   0.67524   0.00000  Uiso   1.00
H673   H     0.86466   0.61001   0.68389   0.00000  Uiso   1.00
H674   H     0.86440   0.89062   0.82499   0.00000  Uiso   1.00
H675   H     0.86426   0.52885   0.68428   0.00000  Uiso   1.00
H676   H     0.86389   0.97177   0.82442   0.00000  Uiso   1.00
H677   H     0.78270   0.69221   0.52751   0.00000  Uiso   1.00
H678   H     0.90287   0.79120   0.97506   0.00000  Uiso   1.00
H679   H     0.88315   0.80665   0.62938   0.00000  Uiso   1.00
H680   H     0.76513   0.70939   0.86817   0.00000  Uiso   1.00
H681   H     0.88185   0.81013   0.54346   0.00000  Uiso   1.00
H682   H     0.76102   0.71064   0.95334   0.00000  Uiso   1.00
N683   N     0.83333   0.74999   0.62624   0.00000  Uiso   1.00
N684   N     0.83333   0.75001   0.87376   0.00000  Uiso   1.00
O685   O     0.83334   0.68454   0.78974   0.00000  Uiso   1.00
O686   O     0.83333   0.81547   0.71026   0.00000  Uiso   1.00
O687   O     0.83334   0.68453   0.71026   0.00000  Uiso   1.00
O688   O     0.83333   0.81547   0.78974   0.00000  Uiso   1.00
O689   O     0.75725   0.75000   0.78044   0.00000  Uiso   1.00
O690   O     0.90942   0.75000   0.71956   0.00000  Uiso   1.00
O691   O     0.75725   0.75000   0.70096   0.00000  Uiso   1.00
O692   O     0.90942   0.75001   0.79904   0.00000  Uiso   1.00
Zn693  Zn    0.83333   0.75001   0.80307   0.00000  Uiso   1.00
Zn694  Zn    0.83333   0.75000   0.69693   0.00000  Uiso   1.00
Cl695  Cl    0.76436   0.68005   0.62077   0.00000  Uiso   1.00
Cl696  Cl    0.91772   0.80653   0.88141   0.00000  Uiso   1.00
loop_
_geom_bond_atom_site_label_1
_geom_bond_atom_site_label_2
_geom_bond_distance
_geom_bond_site_symmetry_2
_ccdc_geom_bond_type
C1     C21     1.437   .     S
C1     O47     1.288   .     A
C1     O49     1.289   .     A
C2     C22     1.438   .     S
C2     O50     1.290   .     A
C2     O48     1.288   .     A
C3     C11     1.408   .     A
C3     H39     1.080   .     S
C3     C5      1.404   .     A
C4     H40     1.080   .     S
C4     C6      1.403   .     A
C4     C12     1.407   .     A
C5     Cl57    1.754   .     S
C5     N45     1.369   .     A
C6     N46     1.369   .     A
C6     Cl58    1.754   .     S
C7     N45     1.362   .     A
C7     H41     1.082   .     S
C7     C9      1.408   .     A
C8     H42     1.082   .     S
C8     C10     1.408   .     A
C8     N46     1.362   .     A
C9     C11     1.416   .     A
C9     H43     1.080   .     S
C10    C12     1.416   .     A
C10    H44     1.080   .     S
C11    C360    1.521   1_554 S
C12    C359    1.521   .     S
C13    C15     1.404   .     S
C13    O53     1.283   .     A
C13    O51     1.277   .     A
C14    O52     1.278   .     A
C14    O54     1.283   .     A
C14    C16     1.404   .     S
C15    C132    1.333   1_455 S
C15    H145    1.088   1_455 S
C16    C73     1.333   .     S
C16    H88     1.088   .     S
C17    H31     1.083   .     S
C17    C27     1.399   .     A
C17    C19     1.380   .     A
C18    H32     1.083   .     S
C18    C28     1.398   .     A
C18    C20     1.380   .     A
C19    C21     1.399   .     A
C19    H33     1.084   .     S
C20    H34     1.084   .     S
C20    C22     1.400   .     A
C21    C23     1.399   .     A
C22    C24     1.399   .     A
C23    H35     1.084   .     S
C23    C25     1.381   .     A
C24    H36     1.083   .     S
C24    C26     1.381   .     A
C25    C27     1.400   .     A
C25    H37     1.083   .     S
C26    C28     1.400   .     A
C26    H38     1.083   .     S
C27    C202    1.444   1_545 S
C28    C201    1.444   .     S
H29    C73     1.088   .     S
H30    C132    1.088   1_455 S
N45    Zn56    2.012   .     S
N46    Zn55    2.012   .     S
O47    Zn55    1.998   .     S
O48    Zn56    1.998   .     S
O49    Zn56    2.004   .     S
O50    Zn55    2.004   .     S
O51    Zn55    1.966   .     S
O52    Zn56    1.966   .     S
O53    Zn56    1.982   .     S
O54    Zn55    1.982   .     S
C59    C79     1.437   .     S
C59    O105    1.288   .     A
C59    O107    1.289   .     A
C60    C80     1.438   .     S
C60    O108    1.290   .     A
C60    O106    1.288   .     A
C61    C69     1.408   .     A
C61    H97     1.080   .     S
C61    C63     1.404   .     A
C62    H98     1.080   .     S
C62    C64     1.403   .     A
C62    C70     1.407   .     A
C63    Cl115   1.754   .     S
C63    N103    1.369   .     A
C64    N104    1.369   .     A
C64    Cl116   1.754   .     S
C65    N103    1.362   .     A
C65    H99     1.082   .     S
C65    C67     1.408   .     A
C66    H100    1.082   .     S
C66    C68     1.408   .     A
C66    N104    1.362   .     A
C67    C69     1.416   .     A
C67    H101    1.080   .     S
C68    C70     1.416   .     A
C68    H102    1.080   .     S
C69    C418    1.521   1_554 S
C70    C417    1.521   .     S
C71    C73     1.404   .     S
C71    O111    1.283   .     A
C71    O109    1.277   .     A
C72    O110    1.278   .     A
C72    O112    1.283   .     A
C72    C74     1.404   .     S
C74    C131    1.333   .     S
C74    H146    1.088   .     S
C75    H89     1.083   .     S
C75    C85     1.399   .     A
C75    C77     1.380   .     A
C76    H90     1.083   .     S
C76    C86     1.398   .     A
C76    C78     1.380   .     A
C77    C79     1.399   .     A
C77    H91     1.084   .     S
C78    H92     1.084   .     S
C78    C80     1.400   .     A
C79    C81     1.399   .     A
C80    C82     1.399   .     A
C81    H93     1.084   .     S
C81    C83     1.381   .     A
C82    H94     1.083   .     S
C82    C84     1.381   .     A
C83    C85     1.400   .     A
C83    H95     1.083   .     S
C84    C86     1.400   .     A
C84    H96     1.083   .     S
C85    C260    1.444   1_545 S
C86    C259    1.444   .     S
H87    C131    1.088   .     S
N103   Zn114   2.012   .     S
N104   Zn113   2.012   .     S
O105   Zn113   1.998   .     S
O106   Zn114   1.998   .     S
O107   Zn114   2.004   .     S
O108   Zn113   2.004   .     S
O109   Zn113   1.966   .     S
O110   Zn114   1.966   .     S
O111   Zn114   1.982   .     S
O112   Zn113   1.982   .     S
C117   C137    1.437   .     S
C117   O163    1.288   .     A
C117   O165    1.289   .     A
C118   C138    1.438   .     S
C118   O166    1.290   .     A
C118   O164    1.288   .     A
C119   C127    1.408   .     A
C119   H155    1.080   .     S
C119   C121    1.404   .     A
C120   H156    1.080   .     S
C120   C122    1.403   .     A
C120   C128    1.407   .     A
C121   Cl173   1.754   .     S
C121   N161    1.369   .     A
C122   N162    1.369   .     A
C122   Cl174   1.754   .     S
C123   N161    1.362   .     A
C123   H157    1.082   .     S
C123   C125    1.408   .     A
C124   H158    1.082   .     S
C124   C126    1.408   .     A
C124   N162    1.362   .     A
C125   C127    1.416   .     A
C125   H159    1.080   .     S
C126   C128    1.416   .     A
C126   H160    1.080   .     S
C127   C476    1.521   1_554 S
C128   C475    1.521   .     S
C129   C131    1.404   .     S
C129   O169    1.283   .     A
C129   O167    1.277   .     A
C130   O168    1.278   .     A
C130   O170    1.283   .     A
C130   C132    1.404   .     S
C132   C15     1.333   1_655 S
C132   H30     1.088   1_655 S
C133   H147    1.083   .     S
C133   C143    1.399   .     A
C133   C135    1.380   .     A
C134   H148    1.083   .     S
C134   C144    1.398   .     A
C134   C136    1.380   .     A
C135   C137    1.399   .     A
C135   H149    1.084   .     S
C136   H150    1.084   .     S
C136   C138    1.400   .     A
C137   C139    1.399   .     A
C138   C140    1.399   .     A
C139   H151    1.084   .     S
C139   C141    1.381   .     A
C140   H152    1.083   .     S
C140   C142    1.381   .     A
C141   C143    1.400   .     A
C141   H153    1.083   .     S
C142   C144    1.400   .     A
C142   H154    1.083   .     S
C143   C318    1.444   1_545 S
C144   C317    1.444   .     S
H145   C15     1.088   1_655 S
N161   Zn172   2.012   .     S
N162   Zn171   2.012   .     S
O163   Zn171   1.998   .     S
O164   Zn172   1.998   .     S
O165   Zn172   2.004   .     S
O166   Zn171   2.004   .     S
O167   Zn171   1.966   .     S
O168   Zn172   1.966   .     S
O169   Zn172   1.982   .     S
O170   Zn171   1.982   .     S
C175   C195    1.437   .     S
C175   O221    1.288   .     A
C175   O223    1.289   .     A
C176   C196    1.438   .     S
C176   O224    1.290   .     A
C176   O222    1.288   .     A
C177   C185    1.408   .     A
C177   H213    1.080   .     S
C177   C179    1.404   .     A
C178   H214    1.080   .     S
C178   C180    1.403   .     A
C178   C186    1.407   .     A
C179   Cl231   1.754   .     S
C179   N219    1.369   .     A
C180   N220    1.369   .     A
C180   Cl232   1.754   .     S
C181   N219    1.362   .     A
C181   H215    1.082   .     S
C181   C183    1.408   .     A
C182   H216    1.082   .     S
C182   C184    1.408   .     A
C182   N220    1.362   .     A
C183   C185    1.416   .     A
C183   H217    1.080   .     S
C184   C186    1.416   .     A
C184   H218    1.080   .     S
C185   C534    1.521   1_554 S
C186   C533    1.521   .     S
C187   C189    1.404   .     S
C187   O227    1.283   .     A
C187   O225    1.277   .     A
C188   O226    1.278   .     A
C188   O228    1.283   .     A
C188   C190    1.404   .     S
C189   C306    1.333   1_455 S
C189   H319    1.088   1_455 S
C190   C247    1.333   .     S
C190   H262    1.088   .     S
C191   H205    1.083   .     S
C191   C201    1.399   .     A
C191   C193    1.380   .     A
C192   H206    1.083   .     S
C192   C202    1.398   .     A
C192   C194    1.380   .     A
C193   C195    1.399   .     A
C193   H207    1.084   .     S
C194   H208    1.084   .     S
C194   C196    1.400   .     A
C195   C197    1.399   .     A
C196   C198    1.399   .     A
C197   H209    1.084   .     S
C197   C199    1.381   .     A
C198   H210    1.083   .     S
C198   C200    1.381   .     A
C199   C201    1.400   .     A
C199   H211    1.083   .     S
C200   C202    1.400   .     A
C200   H212    1.083   .     S
C202   C27     1.444   1_565 S
H203   C247    1.088   .     S
H204   C306    1.088   1_455 S
N219   Zn230   2.012   .     S
N220   Zn229   2.012   .     S
O221   Zn229   1.998   .     S
O222   Zn230   1.998   .     S
O223   Zn230   2.004   .     S
O224   Zn229   2.004   .     S
O225   Zn229   1.966   .     S
O226   Zn230   1.966   .     S
O227   Zn230   1.982   .     S
O228   Zn229   1.982   .     S
C233   C253    1.437   .     S
C233   O279    1.288   .     A
C233   O281    1.289   .     A
C234   C254    1.438   .     S
C234   O282    1.290   .     A
C234   O280    1.288   .     A
C235   C243    1.408   .     A
C235   H271    1.080   .     S
C235   C237    1.404   .     A
C236   H272    1.080   .     S
C236   C238    1.403   .     A
C236   C244    1.407   .     A
C237   Cl289   1.754   .     S
C237   N277    1.369   .     A
C238   N278    1.369   .     A
C238   Cl290   1.754   .     S
C239   N277    1.362   .     A
C239   H273    1.082   .     S
C239   C241    1.408   .     A
C240   H274    1.082   .     S
C240   C242    1.408   .     A
C240   N278    1.362   .     A
C241   C243    1.416   .     A
C241   H275    1.080   .     S
C242   C244    1.416   .     A
C242   H276    1.080   .     S
C243   C592    1.521   1_554 S
C244   C591    1.521   .     S
C245   C247    1.404   .     S
C245   O285    1.283   .     A
C245   O283    1.277   .     A
C246   O284    1.278   .     A
C246   O286    1.283   .     A
C246   C248    1.404   .     S
C248   C305    1.333   .     S
C248   H320    1.088   .     S
C249   H263    1.083   .     S
C249   C259    1.399   .     A
C249   C251    1.380   .     A
C250   H264    1.083   .     S
C250   C260    1.398   .     A
C250   C252    1.380   .     A
C251   C253    1.399   .     A
C251   H265    1.084   .     S
C252   H266    1.084   .     S
C252   C254    1.400   .     A
C253   C255    1.399   .     A
C254   C256    1.399   .     A
C255   H267    1.084   .     S
C255   C257    1.381   .     A
C256   H268    1.083   .     S
C256   C258    1.381   .     A
C257   C259    1.400   .     A
C257   H269    1.083   .     S
C258   C260    1.400   .     A
C258   H270    1.083   .     S
C260   C85     1.444   1_565 S
H261   C305    1.088   .     S
N277   Zn288   2.012   .     S
N278   Zn287   2.012   .     S
O279   Zn287   1.998   .     S
O280   Zn288   1.998   .     S
O281   Zn288   2.004   .     S
O282   Zn287   2.004   .     S
O283   Zn287   1.966   .     S
O284   Zn288   1.966   .     S
O285   Zn288   1.982   .     S
O286   Zn287   1.982   .     S
C291   C311    1.437   .     S
C291   O337    1.288   .     A
C291   O339    1.289   .     A
C292   C312    1.438   .     S
C292   O340    1.290   .     A
C292   O338    1.288   .     A
C293   C301    1.408   .     A
C293   H329    1.080   .     S
C293   C295    1.404   .     A
C294   H330    1.080   .     S
C294   C296    1.403   .     A
C294   C302    1.407   .     A
C295   Cl347   1.754   .     S
C295   N335    1.369   .     A
C296   N336    1.369   .     A
C296   Cl348   1.754   .     S
C297   N335    1.362   .     A
C297   H331    1.082   .     S
C297   C299    1.408   .     A
C298   H332    1.082   .     S
C298   C300    1.408   .     A
C298   N336    1.362   .     A
C299   C301    1.416   .     A
C299   H333    1.080   .     S
C300   C302    1.416   .     A
C300   H334    1.080   .     S
C301   C650    1.521   1_554 S
C302   C649    1.521   .     S
C303   C305    1.404   .     S
C303   O343    1.283   .     A
C303   O341    1.277   .     A
C304   O342    1.278   .     A
C304   O344    1.283   .     A
C304   C306    1.404   .     S
C306   C189    1.333   1_655 S
C306   H204    1.088   1_655 S
C307   H321    1.083   .     S
C307   C317    1.399   .     A
C307   C309    1.380   .     A
C308   H322    1.083   .     S
C308   C318    1.398   .     A
C308   C310    1.380   .     A
C309   C311    1.399   .     A
C309   H323    1.084   .     S
C310   H324    1.084   .     S
C310   C312    1.400   .     A
C311   C313    1.399   .     A
C312   C314    1.399   .     A
C313   H325    1.084   .     S
C313   C315    1.381   .     A
C314   H326    1.083   .     S
C314   C316    1.381   .     A
C315   C317    1.400   .     A
C315   H327    1.083   .     S
C316   C318    1.400   .     A
C316   H328    1.083   .     S
C318   C143    1.444   1_565 S
H319   C189    1.088   1_655 S
N335   Zn346   2.012   .     S
N336   Zn345   2.012   .     S
O337   Zn345   1.998   .     S
O338   Zn346   1.998   .     S
O339   Zn346   2.004   .     S
O340   Zn345   2.004   .     S
O341   Zn345   1.966   .     S
O342   Zn346   1.966   .     S
O343   Zn346   1.982   .     S
O344   Zn345   1.982   .     S
C349   C369    1.437   .     S
C349   O395    1.288   .     A
C349   O397    1.289   .     A
C350   C370    1.438   .     S
C350   O398    1.290   .     A
C350   O396    1.288   .     A
C351   C359    1.408   .     A
C351   H387    1.080   .     S
C351   C353    1.404   .     A
C352   H388    1.080   .     S
C352   C354    1.403   .     A
C352   C360    1.407   .     A
C353   Cl405   1.754   .     S
C353   N393    1.369   .     A
C354   N394    1.369   .     A
C354   Cl406   1.754   .     S
C355   N393    1.362   .     A
C355   H389    1.082   .     S
C355   C357    1.408   .     A
C356   H390    1.082   .     S
C356   C358    1.408   .     A
C356   N394    1.362   .     A
C357   C359    1.416   .     A
C357   H391    1.080   .     S
C358   C360    1.416   .     A
C358   H392    1.080   .     S
C360   C11     1.521   1_556 S
C361   C363    1.404   .     S
C361   O401    1.283   .     A
C361   O399    1.277   .     A
C362   O400    1.278   .     A
C362   O402    1.283   .     A
C362   C364    1.404   .     S
C363   C480    1.333   1_455 S
C363   H493    1.088   1_455 S
C364   C421    1.333   .     S
C364   H436    1.088   .     S
C365   H379    1.083   .     S
C365   C375    1.399   .     A
C365   C367    1.380   .     A
C366   H380    1.083   .     S
C366   C376    1.398   .     A
C366   C368    1.380   .     A
C367   C369    1.399   .     A
C367   H381    1.084   .     S
C368   H382    1.084   .     S
C368   C370    1.400   .     A
C369   C371    1.399   .     A
C370   C372    1.399   .     A
C371   H383    1.084   .     S
C371   C373    1.381   .     A
C372   H384    1.083   .     S
C372   C374    1.381   .     A
C373   C375    1.400   .     A
C373   H385    1.083   .     S
C374   C376    1.400   .     A
C374   H386    1.083   .     S
C375   C550    1.444   1_545 S
C376   C549    1.444   .     S
H377   C421    1.088   .     S
H378   C480    1.088   1_455 S
N393   Zn404   2.012   .     S
N394   Zn403   2.012   .     S
O395   Zn403   1.998   .     S
O396   Zn404   1.998   .     S
O397   Zn404   2.004   .     S
O398   Zn403   2.004   .     S
O399   Zn403   1.966   .     S
O400   Zn404   1.966   .     S
O401   Zn404   1.982   .     S
O402   Zn403   1.982   .     S
C407   C427    1.437   .     S
C407   O453    1.288   .     A
C407   O455    1.289   .     A
C408   C428    1.438   .     S
C408   O456    1.290   .     A
C408   O454    1.288   .     A
C409   C417    1.408   .     A
C409   H445    1.080   .     S
C409   C411    1.404   .     A
C410   H446    1.080   .     S
C410   C412    1.403   .     A
C410   C418    1.407   .     A
C411   Cl463   1.754   .     S
C411   N451    1.369   .     A
C412   N452    1.369   .     A
C412   Cl464   1.754   .     S
C413   N451    1.362   .     A
C413   H447    1.082   .     S
C413   C415    1.408   .     A
C414   H448    1.082   .     S
C414   C416    1.408   .     A
C414   N452    1.362   .     A
C415   C417    1.416   .     A
C415   H449    1.080   .     S
C416   C418    1.416   .     A
C416   H450    1.080   .     S
C418   C69     1.521   1_556 S
C419   C421    1.404   .     S
C419   O459    1.283   .     A
C419   O457    1.277   .     A
C420   O458    1.278   .     A
C420   O460    1.283   .     A
C420   C422    1.404   .     S
C422   C479    1.333   .     S
C422   H494    1.088   .     S
C423   H437    1.083   .     S
C423   C433    1.399   .     A
C423   C425    1.380   .     A
C424   H438    1.083   .     S
C424   C434    1.398   .     A
C424   C426    1.380   .     A
C425   C427    1.399   .     A
C425   H439    1.084   .     S
C426   H440    1.084   .     S
C426   C428    1.400   .     A
C427   C429    1.399   .     A
C428   C430    1.399   .     A
C429   H441    1.084   .     S
C429   C431    1.381   .     A
C430   H442    1.083   .     S
C430   C432    1.381   .     A
C431   C433    1.400   .     A
C431   H443    1.083   .     S
C432   C434    1.400   .     A
C432   H444    1.083   .     S
C433   C608    1.444   1_545 S
C434   C607    1.444   .     S
H435   C479    1.088   .     S
N451   Zn462   2.012   .     S
N452   Zn461   2.012   .     S
O453   Zn461   1.998   .     S
O454   Zn462   1.998   .     S
O455   Zn462   2.004   .     S
O456   Zn461   2.004   .     S
O457   Zn461   1.966   .     S
O458   Zn462   1.966   .     S
O459   Zn462   1.982   .     S
O460   Zn461   1.982   .     S
C465   C485    1.437   .     S
C465   O511    1.288   .     A
C465   O513    1.289   .     A
C466   C486    1.438   .     S
C466   O514    1.290   .     A
C466   O512    1.288   .     A
C467   C475    1.408   .     A
C467   H503    1.080   .     S
C467   C469    1.404   .     A
C468   H504    1.080   .     S
C468   C470    1.403   .     A
C468   C476    1.407   .     A
C469   Cl521   1.754   .     S
C469   N509    1.369   .     A
C470   N510    1.369   .     A
C470   Cl522   1.754   .     S
C471   N509    1.362   .     A
C471   H505    1.082   .     S
C471   C473    1.408   .     A
C472   H506    1.082   .     S
C472   C474    1.408   .     A
C472   N510    1.362   .     A
C473   C475    1.416   .     A
C473   H507    1.080   .     S
C474   C476    1.416   .     A
C474   H508    1.080   .     S
C476   C127    1.521   1_556 S
C477   C479    1.404   .     S
C477   O517    1.283   .     A
C477   O515    1.277   .     A
C478   O516    1.278   .     A
C478   O518    1.283   .     A
C478   C480    1.404   .     S
C480   C363    1.333   1_655 S
C480   H378    1.088   1_655 S
C481   H495    1.083   .     S
C481   C491    1.399   .     A
C481   C483    1.380   .     A
C482   H496    1.083   .     S
C482   C492    1.398   .     A
C482   C484    1.380   .     A
C483   C485    1.399   .     A
C483   H497    1.084   .     S
C484   H498    1.084   .     S
C484   C486    1.400   .     A
C485   C487    1.399   .     A
C486   C488    1.399   .     A
C487   H499    1.084   .     S
C487   C489    1.381   .     A
C488   H500    1.083   .     S
C488   C490    1.381   .     A
C489   C491    1.400   .     A
C489   H501    1.083   .     S
C490   C492    1.400   .     A
C490   H502    1.083   .     S
C491   C666    1.444   1_545 S
C492   C665    1.444   .     S
H493   C363    1.088   1_655 S
N509   Zn520   2.012   .     S
N510   Zn519   2.012   .     S
O511   Zn519   1.998   .     S
O512   Zn520   1.998   .     S
O513   Zn520   2.004   .     S
O514   Zn519   2.004   .     S
O515   Zn519   1.966   .     S
O516   Zn520   1.966   .     S
O517   Zn520   1.982   .     S
O518   Zn519   1.982   .     S
C523   C543    1.437   .     S
C523   O569    1.288   .     A
C523   O571    1.289   .     A
C524   C544    1.438   .     S
C524   O572    1.290   .     A
C524   O570    1.288   .     A
C525   C533    1.408   .     A
C525   H561    1.080   .     S
C525   C527    1.404   .     A
C526   H562    1.080   .     S
C526   C528    1.403   .     A
C526   C534    1.407   .     A
C527   Cl579   1.754   .     S
C527   N567    1.369   .     A
C528   N568    1.369   .     A
C528   Cl580   1.754   .     S
C529   N567    1.362   .     A
C529   H563    1.082   .     S
C529   C531    1.408   .     A
C530   H564    1.082   .     S
C530   C532    1.408   .     A
C530   N568    1.362   .     A
C531   C533    1.416   .     A
C531   H565    1.080   .     S
C532   C534    1.416   .     A
C532   H566    1.080   .     S
C534   C185    1.521   1_556 S
C535   C537    1.404   .     S
C535   O575    1.283   .     A
C535   O573    1.277   .     A
C536   O574    1.278   .     A
C536   O576    1.283   .     A
C536   C538    1.404   .     S
C537   C654    1.333   1_455 S
C537   H667    1.088   1_455 S
C538   C595    1.333   .     S
C538   H610    1.088   .     S
C539   H553    1.083   .     S
C539   C549    1.399   .     A
C539   C541    1.380   .     A
C540   H554    1.083   .     S
C540   C550    1.398   .     A
C540   C542    1.380   .     A
C541   C543    1.399   .     A
C541   H555    1.084   .     S
C542   H556    1.084   .     S
C542   C544    1.400   .     A
C543   C545    1.399   .     A
C544   C546    1.399   .     A
C545   H557    1.084   .     S
C545   C547    1.381   .     A
C546   H558    1.083   .     S
C546   C548    1.381   .     A
C547   C549    1.400   .     A
C547   H559    1.083   .     S
C548   C550    1.400   .     A
C548   H560    1.083   .     S
C550   C375    1.444   1_565 S
H551   C595    1.088   .     S
H552   C654    1.088   1_455 S
N567   Zn578   2.012   .     S
N568   Zn577   2.012   .     S
O569   Zn577   1.998   .     S
O570   Zn578   1.998   .     S
O571   Zn578   2.004   .     S
O572   Zn577   2.004   .     S
O573   Zn577   1.966   .     S
O574   Zn578   1.966   .     S
O575   Zn578   1.982   .     S
O576   Zn577   1.982   .     S
C581   C601    1.437   .     S
C581   O627    1.288   .     A
C581   O629    1.289   .     A
C582   C602    1.438   .     S
C582   O630    1.290   .     A
C582   O628    1.288   .     A
C583   C591    1.408   .     A
C583   H619    1.080   .     S
C583   C585    1.404   .     A
C584   H620    1.080   .     S
C584   C586    1.403   .     A
C584   C592    1.407   .     A
C585   Cl637   1.754   .     S
C585   N625    1.369   .     A
C586   N626    1.369   .     A
C586   Cl638   1.754   .     S
C587   N625    1.362   .     A
C587   H621    1.082   .     S
C587   C589    1.408   .     A
C588   H622    1.082   .     S
C588   C590    1.408   .     A
C588   N626    1.362   .     A
C589   C591    1.416   .     A
C589   H623    1.080   .     S
C590   C592    1.416   .     A
C590   H624    1.080   .     S
C592   C243    1.521   1_556 S
C593   C595    1.404   .     S
C593   O633    1.283   .     A
C593   O631    1.277   .     A
C594   O632    1.278   .     A
C594   O634    1.283   .     A
C594   C596    1.404   .     S
C596   C653    1.333   .     S
C596   H668    1.088   .     S
C597   H611    1.083   .     S
C597   C607    1.399   .     A
C597   C599    1.380   .     A
C598   H612    1.083   .     S
C598   C608    1.398   .     A
C598   C600    1.380   .     A
C599   C601    1.399   .     A
C599   H613    1.084   .     S
C600   H614    1.084   .     S
C600   C602    1.400   .     A
C601   C603    1.399   .     A
C602   C604    1.399   .     A
C603   H615    1.084   .     S
C603   C605    1.381   .     A
C604   H616    1.083   .     S
C604   C606    1.381   .     A
C605   C607    1.400   .     A
C605   H617    1.083   .     S
C606   C608    1.400   .     A
C606   H618    1.083   .     S
C608   C433    1.444   1_565 S
H609   C653    1.088   .     S
N625   Zn636   2.012   .     S
N626   Zn635   2.012   .     S
O627   Zn635   1.998   .     S
O628   Zn636   1.998   .     S
O629   Zn636   2.004   .     S
O630   Zn635   2.004   .     S
O631   Zn635   1.966   .     S
O632   Zn636   1.966   .     S
O633   Zn636   1.982   .     S
O634   Zn635   1.982   .     S
C639   C659    1.437   .     S
C639   O685    1.288   .     A
C639   O687    1.289   .     A
C640   C660    1.438   .     S
C640   O688    1.290   .     A
C640   O686    1.288   .     A
C641   C649    1.408   .     A
C641   H677    1.080   .     S
C641   C643    1.404   .     A
C642   H678    1.080   .     S
C642   C644    1.403   .     A
C642   C650    1.407   .     A
C643   Cl695   1.754   .     S
C643   N683    1.369   .     A
C644   N684    1.369   .     A
C644   Cl696   1.754   .     S
C645   N683    1.362   .     A
C645   H679    1.082   .     S
C645   C647    1.408   .     A
C646   H680    1.082   .     S
C646   C648    1.408   .     A
C646   N684    1.362   .     A
C647   C649    1.416   .     A
C647   H681    1.080   .     S
C648   C650    1.416   .     A
C648   H682    1.080   .     S
C650   C301    1.521   1_556 S
C651   C653    1.404   .     S
C651   O691    1.283   .     A
C651   O689    1.277   .     A
C652   O690    1.278   .     A
C652   O692    1.283   .     A
C652   C654    1.404   .     S
C654   C537    1.333   1_655 S
C654   H552    1.088   1_655 S
C655   H669    1.083   .     S
C655   C665    1.399   .     A
C655   C657    1.380   .     A
C656   H670    1.083   .     S
C656   C666    1.398   .     A
C656   C658    1.380   .     A
C657   C659    1.399   .     A
C657   H671    1.084   .     S
C658   H672    1.084   .     S
C658   C660    1.400   .     A
C659   C661    1.399   .     A
C660   C662    1.399   .     A
C661   H673    1.084   .     S
C661   C663    1.381   .     A
C662   H674    1.083   .     S
C662   C664    1.381   .     A
C663   C665    1.400   .     A
C663   H675    1.083   .     S
C664   C666    1.400   .     A
C664   H676    1.083   .     S
C666   C491    1.444   1_565 S
H667   C537    1.088   1_655 S
N683   Zn694   2.012   .     S
N684   Zn693   2.012   .     S
O685   Zn693   1.998   .     S
O686   Zn694   1.998   .     S
O687   Zn694   2.004   .     S
O688   Zn693   2.004   .     S
O689   Zn693   1.966   .     S
O690   Zn694   1.966   .     S
O691   Zn694   1.982   .     S
O692   Zn693   1.982   .     S
