data_str_m3_o10_o17_pcu_sym.206
_audit_creation_date              2020-01-03
_audit_creation_method            'Materials Studio'
_symmetry_space_group_name_H-M    'P1'
_symmetry_Int_Tables_number       1
_symmetry_cell_setting            triclinic
loop_
_symmetry_equiv_pos_as_xyz
  x,y,z
_cell_length_a                    23.6164
_cell_length_b                    25.6096
_cell_length_c                    29.7489
_cell_angle_alpha                 92.4990
_cell_angle_beta                  84.5350
_cell_angle_gamma                 93.7671
loop_
_atom_site_label
_atom_site_type_symbol
_atom_site_fract_x
_atom_site_fract_y
_atom_site_fract_z
_atom_site_U_iso_or_equiv
_atom_site_adp_type
_atom_site_occupancy
O1     O     0.12975   0.24619   0.25299   0.00000  Uiso   1.00
O2     O     0.20358   0.08714   0.24702   0.00000  Uiso   1.00
O3     O     0.22613   0.23721   0.24519   0.00000  Uiso   1.00
O4     O     0.10720   0.09613   0.25482   0.00000  Uiso   1.00
C5     C     0.18181   0.26476   0.24878   0.00000  Uiso   1.00
C6     C     0.15152   0.06857   0.25122   0.00000  Uiso   1.00
O7     O     0.11847   0.17117   0.31998   0.00000  Uiso   1.00
O8     O     0.21486   0.16216   0.18003   0.00000  Uiso   1.00
O9     O     0.21485   0.16219   0.31218   0.00000  Uiso   1.00
O10    O     0.11848   0.17115   0.18783   0.00000  Uiso   1.00
C11    C     0.16681   0.16731   0.33624   0.00000  Uiso   1.00
C12    C     0.16652   0.16602   0.16376   0.00000  Uiso   1.00
Zn13   Zn    0.10231   0.17266   0.25521   0.00000  Uiso   1.00
Zn14   Zn    0.23102   0.16067   0.24479   0.00000  Uiso   1.00
C15    C     0.15152   0.11810   0.09265   0.00000  Uiso   1.00
C16    C     0.18181   0.21523   0.40735   0.00000  Uiso   1.00
C17    C     0.16638   0.16488   0.11609   0.00000  Uiso   1.00
C18    C     0.16695   0.16846   0.38391   0.00000  Uiso   1.00
C19    C     0.18039   0.21159   0.09454   0.00000  Uiso   1.00
C20    C     0.15294   0.12175   0.40546   0.00000  Uiso   1.00
C21    C     0.18017   0.21272   0.04822   0.00000  Uiso   1.00
C22    C     0.15316   0.12062   0.45178   0.00000  Uiso   1.00
C23    C     0.16628   0.16611   0.02347   0.00000  Uiso   1.00
C24    C     0.16705   0.16722   0.47653   0.00000  Uiso   1.00
C25    C     0.15184   0.11844   0.04561   0.00000  Uiso   1.00
C26    C     0.18149   0.21490   0.45439   0.00000  Uiso   1.00
C27    C     0.19361   0.25977   0.02645   0.00000  Uiso   1.00
C28    C     0.13971   0.07356   0.47356   0.00000  Uiso   1.00
C29    C     0.19400   0.26099   0.47987   0.00000  Uiso   1.00
C30    C     0.13933   0.07235   0.02013   0.00000  Uiso   1.00
H31    H     0.19113   0.24706   0.11410   0.00000  Uiso   1.00
H32    H     0.14220   0.08627   0.38590   0.00000  Uiso   1.00
H33    H     0.20375   0.29569   0.04548   0.00000  Uiso   1.00
H34    H     0.12957   0.03765   0.45452   0.00000  Uiso   1.00
H35    H     0.20385   0.29823   0.46419   0.00000  Uiso   1.00
H36    H     0.12947   0.03511   0.03581   0.00000  Uiso   1.00
C37    C     0.18972   0.31937   0.24816   0.00000  Uiso   1.00
C38    C     0.14361   0.01397   0.25184   0.00000  Uiso   1.00
H39    H     0.23329   0.00303   0.24475   0.00000  Uiso   1.00
H40    H     0.10004   0.33030   0.25525   0.00000  Uiso   1.00
N41    N     0.31678   0.15265   0.23783   0.00000  Uiso   1.00
N42    N     0.01656   0.18068   0.26217   0.00000  Uiso   1.00
N43    N     0.13651   0.07095   0.11668   0.00000  Uiso   1.00
O44    O     0.17280   0.05199   0.14090   0.00000  Uiso   1.00
O45    O     0.08547   0.04855   0.11635   0.00000  Uiso   1.00
N46    N     0.19683   0.26238   0.38332   0.00000  Uiso   1.00
O47    O     0.16055   0.28134   0.35908   0.00000  Uiso   1.00
O48    O     0.24786   0.28480   0.38368   0.00000  Uiso   1.00
C49    C     0.00155   0.10236   0.22079   0.00000  Uiso   1.00
H50    H     0.30226   0.08392   0.19969   0.00000  Uiso   1.00
H51    H     0.04141   0.10631   0.19836   0.00000  Uiso   1.00
H52    H     0.00471   0.07631   0.24919   0.00000  Uiso   1.00
C53    C     0.33179   0.23097   0.27921   0.00000  Uiso   1.00
H54    H     0.03108   0.24941   0.30031   0.00000  Uiso   1.00
H55    H     0.32862   0.25703   0.25081   0.00000  Uiso   1.00
H56    H     0.29192   0.22702   0.30164   0.00000  Uiso   1.00
O57    O     0.46308   0.24619   0.25299   0.00000  Uiso   1.00
O58    O     0.53692   0.08714   0.24702   0.00000  Uiso   1.00
O59    O     0.55946   0.23721   0.24519   0.00000  Uiso   1.00
O60    O     0.44054   0.09613   0.25482   0.00000  Uiso   1.00
C61    C     0.51514   0.26476   0.24878   0.00000  Uiso   1.00
C62    C     0.48485   0.06857   0.25122   0.00000  Uiso   1.00
O63    O     0.45181   0.17117   0.31998   0.00000  Uiso   1.00
O64    O     0.54819   0.16216   0.18003   0.00000  Uiso   1.00
O65    O     0.54819   0.16219   0.31218   0.00000  Uiso   1.00
O66    O     0.45181   0.17115   0.18783   0.00000  Uiso   1.00
C67    C     0.50015   0.16731   0.33624   0.00000  Uiso   1.00
C68    C     0.49985   0.16602   0.16376   0.00000  Uiso   1.00
Zn69   Zn    0.43565   0.17266   0.25521   0.00000  Uiso   1.00
Zn70   Zn    0.56435   0.16067   0.24479   0.00000  Uiso   1.00
C71    C     0.48486   0.11810   0.09265   0.00000  Uiso   1.00
C72    C     0.51514   0.21523   0.40735   0.00000  Uiso   1.00
C73    C     0.49971   0.16488   0.11609   0.00000  Uiso   1.00
C74    C     0.50029   0.16846   0.38391   0.00000  Uiso   1.00
C75    C     0.51372   0.21159   0.09454   0.00000  Uiso   1.00
C76    C     0.48628   0.12175   0.40546   0.00000  Uiso   1.00
C77    C     0.51350   0.21272   0.04822   0.00000  Uiso   1.00
C78    C     0.48650   0.12062   0.45178   0.00000  Uiso   1.00
C79    C     0.49961   0.16611   0.02347   0.00000  Uiso   1.00
C80    C     0.50038   0.16722   0.47653   0.00000  Uiso   1.00
C81    C     0.48517   0.11844   0.04561   0.00000  Uiso   1.00
C82    C     0.51482   0.21490   0.45439   0.00000  Uiso   1.00
C83    C     0.52695   0.25977   0.02645   0.00000  Uiso   1.00
C84    C     0.47304   0.07356   0.47356   0.00000  Uiso   1.00
C85    C     0.52733   0.26099   0.47987   0.00000  Uiso   1.00
C86    C     0.47266   0.07235   0.02013   0.00000  Uiso   1.00
H87    H     0.52446   0.24706   0.11410   0.00000  Uiso   1.00
H88    H     0.47553   0.08627   0.38590   0.00000  Uiso   1.00
H89    H     0.53708   0.29569   0.04548   0.00000  Uiso   1.00
H90    H     0.46291   0.03765   0.45452   0.00000  Uiso   1.00
H91    H     0.53718   0.29823   0.46419   0.00000  Uiso   1.00
H92    H     0.46281   0.03511   0.03581   0.00000  Uiso   1.00
C93    C     0.52306   0.31937   0.24816   0.00000  Uiso   1.00
C94    C     0.47694   0.01397   0.25184   0.00000  Uiso   1.00
H95    H     0.56662   0.00303   0.24475   0.00000  Uiso   1.00
H96    H     0.43338   0.33030   0.25525   0.00000  Uiso   1.00
N97    N     0.65011   0.15265   0.23783   0.00000  Uiso   1.00
N98    N     0.34989   0.18068   0.26217   0.00000  Uiso   1.00
N99    N     0.46984   0.07095   0.11668   0.00000  Uiso   1.00
O100   O     0.50613   0.05199   0.14090   0.00000  Uiso   1.00
O101   O     0.41880   0.04855   0.11635   0.00000  Uiso   1.00
N102   N     0.53016   0.26238   0.38332   0.00000  Uiso   1.00
O103   O     0.49389   0.28134   0.35908   0.00000  Uiso   1.00
O104   O     0.58120   0.28480   0.38368   0.00000  Uiso   1.00
C105   C     0.33488   0.10236   0.22079   0.00000  Uiso   1.00
H106   H     0.63559   0.08392   0.19969   0.00000  Uiso   1.00
H107   H     0.37474   0.10631   0.19836   0.00000  Uiso   1.00
H108   H     0.33804   0.07631   0.24919   0.00000  Uiso   1.00
C109   C     0.66512   0.23097   0.27921   0.00000  Uiso   1.00
H110   H     0.36441   0.24941   0.30031   0.00000  Uiso   1.00
H111   H     0.66196   0.25703   0.25081   0.00000  Uiso   1.00
H112   H     0.62526   0.22702   0.30164   0.00000  Uiso   1.00
O113   O     0.79642   0.24619   0.25299   0.00000  Uiso   1.00
O114   O     0.87025   0.08714   0.24702   0.00000  Uiso   1.00
O115   O     0.89280   0.23721   0.24519   0.00000  Uiso   1.00
O116   O     0.77387   0.09613   0.25482   0.00000  Uiso   1.00
C117   C     0.84848   0.26476   0.24878   0.00000  Uiso   1.00
C118   C     0.81819   0.06857   0.25122   0.00000  Uiso   1.00
O119   O     0.78514   0.17117   0.31998   0.00000  Uiso   1.00
O120   O     0.88153   0.16216   0.18003   0.00000  Uiso   1.00
O121   O     0.88152   0.16219   0.31218   0.00000  Uiso   1.00
O122   O     0.78515   0.17115   0.18783   0.00000  Uiso   1.00
C123   C     0.83348   0.16731   0.33624   0.00000  Uiso   1.00
C124   C     0.83319   0.16602   0.16376   0.00000  Uiso   1.00
Zn125  Zn    0.76898   0.17266   0.25521   0.00000  Uiso   1.00
Zn126  Zn    0.89769   0.16067   0.24479   0.00000  Uiso   1.00
C127   C     0.81819   0.11810   0.09265   0.00000  Uiso   1.00
C128   C     0.84848   0.21523   0.40735   0.00000  Uiso   1.00
C129   C     0.83305   0.16488   0.11609   0.00000  Uiso   1.00
C130   C     0.83362   0.16846   0.38391   0.00000  Uiso   1.00
C131   C     0.84705   0.21159   0.09454   0.00000  Uiso   1.00
C132   C     0.81961   0.12175   0.40546   0.00000  Uiso   1.00
C133   C     0.84683   0.21272   0.04822   0.00000  Uiso   1.00
C134   C     0.81983   0.12062   0.45178   0.00000  Uiso   1.00
C135   C     0.83295   0.16611   0.02347   0.00000  Uiso   1.00
C136   C     0.83372   0.16722   0.47653   0.00000  Uiso   1.00
C137   C     0.81851   0.11844   0.04561   0.00000  Uiso   1.00
C138   C     0.84816   0.21490   0.45439   0.00000  Uiso   1.00
C139   C     0.86028   0.25977   0.02645   0.00000  Uiso   1.00
C140   C     0.80638   0.07356   0.47356   0.00000  Uiso   1.00
C141   C     0.86067   0.26099   0.47987   0.00000  Uiso   1.00
C142   C     0.80599   0.07235   0.02013   0.00000  Uiso   1.00
H143   H     0.85780   0.24706   0.11410   0.00000  Uiso   1.00
H144   H     0.80887   0.08627   0.38590   0.00000  Uiso   1.00
H145   H     0.87042   0.29569   0.04548   0.00000  Uiso   1.00
H146   H     0.79624   0.03765   0.45452   0.00000  Uiso   1.00
H147   H     0.87052   0.29823   0.46419   0.00000  Uiso   1.00
H148   H     0.79614   0.03511   0.03581   0.00000  Uiso   1.00
C149   C     0.85639   0.31937   0.24816   0.00000  Uiso   1.00
C150   C     0.81028   0.01397   0.25184   0.00000  Uiso   1.00
H151   H     0.89996   0.00303   0.24475   0.00000  Uiso   1.00
H152   H     0.76671   0.33030   0.25525   0.00000  Uiso   1.00
N153   N     0.98344   0.15265   0.23783   0.00000  Uiso   1.00
N154   N     0.68322   0.18068   0.26217   0.00000  Uiso   1.00
N155   N     0.80317   0.07095   0.11668   0.00000  Uiso   1.00
O156   O     0.83947   0.05199   0.14090   0.00000  Uiso   1.00
O157   O     0.75213   0.04855   0.11635   0.00000  Uiso   1.00
N158   N     0.86350   0.26238   0.38332   0.00000  Uiso   1.00
O159   O     0.82722   0.28134   0.35908   0.00000  Uiso   1.00
O160   O     0.91453   0.28480   0.38368   0.00000  Uiso   1.00
C161   C     0.66821   0.10236   0.22079   0.00000  Uiso   1.00
H162   H     0.96892   0.08392   0.19969   0.00000  Uiso   1.00
H163   H     0.70808   0.10631   0.19836   0.00000  Uiso   1.00
H164   H     0.67138   0.07631   0.24919   0.00000  Uiso   1.00
C165   C     0.99845   0.23097   0.27921   0.00000  Uiso   1.00
H166   H     0.69774   0.24941   0.30031   0.00000  Uiso   1.00
H167   H     0.99529   0.25703   0.25081   0.00000  Uiso   1.00
H168   H     0.95859   0.22702   0.30164   0.00000  Uiso   1.00
O169   O     0.12975   0.57952   0.25299   0.00000  Uiso   1.00
O170   O     0.20358   0.42048   0.24702   0.00000  Uiso   1.00
O171   O     0.22613   0.57054   0.24519   0.00000  Uiso   1.00
O172   O     0.10720   0.42946   0.25482   0.00000  Uiso   1.00
C173   C     0.18181   0.59810   0.24878   0.00000  Uiso   1.00
C174   C     0.15152   0.40190   0.25122   0.00000  Uiso   1.00
O175   O     0.11847   0.50450   0.31998   0.00000  Uiso   1.00
O176   O     0.21486   0.49550   0.18003   0.00000  Uiso   1.00
O177   O     0.21485   0.49552   0.31218   0.00000  Uiso   1.00
O178   O     0.11848   0.50448   0.18783   0.00000  Uiso   1.00
C179   C     0.16681   0.50065   0.33624   0.00000  Uiso   1.00
C180   C     0.16652   0.49935   0.16376   0.00000  Uiso   1.00
Zn181  Zn    0.10231   0.50600   0.25521   0.00000  Uiso   1.00
Zn182  Zn    0.23102   0.49400   0.24479   0.00000  Uiso   1.00
C183   C     0.15152   0.45144   0.09265   0.00000  Uiso   1.00
C184   C     0.18181   0.54857   0.40735   0.00000  Uiso   1.00
C185   C     0.16638   0.49821   0.11609   0.00000  Uiso   1.00
C186   C     0.16695   0.50179   0.38391   0.00000  Uiso   1.00
C187   C     0.18039   0.54492   0.09454   0.00000  Uiso   1.00
C188   C     0.15294   0.45508   0.40546   0.00000  Uiso   1.00
C189   C     0.18017   0.54605   0.04822   0.00000  Uiso   1.00
C190   C     0.15316   0.45395   0.45178   0.00000  Uiso   1.00
C191   C     0.16628   0.49945   0.02347   0.00000  Uiso   1.00
C192   C     0.16705   0.50056   0.47653   0.00000  Uiso   1.00
C193   C     0.15184   0.45177   0.04561   0.00000  Uiso   1.00
C194   C     0.18149   0.54823   0.45439   0.00000  Uiso   1.00
C195   C     0.19361   0.59311   0.02645   0.00000  Uiso   1.00
C196   C     0.13971   0.40690   0.47356   0.00000  Uiso   1.00
C197   C     0.19400   0.59432   0.47987   0.00000  Uiso   1.00
C198   C     0.13933   0.40568   0.02013   0.00000  Uiso   1.00
H199   H     0.19113   0.58040   0.11410   0.00000  Uiso   1.00
H200   H     0.14220   0.41961   0.38590   0.00000  Uiso   1.00
H201   H     0.20375   0.62902   0.04548   0.00000  Uiso   1.00
H202   H     0.12957   0.37098   0.45452   0.00000  Uiso   1.00
H203   H     0.20385   0.63156   0.46419   0.00000  Uiso   1.00
H204   H     0.12947   0.36845   0.03581   0.00000  Uiso   1.00
C205   C     0.18972   0.65270   0.24816   0.00000  Uiso   1.00
C206   C     0.14361   0.34730   0.25184   0.00000  Uiso   1.00
H207   H     0.23329   0.33637   0.24475   0.00000  Uiso   1.00
H208   H     0.10004   0.66363   0.25525   0.00000  Uiso   1.00
N209   N     0.31678   0.48598   0.23783   0.00000  Uiso   1.00
N210   N     0.01656   0.51402   0.26217   0.00000  Uiso   1.00
N211   N     0.13651   0.40428   0.11668   0.00000  Uiso   1.00
O212   O     0.17280   0.38532   0.14090   0.00000  Uiso   1.00
O213   O     0.08547   0.38189   0.11635   0.00000  Uiso   1.00
N214   N     0.19683   0.59572   0.38332   0.00000  Uiso   1.00
O215   O     0.16055   0.61467   0.35908   0.00000  Uiso   1.00
O216   O     0.24786   0.61813   0.38368   0.00000  Uiso   1.00
C217   C     0.00155   0.43569   0.22079   0.00000  Uiso   1.00
H218   H     0.30226   0.41726   0.19969   0.00000  Uiso   1.00
H219   H     0.04141   0.43965   0.19836   0.00000  Uiso   1.00
H220   H     0.00471   0.40964   0.24919   0.00000  Uiso   1.00
C221   C     0.33179   0.56431   0.27921   0.00000  Uiso   1.00
H222   H     0.03108   0.58274   0.30031   0.00000  Uiso   1.00
H223   H     0.32862   0.59036   0.25081   0.00000  Uiso   1.00
H224   H     0.29192   0.56035   0.30164   0.00000  Uiso   1.00
O225   O     0.46308   0.57952   0.25299   0.00000  Uiso   1.00
O226   O     0.53692   0.42048   0.24702   0.00000  Uiso   1.00
O227   O     0.55946   0.57054   0.24519   0.00000  Uiso   1.00
O228   O     0.44054   0.42946   0.25482   0.00000  Uiso   1.00
C229   C     0.51514   0.59810   0.24878   0.00000  Uiso   1.00
C230   C     0.48485   0.40190   0.25122   0.00000  Uiso   1.00
O231   O     0.45181   0.50450   0.31998   0.00000  Uiso   1.00
O232   O     0.54819   0.49550   0.18003   0.00000  Uiso   1.00
O233   O     0.54819   0.49552   0.31218   0.00000  Uiso   1.00
O234   O     0.45181   0.50448   0.18783   0.00000  Uiso   1.00
C235   C     0.50015   0.50065   0.33624   0.00000  Uiso   1.00
C236   C     0.49985   0.49935   0.16376   0.00000  Uiso   1.00
Zn237  Zn    0.43565   0.50600   0.25521   0.00000  Uiso   1.00
Zn238  Zn    0.56435   0.49400   0.24479   0.00000  Uiso   1.00
C239   C     0.48486   0.45144   0.09265   0.00000  Uiso   1.00
C240   C     0.51514   0.54857   0.40735   0.00000  Uiso   1.00
C241   C     0.49971   0.49821   0.11609   0.00000  Uiso   1.00
C242   C     0.50029   0.50179   0.38391   0.00000  Uiso   1.00
C243   C     0.51372   0.54492   0.09454   0.00000  Uiso   1.00
C244   C     0.48628   0.45508   0.40546   0.00000  Uiso   1.00
C245   C     0.51350   0.54605   0.04822   0.00000  Uiso   1.00
C246   C     0.48650   0.45395   0.45178   0.00000  Uiso   1.00
C247   C     0.49961   0.49945   0.02347   0.00000  Uiso   1.00
C248   C     0.50038   0.50056   0.47653   0.00000  Uiso   1.00
C249   C     0.48517   0.45177   0.04561   0.00000  Uiso   1.00
C250   C     0.51482   0.54823   0.45439   0.00000  Uiso   1.00
C251   C     0.52695   0.59311   0.02645   0.00000  Uiso   1.00
C252   C     0.47304   0.40690   0.47356   0.00000  Uiso   1.00
C253   C     0.52733   0.59432   0.47987   0.00000  Uiso   1.00
C254   C     0.47266   0.40568   0.02013   0.00000  Uiso   1.00
H255   H     0.52446   0.58040   0.11410   0.00000  Uiso   1.00
H256   H     0.47553   0.41961   0.38590   0.00000  Uiso   1.00
H257   H     0.53708   0.62902   0.04548   0.00000  Uiso   1.00
H258   H     0.46291   0.37098   0.45452   0.00000  Uiso   1.00
H259   H     0.53718   0.63156   0.46419   0.00000  Uiso   1.00
H260   H     0.46281   0.36845   0.03581   0.00000  Uiso   1.00
C261   C     0.52306   0.65270   0.24816   0.00000  Uiso   1.00
C262   C     0.47694   0.34730   0.25184   0.00000  Uiso   1.00
H263   H     0.56662   0.33637   0.24475   0.00000  Uiso   1.00
H264   H     0.43338   0.66363   0.25525   0.00000  Uiso   1.00
N265   N     0.65011   0.48598   0.23783   0.00000  Uiso   1.00
N266   N     0.34989   0.51402   0.26217   0.00000  Uiso   1.00
N267   N     0.46984   0.40428   0.11668   0.00000  Uiso   1.00
O268   O     0.50613   0.38532   0.14090   0.00000  Uiso   1.00
O269   O     0.41880   0.38189   0.11635   0.00000  Uiso   1.00
N270   N     0.53016   0.59572   0.38332   0.00000  Uiso   1.00
O271   O     0.49389   0.61467   0.35908   0.00000  Uiso   1.00
O272   O     0.58120   0.61813   0.38368   0.00000  Uiso   1.00
C273   C     0.33488   0.43569   0.22079   0.00000  Uiso   1.00
H274   H     0.63559   0.41726   0.19969   0.00000  Uiso   1.00
H275   H     0.37474   0.43965   0.19836   0.00000  Uiso   1.00
H276   H     0.33804   0.40964   0.24919   0.00000  Uiso   1.00
C277   C     0.66512   0.56431   0.27921   0.00000  Uiso   1.00
H278   H     0.36441   0.58274   0.30031   0.00000  Uiso   1.00
H279   H     0.66196   0.59036   0.25081   0.00000  Uiso   1.00
H280   H     0.62526   0.56035   0.30164   0.00000  Uiso   1.00
O281   O     0.79642   0.57952   0.25299   0.00000  Uiso   1.00
O282   O     0.87025   0.42048   0.24702   0.00000  Uiso   1.00
O283   O     0.89280   0.57054   0.24519   0.00000  Uiso   1.00
O284   O     0.77387   0.42946   0.25482   0.00000  Uiso   1.00
C285   C     0.84848   0.59810   0.24878   0.00000  Uiso   1.00
C286   C     0.81819   0.40190   0.25122   0.00000  Uiso   1.00
O287   O     0.78514   0.50450   0.31998   0.00000  Uiso   1.00
O288   O     0.88153   0.49550   0.18003   0.00000  Uiso   1.00
O289   O     0.88152   0.49552   0.31218   0.00000  Uiso   1.00
O290   O     0.78515   0.50448   0.18783   0.00000  Uiso   1.00
C291   C     0.83348   0.50065   0.33624   0.00000  Uiso   1.00
C292   C     0.83319   0.49935   0.16376   0.00000  Uiso   1.00
Zn293  Zn    0.76898   0.50600   0.25521   0.00000  Uiso   1.00
Zn294  Zn    0.89769   0.49400   0.24479   0.00000  Uiso   1.00
C295   C     0.81819   0.45144   0.09265   0.00000  Uiso   1.00
C296   C     0.84848   0.54857   0.40735   0.00000  Uiso   1.00
C297   C     0.83305   0.49821   0.11609   0.00000  Uiso   1.00
C298   C     0.83362   0.50179   0.38391   0.00000  Uiso   1.00
C299   C     0.84705   0.54492   0.09454   0.00000  Uiso   1.00
C300   C     0.81961   0.45508   0.40546   0.00000  Uiso   1.00
C301   C     0.84683   0.54605   0.04822   0.00000  Uiso   1.00
C302   C     0.81983   0.45395   0.45178   0.00000  Uiso   1.00
C303   C     0.83295   0.49945   0.02347   0.00000  Uiso   1.00
C304   C     0.83372   0.50056   0.47653   0.00000  Uiso   1.00
C305   C     0.81851   0.45177   0.04561   0.00000  Uiso   1.00
C306   C     0.84816   0.54823   0.45439   0.00000  Uiso   1.00
C307   C     0.86028   0.59311   0.02645   0.00000  Uiso   1.00
C308   C     0.80638   0.40690   0.47356   0.00000  Uiso   1.00
C309   C     0.86067   0.59432   0.47987   0.00000  Uiso   1.00
C310   C     0.80599   0.40568   0.02013   0.00000  Uiso   1.00
H311   H     0.85780   0.58040   0.11410   0.00000  Uiso   1.00
H312   H     0.80887   0.41961   0.38590   0.00000  Uiso   1.00
H313   H     0.87042   0.62902   0.04548   0.00000  Uiso   1.00
H314   H     0.79624   0.37098   0.45452   0.00000  Uiso   1.00
H315   H     0.87052   0.63156   0.46419   0.00000  Uiso   1.00
H316   H     0.79614   0.36845   0.03581   0.00000  Uiso   1.00
C317   C     0.85639   0.65270   0.24816   0.00000  Uiso   1.00
C318   C     0.81028   0.34730   0.25184   0.00000  Uiso   1.00
H319   H     0.89996   0.33637   0.24475   0.00000  Uiso   1.00
H320   H     0.76671   0.66363   0.25525   0.00000  Uiso   1.00
N321   N     0.98344   0.48598   0.23783   0.00000  Uiso   1.00
N322   N     0.68322   0.51402   0.26217   0.00000  Uiso   1.00
N323   N     0.80317   0.40428   0.11668   0.00000  Uiso   1.00
O324   O     0.83947   0.38532   0.14090   0.00000  Uiso   1.00
O325   O     0.75213   0.38189   0.11635   0.00000  Uiso   1.00
N326   N     0.86350   0.59572   0.38332   0.00000  Uiso   1.00
O327   O     0.82722   0.61467   0.35908   0.00000  Uiso   1.00
O328   O     0.91453   0.61813   0.38368   0.00000  Uiso   1.00
C329   C     0.66821   0.43569   0.22079   0.00000  Uiso   1.00
H330   H     0.96892   0.41726   0.19969   0.00000  Uiso   1.00
H331   H     0.70808   0.43965   0.19836   0.00000  Uiso   1.00
H332   H     0.67138   0.40964   0.24919   0.00000  Uiso   1.00
C333   C     0.99845   0.56431   0.27921   0.00000  Uiso   1.00
H334   H     0.69774   0.58274   0.30031   0.00000  Uiso   1.00
H335   H     0.99529   0.59036   0.25081   0.00000  Uiso   1.00
H336   H     0.95859   0.56035   0.30164   0.00000  Uiso   1.00
O337   O     0.12975   0.91286   0.25299   0.00000  Uiso   1.00
O338   O     0.20358   0.75381   0.24702   0.00000  Uiso   1.00
O339   O     0.22613   0.90387   0.24519   0.00000  Uiso   1.00
O340   O     0.10720   0.76279   0.25482   0.00000  Uiso   1.00
C341   C     0.18181   0.93143   0.24878   0.00000  Uiso   1.00
C342   C     0.15152   0.73524   0.25122   0.00000  Uiso   1.00
O343   O     0.11847   0.83784   0.31998   0.00000  Uiso   1.00
O344   O     0.21486   0.82883   0.18003   0.00000  Uiso   1.00
O345   O     0.21485   0.82885   0.31218   0.00000  Uiso   1.00
O346   O     0.11848   0.83781   0.18783   0.00000  Uiso   1.00
C347   C     0.16681   0.83398   0.33624   0.00000  Uiso   1.00
C348   C     0.16652   0.83269   0.16376   0.00000  Uiso   1.00
Zn349  Zn    0.10231   0.83933   0.25521   0.00000  Uiso   1.00
Zn350  Zn    0.23102   0.82734   0.24479   0.00000  Uiso   1.00
C351   C     0.15152   0.78477   0.09265   0.00000  Uiso   1.00
C352   C     0.18181   0.88190   0.40735   0.00000  Uiso   1.00
C353   C     0.16638   0.83154   0.11609   0.00000  Uiso   1.00
C354   C     0.16695   0.83513   0.38391   0.00000  Uiso   1.00
C355   C     0.18039   0.87826   0.09454   0.00000  Uiso   1.00
C356   C     0.15294   0.78841   0.40546   0.00000  Uiso   1.00
C357   C     0.18017   0.87939   0.04822   0.00000  Uiso   1.00
C358   C     0.15316   0.78728   0.45178   0.00000  Uiso   1.00
C359   C     0.16628   0.83278   0.02347   0.00000  Uiso   1.00
C360   C     0.16705   0.83389   0.47653   0.00000  Uiso   1.00
C361   C     0.15184   0.78511   0.04561   0.00000  Uiso   1.00
C362   C     0.18149   0.88156   0.45439   0.00000  Uiso   1.00
C363   C     0.19361   0.92644   0.02645   0.00000  Uiso   1.00
C364   C     0.13971   0.74023   0.47356   0.00000  Uiso   1.00
C365   C     0.19400   0.92765   0.47987   0.00000  Uiso   1.00
C366   C     0.13933   0.73902   0.02013   0.00000  Uiso   1.00
H367   H     0.19113   0.91373   0.11410   0.00000  Uiso   1.00
H368   H     0.14220   0.75294   0.38590   0.00000  Uiso   1.00
H369   H     0.20375   0.96236   0.04548   0.00000  Uiso   1.00
H370   H     0.12957   0.70432   0.45452   0.00000  Uiso   1.00
H371   H     0.20385   0.96489   0.46419   0.00000  Uiso   1.00
H372   H     0.12947   0.70178   0.03581   0.00000  Uiso   1.00
C373   C     0.18972   0.98603   0.24816   0.00000  Uiso   1.00
C374   C     0.14361   0.68063   0.25184   0.00000  Uiso   1.00
H375   H     0.23329   0.66970   0.24475   0.00000  Uiso   1.00
H376   H     0.10004   0.99697   0.25525   0.00000  Uiso   1.00
N377   N     0.31678   0.81932   0.23783   0.00000  Uiso   1.00
N378   N     0.01656   0.84735   0.26217   0.00000  Uiso   1.00
N379   N     0.13651   0.73762   0.11668   0.00000  Uiso   1.00
O380   O     0.17280   0.71865   0.14090   0.00000  Uiso   1.00
O381   O     0.08547   0.71522   0.11635   0.00000  Uiso   1.00
N382   N     0.19683   0.92905   0.38332   0.00000  Uiso   1.00
O383   O     0.16055   0.94800   0.35908   0.00000  Uiso   1.00
O384   O     0.24786   0.95147   0.38368   0.00000  Uiso   1.00
C385   C     0.00155   0.76903   0.22079   0.00000  Uiso   1.00
H386   H     0.30226   0.75059   0.19969   0.00000  Uiso   1.00
H387   H     0.04141   0.77298   0.19836   0.00000  Uiso   1.00
H388   H     0.00471   0.74297   0.24919   0.00000  Uiso   1.00
C389   C     0.33179   0.89764   0.27921   0.00000  Uiso   1.00
H390   H     0.03108   0.91608   0.30031   0.00000  Uiso   1.00
H391   H     0.32862   0.92369   0.25081   0.00000  Uiso   1.00
H392   H     0.29192   0.89369   0.30164   0.00000  Uiso   1.00
O393   O     0.46308   0.91286   0.25299   0.00000  Uiso   1.00
O394   O     0.53692   0.75381   0.24702   0.00000  Uiso   1.00
O395   O     0.55946   0.90387   0.24519   0.00000  Uiso   1.00
O396   O     0.44054   0.76279   0.25482   0.00000  Uiso   1.00
C397   C     0.51514   0.93143   0.24878   0.00000  Uiso   1.00
C398   C     0.48485   0.73524   0.25122   0.00000  Uiso   1.00
O399   O     0.45181   0.83784   0.31998   0.00000  Uiso   1.00
O400   O     0.54819   0.82883   0.18003   0.00000  Uiso   1.00
O401   O     0.54819   0.82885   0.31218   0.00000  Uiso   1.00
O402   O     0.45181   0.83781   0.18783   0.00000  Uiso   1.00
C403   C     0.50015   0.83398   0.33624   0.00000  Uiso   1.00
C404   C     0.49985   0.83269   0.16376   0.00000  Uiso   1.00
Zn405  Zn    0.43565   0.83933   0.25521   0.00000  Uiso   1.00
Zn406  Zn    0.56435   0.82734   0.24479   0.00000  Uiso   1.00
C407   C     0.48486   0.78477   0.09265   0.00000  Uiso   1.00
C408   C     0.51514   0.88190   0.40735   0.00000  Uiso   1.00
C409   C     0.49971   0.83154   0.11609   0.00000  Uiso   1.00
C410   C     0.50029   0.83513   0.38391   0.00000  Uiso   1.00
C411   C     0.51372   0.87826   0.09454   0.00000  Uiso   1.00
C412   C     0.48628   0.78841   0.40546   0.00000  Uiso   1.00
C413   C     0.51350   0.87939   0.04822   0.00000  Uiso   1.00
C414   C     0.48650   0.78728   0.45178   0.00000  Uiso   1.00
C415   C     0.49961   0.83278   0.02347   0.00000  Uiso   1.00
C416   C     0.50038   0.83389   0.47653   0.00000  Uiso   1.00
C417   C     0.48517   0.78511   0.04561   0.00000  Uiso   1.00
C418   C     0.51482   0.88156   0.45439   0.00000  Uiso   1.00
C419   C     0.52695   0.92644   0.02645   0.00000  Uiso   1.00
C420   C     0.47304   0.74023   0.47356   0.00000  Uiso   1.00
C421   C     0.52733   0.92765   0.47987   0.00000  Uiso   1.00
C422   C     0.47266   0.73902   0.02013   0.00000  Uiso   1.00
H423   H     0.52446   0.91373   0.11410   0.00000  Uiso   1.00
H424   H     0.47553   0.75294   0.38590   0.00000  Uiso   1.00
H425   H     0.53708   0.96236   0.04548   0.00000  Uiso   1.00
H426   H     0.46291   0.70432   0.45452   0.00000  Uiso   1.00
H427   H     0.53718   0.96489   0.46419   0.00000  Uiso   1.00
H428   H     0.46281   0.70178   0.03581   0.00000  Uiso   1.00
C429   C     0.52306   0.98603   0.24816   0.00000  Uiso   1.00
C430   C     0.47694   0.68063   0.25184   0.00000  Uiso   1.00
H431   H     0.56662   0.66970   0.24475   0.00000  Uiso   1.00
H432   H     0.43338   0.99697   0.25525   0.00000  Uiso   1.00
N433   N     0.65011   0.81932   0.23783   0.00000  Uiso   1.00
N434   N     0.34989   0.84735   0.26217   0.00000  Uiso   1.00
N435   N     0.46984   0.73762   0.11668   0.00000  Uiso   1.00
O436   O     0.50613   0.71865   0.14090   0.00000  Uiso   1.00
O437   O     0.41880   0.71522   0.11635   0.00000  Uiso   1.00
N438   N     0.53016   0.92905   0.38332   0.00000  Uiso   1.00
O439   O     0.49389   0.94800   0.35908   0.00000  Uiso   1.00
O440   O     0.58120   0.95147   0.38368   0.00000  Uiso   1.00
C441   C     0.33488   0.76903   0.22079   0.00000  Uiso   1.00
H442   H     0.63559   0.75059   0.19969   0.00000  Uiso   1.00
H443   H     0.37474   0.77298   0.19836   0.00000  Uiso   1.00
H444   H     0.33804   0.74297   0.24919   0.00000  Uiso   1.00
C445   C     0.66512   0.89764   0.27921   0.00000  Uiso   1.00
H446   H     0.36441   0.91608   0.30031   0.00000  Uiso   1.00
H447   H     0.66196   0.92369   0.25081   0.00000  Uiso   1.00
H448   H     0.62526   0.89369   0.30164   0.00000  Uiso   1.00
O449   O     0.79642   0.91286   0.25299   0.00000  Uiso   1.00
O450   O     0.87025   0.75381   0.24702   0.00000  Uiso   1.00
O451   O     0.89280   0.90387   0.24519   0.00000  Uiso   1.00
O452   O     0.77387   0.76279   0.25482   0.00000  Uiso   1.00
C453   C     0.84848   0.93143   0.24878   0.00000  Uiso   1.00
C454   C     0.81819   0.73524   0.25122   0.00000  Uiso   1.00
O455   O     0.78514   0.83784   0.31998   0.00000  Uiso   1.00
O456   O     0.88153   0.82883   0.18003   0.00000  Uiso   1.00
O457   O     0.88152   0.82885   0.31218   0.00000  Uiso   1.00
O458   O     0.78515   0.83781   0.18783   0.00000  Uiso   1.00
C459   C     0.83348   0.83398   0.33624   0.00000  Uiso   1.00
C460   C     0.83319   0.83269   0.16376   0.00000  Uiso   1.00
Zn461  Zn    0.76898   0.83933   0.25521   0.00000  Uiso   1.00
Zn462  Zn    0.89769   0.82734   0.24479   0.00000  Uiso   1.00
C463   C     0.81819   0.78477   0.09265   0.00000  Uiso   1.00
C464   C     0.84848   0.88190   0.40735   0.00000  Uiso   1.00
C465   C     0.83305   0.83154   0.11609   0.00000  Uiso   1.00
C466   C     0.83362   0.83513   0.38391   0.00000  Uiso   1.00
C467   C     0.84705   0.87826   0.09454   0.00000  Uiso   1.00
C468   C     0.81961   0.78841   0.40546   0.00000  Uiso   1.00
C469   C     0.84683   0.87939   0.04822   0.00000  Uiso   1.00
C470   C     0.81983   0.78728   0.45178   0.00000  Uiso   1.00
C471   C     0.83295   0.83278   0.02347   0.00000  Uiso   1.00
C472   C     0.83372   0.83389   0.47653   0.00000  Uiso   1.00
C473   C     0.81851   0.78511   0.04561   0.00000  Uiso   1.00
C474   C     0.84816   0.88156   0.45439   0.00000  Uiso   1.00
C475   C     0.86028   0.92644   0.02645   0.00000  Uiso   1.00
C476   C     0.80638   0.74023   0.47356   0.00000  Uiso   1.00
C477   C     0.86067   0.92765   0.47987   0.00000  Uiso   1.00
C478   C     0.80599   0.73902   0.02013   0.00000  Uiso   1.00
H479   H     0.85780   0.91373   0.11410   0.00000  Uiso   1.00
H480   H     0.80887   0.75294   0.38590   0.00000  Uiso   1.00
H481   H     0.87042   0.96236   0.04548   0.00000  Uiso   1.00
H482   H     0.79624   0.70432   0.45452   0.00000  Uiso   1.00
H483   H     0.87052   0.96489   0.46419   0.00000  Uiso   1.00
H484   H     0.79614   0.70178   0.03581   0.00000  Uiso   1.00
C485   C     0.85639   0.98603   0.24816   0.00000  Uiso   1.00
C486   C     0.81028   0.68063   0.25184   0.00000  Uiso   1.00
H487   H     0.89996   0.66970   0.24475   0.00000  Uiso   1.00
H488   H     0.76671   0.99697   0.25525   0.00000  Uiso   1.00
N489   N     0.98344   0.81932   0.23783   0.00000  Uiso   1.00
N490   N     0.68322   0.84735   0.26217   0.00000  Uiso   1.00
N491   N     0.80317   0.73762   0.11668   0.00000  Uiso   1.00
O492   O     0.83947   0.71865   0.14090   0.00000  Uiso   1.00
O493   O     0.75213   0.71522   0.11635   0.00000  Uiso   1.00
N494   N     0.86350   0.92905   0.38332   0.00000  Uiso   1.00
O495   O     0.82722   0.94800   0.35908   0.00000  Uiso   1.00
O496   O     0.91453   0.95147   0.38368   0.00000  Uiso   1.00
C497   C     0.66821   0.76903   0.22079   0.00000  Uiso   1.00
H498   H     0.96892   0.75059   0.19969   0.00000  Uiso   1.00
H499   H     0.70808   0.77298   0.19836   0.00000  Uiso   1.00
H500   H     0.67138   0.74297   0.24919   0.00000  Uiso   1.00
C501   C     0.99845   0.89764   0.27921   0.00000  Uiso   1.00
H502   H     0.69774   0.91608   0.30031   0.00000  Uiso   1.00
H503   H     0.99529   0.92369   0.25081   0.00000  Uiso   1.00
H504   H     0.95859   0.89369   0.30164   0.00000  Uiso   1.00
O505   O     0.12975   0.24619   0.75299   0.00000  Uiso   1.00
O506   O     0.20358   0.08714   0.74702   0.00000  Uiso   1.00
O507   O     0.22613   0.23721   0.74519   0.00000  Uiso   1.00
O508   O     0.10720   0.09613   0.75482   0.00000  Uiso   1.00
C509   C     0.18181   0.26476   0.74878   0.00000  Uiso   1.00
C510   C     0.15152   0.06857   0.75122   0.00000  Uiso   1.00
O511   O     0.11847   0.17117   0.81998   0.00000  Uiso   1.00
O512   O     0.21486   0.16216   0.68003   0.00000  Uiso   1.00
O513   O     0.21485   0.16219   0.81218   0.00000  Uiso   1.00
O514   O     0.11848   0.17115   0.68783   0.00000  Uiso   1.00
C515   C     0.16681   0.16731   0.83624   0.00000  Uiso   1.00
C516   C     0.16652   0.16602   0.66376   0.00000  Uiso   1.00
Zn517  Zn    0.10231   0.17266   0.75521   0.00000  Uiso   1.00
Zn518  Zn    0.23102   0.16067   0.74479   0.00000  Uiso   1.00
C519   C     0.15152   0.11810   0.59265   0.00000  Uiso   1.00
C520   C     0.18181   0.21523   0.90735   0.00000  Uiso   1.00
C521   C     0.16638   0.16488   0.61609   0.00000  Uiso   1.00
C522   C     0.16695   0.16846   0.88391   0.00000  Uiso   1.00
C523   C     0.18039   0.21159   0.59454   0.00000  Uiso   1.00
C524   C     0.15294   0.12175   0.90546   0.00000  Uiso   1.00
C525   C     0.18017   0.21272   0.54822   0.00000  Uiso   1.00
C526   C     0.15316   0.12062   0.95178   0.00000  Uiso   1.00
C527   C     0.16628   0.16611   0.52347   0.00000  Uiso   1.00
C528   C     0.16705   0.16722   0.97653   0.00000  Uiso   1.00
C529   C     0.15184   0.11844   0.54561   0.00000  Uiso   1.00
C530   C     0.18149   0.21490   0.95439   0.00000  Uiso   1.00
C531   C     0.19361   0.25977   0.52645   0.00000  Uiso   1.00
C532   C     0.13971   0.07356   0.97356   0.00000  Uiso   1.00
C533   C     0.19400   0.26099   0.97987   0.00000  Uiso   1.00
C534   C     0.13933   0.07235   0.52013   0.00000  Uiso   1.00
H535   H     0.19113   0.24706   0.61410   0.00000  Uiso   1.00
H536   H     0.14220   0.08627   0.88590   0.00000  Uiso   1.00
H537   H     0.20375   0.29569   0.54548   0.00000  Uiso   1.00
H538   H     0.12957   0.03765   0.95452   0.00000  Uiso   1.00
H539   H     0.20385   0.29823   0.96419   0.00000  Uiso   1.00
H540   H     0.12947   0.03511   0.53581   0.00000  Uiso   1.00
C541   C     0.18972   0.31937   0.74816   0.00000  Uiso   1.00
C542   C     0.14361   0.01397   0.75184   0.00000  Uiso   1.00
H543   H     0.23329   0.00303   0.74475   0.00000  Uiso   1.00
H544   H     0.10004   0.33030   0.75525   0.00000  Uiso   1.00
N545   N     0.31678   0.15265   0.73783   0.00000  Uiso   1.00
N546   N     0.01656   0.18068   0.76217   0.00000  Uiso   1.00
N547   N     0.13651   0.07095   0.61668   0.00000  Uiso   1.00
O548   O     0.17280   0.05199   0.64090   0.00000  Uiso   1.00
O549   O     0.08547   0.04855   0.61635   0.00000  Uiso   1.00
N550   N     0.19683   0.26238   0.88332   0.00000  Uiso   1.00
O551   O     0.16055   0.28134   0.85908   0.00000  Uiso   1.00
O552   O     0.24786   0.28480   0.88368   0.00000  Uiso   1.00
C553   C     0.00155   0.10236   0.72079   0.00000  Uiso   1.00
H554   H     0.30226   0.08392   0.69969   0.00000  Uiso   1.00
H555   H     0.04141   0.10631   0.69836   0.00000  Uiso   1.00
H556   H     0.00471   0.07631   0.74919   0.00000  Uiso   1.00
C557   C     0.33179   0.23097   0.77921   0.00000  Uiso   1.00
H558   H     0.03108   0.24941   0.80031   0.00000  Uiso   1.00
H559   H     0.32862   0.25703   0.75081   0.00000  Uiso   1.00
H560   H     0.29192   0.22702   0.80164   0.00000  Uiso   1.00
O561   O     0.46308   0.24619   0.75299   0.00000  Uiso   1.00
O562   O     0.53692   0.08714   0.74702   0.00000  Uiso   1.00
O563   O     0.55946   0.23721   0.74519   0.00000  Uiso   1.00
O564   O     0.44054   0.09613   0.75482   0.00000  Uiso   1.00
C565   C     0.51514   0.26476   0.74878   0.00000  Uiso   1.00
C566   C     0.48485   0.06857   0.75122   0.00000  Uiso   1.00
O567   O     0.45181   0.17117   0.81998   0.00000  Uiso   1.00
O568   O     0.54819   0.16216   0.68003   0.00000  Uiso   1.00
O569   O     0.54819   0.16219   0.81218   0.00000  Uiso   1.00
O570   O     0.45181   0.17115   0.68783   0.00000  Uiso   1.00
C571   C     0.50015   0.16731   0.83624   0.00000  Uiso   1.00
C572   C     0.49985   0.16602   0.66376   0.00000  Uiso   1.00
Zn573  Zn    0.43565   0.17266   0.75521   0.00000  Uiso   1.00
Zn574  Zn    0.56435   0.16067   0.74479   0.00000  Uiso   1.00
C575   C     0.48486   0.11810   0.59265   0.00000  Uiso   1.00
C576   C     0.51514   0.21523   0.90735   0.00000  Uiso   1.00
C577   C     0.49971   0.16488   0.61609   0.00000  Uiso   1.00
C578   C     0.50029   0.16846   0.88391   0.00000  Uiso   1.00
C579   C     0.51372   0.21159   0.59454   0.00000  Uiso   1.00
C580   C     0.48628   0.12175   0.90546   0.00000  Uiso   1.00
C581   C     0.51350   0.21272   0.54822   0.00000  Uiso   1.00
C582   C     0.48650   0.12062   0.95178   0.00000  Uiso   1.00
C583   C     0.49961   0.16611   0.52347   0.00000  Uiso   1.00
C584   C     0.50038   0.16722   0.97653   0.00000  Uiso   1.00
C585   C     0.48517   0.11844   0.54561   0.00000  Uiso   1.00
C586   C     0.51482   0.21490   0.95439   0.00000  Uiso   1.00
C587   C     0.52695   0.25977   0.52645   0.00000  Uiso   1.00
C588   C     0.47304   0.07356   0.97356   0.00000  Uiso   1.00
C589   C     0.52733   0.26099   0.97987   0.00000  Uiso   1.00
C590   C     0.47266   0.07235   0.52013   0.00000  Uiso   1.00
H591   H     0.52446   0.24706   0.61410   0.00000  Uiso   1.00
H592   H     0.47553   0.08627   0.88590   0.00000  Uiso   1.00
H593   H     0.53708   0.29569   0.54548   0.00000  Uiso   1.00
H594   H     0.46291   0.03765   0.95452   0.00000  Uiso   1.00
H595   H     0.53718   0.29823   0.96419   0.00000  Uiso   1.00
H596   H     0.46281   0.03511   0.53581   0.00000  Uiso   1.00
C597   C     0.52306   0.31937   0.74816   0.00000  Uiso   1.00
C598   C     0.47694   0.01397   0.75184   0.00000  Uiso   1.00
H599   H     0.56662   0.00303   0.74475   0.00000  Uiso   1.00
H600   H     0.43338   0.33030   0.75525   0.00000  Uiso   1.00
N601   N     0.65011   0.15265   0.73783   0.00000  Uiso   1.00
N602   N     0.34989   0.18068   0.76217   0.00000  Uiso   1.00
N603   N     0.46984   0.07095   0.61668   0.00000  Uiso   1.00
O604   O     0.50613   0.05199   0.64090   0.00000  Uiso   1.00
O605   O     0.41880   0.04855   0.61635   0.00000  Uiso   1.00
N606   N     0.53016   0.26238   0.88332   0.00000  Uiso   1.00
O607   O     0.49389   0.28134   0.85908   0.00000  Uiso   1.00
O608   O     0.58120   0.28480   0.88368   0.00000  Uiso   1.00
C609   C     0.33488   0.10236   0.72079   0.00000  Uiso   1.00
H610   H     0.63559   0.08392   0.69969   0.00000  Uiso   1.00
H611   H     0.37474   0.10631   0.69836   0.00000  Uiso   1.00
H612   H     0.33804   0.07631   0.74919   0.00000  Uiso   1.00
C613   C     0.66512   0.23097   0.77921   0.00000  Uiso   1.00
H614   H     0.36441   0.24941   0.80031   0.00000  Uiso   1.00
H615   H     0.66196   0.25703   0.75081   0.00000  Uiso   1.00
H616   H     0.62526   0.22702   0.80164   0.00000  Uiso   1.00
O617   O     0.79642   0.24619   0.75299   0.00000  Uiso   1.00
O618   O     0.87025   0.08714   0.74702   0.00000  Uiso   1.00
O619   O     0.89280   0.23721   0.74519   0.00000  Uiso   1.00
O620   O     0.77387   0.09613   0.75482   0.00000  Uiso   1.00
C621   C     0.84848   0.26476   0.74878   0.00000  Uiso   1.00
C622   C     0.81819   0.06857   0.75122   0.00000  Uiso   1.00
O623   O     0.78514   0.17117   0.81998   0.00000  Uiso   1.00
O624   O     0.88153   0.16216   0.68003   0.00000  Uiso   1.00
O625   O     0.88152   0.16219   0.81218   0.00000  Uiso   1.00
O626   O     0.78515   0.17115   0.68783   0.00000  Uiso   1.00
C627   C     0.83348   0.16731   0.83624   0.00000  Uiso   1.00
C628   C     0.83319   0.16602   0.66376   0.00000  Uiso   1.00
Zn629  Zn    0.76898   0.17266   0.75521   0.00000  Uiso   1.00
Zn630  Zn    0.89769   0.16067   0.74479   0.00000  Uiso   1.00
C631   C     0.81819   0.11810   0.59265   0.00000  Uiso   1.00
C632   C     0.84848   0.21523   0.90735   0.00000  Uiso   1.00
C633   C     0.83305   0.16488   0.61609   0.00000  Uiso   1.00
C634   C     0.83362   0.16846   0.88391   0.00000  Uiso   1.00
C635   C     0.84705   0.21159   0.59454   0.00000  Uiso   1.00
C636   C     0.81961   0.12175   0.90546   0.00000  Uiso   1.00
C637   C     0.84683   0.21272   0.54822   0.00000  Uiso   1.00
C638   C     0.81983   0.12062   0.95178   0.00000  Uiso   1.00
C639   C     0.83295   0.16611   0.52347   0.00000  Uiso   1.00
C640   C     0.83372   0.16722   0.97653   0.00000  Uiso   1.00
C641   C     0.81851   0.11844   0.54561   0.00000  Uiso   1.00
C642   C     0.84816   0.21490   0.95439   0.00000  Uiso   1.00
C643   C     0.86028   0.25977   0.52645   0.00000  Uiso   1.00
C644   C     0.80638   0.07356   0.97356   0.00000  Uiso   1.00
C645   C     0.86067   0.26099   0.97987   0.00000  Uiso   1.00
C646   C     0.80599   0.07235   0.52013   0.00000  Uiso   1.00
H647   H     0.85780   0.24706   0.61410   0.00000  Uiso   1.00
H648   H     0.80887   0.08627   0.88590   0.00000  Uiso   1.00
H649   H     0.87042   0.29569   0.54548   0.00000  Uiso   1.00
H650   H     0.79624   0.03765   0.95452   0.00000  Uiso   1.00
H651   H     0.87052   0.29823   0.96419   0.00000  Uiso   1.00
H652   H     0.79614   0.03511   0.53581   0.00000  Uiso   1.00
C653   C     0.85639   0.31937   0.74816   0.00000  Uiso   1.00
C654   C     0.81028   0.01397   0.75184   0.00000  Uiso   1.00
H655   H     0.89996   0.00303   0.74475   0.00000  Uiso   1.00
H656   H     0.76671   0.33030   0.75525   0.00000  Uiso   1.00
N657   N     0.98344   0.15265   0.73783   0.00000  Uiso   1.00
N658   N     0.68322   0.18068   0.76217   0.00000  Uiso   1.00
N659   N     0.80317   0.07095   0.61668   0.00000  Uiso   1.00
O660   O     0.83947   0.05199   0.64090   0.00000  Uiso   1.00
O661   O     0.75213   0.04855   0.61635   0.00000  Uiso   1.00
N662   N     0.86350   0.26238   0.88332   0.00000  Uiso   1.00
O663   O     0.82722   0.28134   0.85908   0.00000  Uiso   1.00
O664   O     0.91453   0.28480   0.88368   0.00000  Uiso   1.00
C665   C     0.66821   0.10236   0.72079   0.00000  Uiso   1.00
H666   H     0.96892   0.08392   0.69969   0.00000  Uiso   1.00
H667   H     0.70808   0.10631   0.69836   0.00000  Uiso   1.00
H668   H     0.67138   0.07631   0.74919   0.00000  Uiso   1.00
C669   C     0.99845   0.23097   0.77921   0.00000  Uiso   1.00
H670   H     0.69774   0.24941   0.80031   0.00000  Uiso   1.00
H671   H     0.99529   0.25703   0.75081   0.00000  Uiso   1.00
H672   H     0.95859   0.22702   0.80164   0.00000  Uiso   1.00
O673   O     0.12975   0.57952   0.75299   0.00000  Uiso   1.00
O674   O     0.20358   0.42048   0.74702   0.00000  Uiso   1.00
O675   O     0.22613   0.57054   0.74519   0.00000  Uiso   1.00
O676   O     0.10720   0.42946   0.75482   0.00000  Uiso   1.00
C677   C     0.18181   0.59810   0.74878   0.00000  Uiso   1.00
C678   C     0.15152   0.40190   0.75122   0.00000  Uiso   1.00
O679   O     0.11847   0.50450   0.81998   0.00000  Uiso   1.00
O680   O     0.21486   0.49550   0.68003   0.00000  Uiso   1.00
O681   O     0.21485   0.49552   0.81218   0.00000  Uiso   1.00
O682   O     0.11848   0.50448   0.68783   0.00000  Uiso   1.00
C683   C     0.16681   0.50065   0.83624   0.00000  Uiso   1.00
C684   C     0.16652   0.49935   0.66376   0.00000  Uiso   1.00
Zn685  Zn    0.10231   0.50600   0.75521   0.00000  Uiso   1.00
Zn686  Zn    0.23102   0.49400   0.74479   0.00000  Uiso   1.00
C687   C     0.15152   0.45144   0.59265   0.00000  Uiso   1.00
C688   C     0.18181   0.54857   0.90735   0.00000  Uiso   1.00
C689   C     0.16638   0.49821   0.61609   0.00000  Uiso   1.00
C690   C     0.16695   0.50179   0.88391   0.00000  Uiso   1.00
C691   C     0.18039   0.54492   0.59454   0.00000  Uiso   1.00
C692   C     0.15294   0.45508   0.90546   0.00000  Uiso   1.00
C693   C     0.18017   0.54605   0.54822   0.00000  Uiso   1.00
C694   C     0.15316   0.45395   0.95178   0.00000  Uiso   1.00
C695   C     0.16628   0.49945   0.52347   0.00000  Uiso   1.00
C696   C     0.16705   0.50056   0.97653   0.00000  Uiso   1.00
C697   C     0.15184   0.45177   0.54561   0.00000  Uiso   1.00
C698   C     0.18149   0.54823   0.95439   0.00000  Uiso   1.00
C699   C     0.19361   0.59311   0.52645   0.00000  Uiso   1.00
C700   C     0.13971   0.40690   0.97356   0.00000  Uiso   1.00
C701   C     0.19400   0.59432   0.97987   0.00000  Uiso   1.00
C702   C     0.13933   0.40568   0.52013   0.00000  Uiso   1.00
H703   H     0.19113   0.58040   0.61410   0.00000  Uiso   1.00
H704   H     0.14220   0.41961   0.88590   0.00000  Uiso   1.00
H705   H     0.20375   0.62902   0.54548   0.00000  Uiso   1.00
H706   H     0.12957   0.37098   0.95452   0.00000  Uiso   1.00
H707   H     0.20385   0.63156   0.96419   0.00000  Uiso   1.00
H708   H     0.12947   0.36845   0.53581   0.00000  Uiso   1.00
C709   C     0.18972   0.65270   0.74816   0.00000  Uiso   1.00
C710   C     0.14361   0.34730   0.75184   0.00000  Uiso   1.00
H711   H     0.23329   0.33637   0.74475   0.00000  Uiso   1.00
H712   H     0.10004   0.66363   0.75525   0.00000  Uiso   1.00
N713   N     0.31678   0.48598   0.73783   0.00000  Uiso   1.00
N714   N     0.01656   0.51402   0.76217   0.00000  Uiso   1.00
N715   N     0.13651   0.40428   0.61668   0.00000  Uiso   1.00
O716   O     0.17280   0.38532   0.64090   0.00000  Uiso   1.00
O717   O     0.08547   0.38189   0.61635   0.00000  Uiso   1.00
N718   N     0.19683   0.59572   0.88332   0.00000  Uiso   1.00
O719   O     0.16055   0.61467   0.85908   0.00000  Uiso   1.00
O720   O     0.24786   0.61813   0.88368   0.00000  Uiso   1.00
C721   C     0.00155   0.43569   0.72079   0.00000  Uiso   1.00
H722   H     0.30226   0.41726   0.69969   0.00000  Uiso   1.00
H723   H     0.04141   0.43965   0.69836   0.00000  Uiso   1.00
H724   H     0.00471   0.40964   0.74919   0.00000  Uiso   1.00
C725   C     0.33179   0.56431   0.77921   0.00000  Uiso   1.00
H726   H     0.03108   0.58274   0.80031   0.00000  Uiso   1.00
H727   H     0.32862   0.59036   0.75081   0.00000  Uiso   1.00
H728   H     0.29192   0.56035   0.80164   0.00000  Uiso   1.00
O729   O     0.46308   0.57952   0.75299   0.00000  Uiso   1.00
O730   O     0.53692   0.42048   0.74702   0.00000  Uiso   1.00
O731   O     0.55946   0.57054   0.74519   0.00000  Uiso   1.00
O732   O     0.44054   0.42946   0.75482   0.00000  Uiso   1.00
C733   C     0.51514   0.59810   0.74878   0.00000  Uiso   1.00
C734   C     0.48485   0.40190   0.75122   0.00000  Uiso   1.00
O735   O     0.45181   0.50450   0.81998   0.00000  Uiso   1.00
O736   O     0.54819   0.49550   0.68003   0.00000  Uiso   1.00
O737   O     0.54819   0.49552   0.81218   0.00000  Uiso   1.00
O738   O     0.45181   0.50448   0.68783   0.00000  Uiso   1.00
C739   C     0.50015   0.50065   0.83624   0.00000  Uiso   1.00
C740   C     0.49985   0.49935   0.66376   0.00000  Uiso   1.00
Zn741  Zn    0.43565   0.50600   0.75521   0.00000  Uiso   1.00
Zn742  Zn    0.56435   0.49400   0.74479   0.00000  Uiso   1.00
C743   C     0.48486   0.45144   0.59265   0.00000  Uiso   1.00
C744   C     0.51514   0.54857   0.90735   0.00000  Uiso   1.00
C745   C     0.49971   0.49821   0.61609   0.00000  Uiso   1.00
C746   C     0.50029   0.50179   0.88391   0.00000  Uiso   1.00
C747   C     0.51372   0.54492   0.59454   0.00000  Uiso   1.00
C748   C     0.48628   0.45508   0.90546   0.00000  Uiso   1.00
C749   C     0.51350   0.54605   0.54822   0.00000  Uiso   1.00
C750   C     0.48650   0.45395   0.95178   0.00000  Uiso   1.00
C751   C     0.49961   0.49945   0.52347   0.00000  Uiso   1.00
C752   C     0.50038   0.50056   0.97653   0.00000  Uiso   1.00
C753   C     0.48517   0.45177   0.54561   0.00000  Uiso   1.00
C754   C     0.51482   0.54823   0.95439   0.00000  Uiso   1.00
C755   C     0.52695   0.59311   0.52645   0.00000  Uiso   1.00
C756   C     0.47304   0.40690   0.97356   0.00000  Uiso   1.00
C757   C     0.52733   0.59432   0.97987   0.00000  Uiso   1.00
C758   C     0.47266   0.40568   0.52013   0.00000  Uiso   1.00
H759   H     0.52446   0.58040   0.61410   0.00000  Uiso   1.00
H760   H     0.47553   0.41961   0.88590   0.00000  Uiso   1.00
H761   H     0.53708   0.62902   0.54548   0.00000  Uiso   1.00
H762   H     0.46291   0.37098   0.95452   0.00000  Uiso   1.00
H763   H     0.53718   0.63156   0.96419   0.00000  Uiso   1.00
H764   H     0.46281   0.36845   0.53581   0.00000  Uiso   1.00
C765   C     0.52306   0.65270   0.74816   0.00000  Uiso   1.00
C766   C     0.47694   0.34730   0.75184   0.00000  Uiso   1.00
H767   H     0.56662   0.33637   0.74475   0.00000  Uiso   1.00
H768   H     0.43338   0.66363   0.75525   0.00000  Uiso   1.00
N769   N     0.65011   0.48598   0.73783   0.00000  Uiso   1.00
N770   N     0.34989   0.51402   0.76217   0.00000  Uiso   1.00
N771   N     0.46984   0.40428   0.61668   0.00000  Uiso   1.00
O772   O     0.50613   0.38532   0.64090   0.00000  Uiso   1.00
O773   O     0.41880   0.38189   0.61635   0.00000  Uiso   1.00
N774   N     0.53016   0.59572   0.88332   0.00000  Uiso   1.00
O775   O     0.49389   0.61467   0.85908   0.00000  Uiso   1.00
O776   O     0.58120   0.61813   0.88368   0.00000  Uiso   1.00
C777   C     0.33488   0.43569   0.72079   0.00000  Uiso   1.00
H778   H     0.63559   0.41726   0.69969   0.00000  Uiso   1.00
H779   H     0.37474   0.43965   0.69836   0.00000  Uiso   1.00
H780   H     0.33804   0.40964   0.74919   0.00000  Uiso   1.00
C781   C     0.66512   0.56431   0.77921   0.00000  Uiso   1.00
H782   H     0.36441   0.58274   0.80031   0.00000  Uiso   1.00
H783   H     0.66196   0.59036   0.75081   0.00000  Uiso   1.00
H784   H     0.62526   0.56035   0.80164   0.00000  Uiso   1.00
O785   O     0.79642   0.57952   0.75299   0.00000  Uiso   1.00
O786   O     0.87025   0.42048   0.74702   0.00000  Uiso   1.00
O787   O     0.89280   0.57054   0.74519   0.00000  Uiso   1.00
O788   O     0.77387   0.42946   0.75482   0.00000  Uiso   1.00
C789   C     0.84848   0.59810   0.74878   0.00000  Uiso   1.00
C790   C     0.81819   0.40190   0.75122   0.00000  Uiso   1.00
O791   O     0.78514   0.50450   0.81998   0.00000  Uiso   1.00
O792   O     0.88153   0.49550   0.68003   0.00000  Uiso   1.00
O793   O     0.88152   0.49552   0.81218   0.00000  Uiso   1.00
O794   O     0.78515   0.50448   0.68783   0.00000  Uiso   1.00
C795   C     0.83348   0.50065   0.83624   0.00000  Uiso   1.00
C796   C     0.83319   0.49935   0.66376   0.00000  Uiso   1.00
Zn797  Zn    0.76898   0.50600   0.75521   0.00000  Uiso   1.00
Zn798  Zn    0.89769   0.49400   0.74479   0.00000  Uiso   1.00
C799   C     0.81819   0.45144   0.59265   0.00000  Uiso   1.00
C800   C     0.84848   0.54857   0.90735   0.00000  Uiso   1.00
C801   C     0.83305   0.49821   0.61609   0.00000  Uiso   1.00
C802   C     0.83362   0.50179   0.88391   0.00000  Uiso   1.00
C803   C     0.84705   0.54492   0.59454   0.00000  Uiso   1.00
C804   C     0.81961   0.45508   0.90546   0.00000  Uiso   1.00
C805   C     0.84683   0.54605   0.54822   0.00000  Uiso   1.00
C806   C     0.81983   0.45395   0.95178   0.00000  Uiso   1.00
C807   C     0.83295   0.49945   0.52347   0.00000  Uiso   1.00
C808   C     0.83372   0.50056   0.97653   0.00000  Uiso   1.00
C809   C     0.81851   0.45177   0.54561   0.00000  Uiso   1.00
C810   C     0.84816   0.54823   0.95439   0.00000  Uiso   1.00
C811   C     0.86028   0.59311   0.52645   0.00000  Uiso   1.00
C812   C     0.80638   0.40690   0.97356   0.00000  Uiso   1.00
C813   C     0.86067   0.59432   0.97987   0.00000  Uiso   1.00
C814   C     0.80599   0.40568   0.52013   0.00000  Uiso   1.00
H815   H     0.85780   0.58040   0.61410   0.00000  Uiso   1.00
H816   H     0.80887   0.41961   0.88590   0.00000  Uiso   1.00
H817   H     0.87042   0.62902   0.54548   0.00000  Uiso   1.00
H818   H     0.79624   0.37098   0.95452   0.00000  Uiso   1.00
H819   H     0.87052   0.63156   0.96419   0.00000  Uiso   1.00
H820   H     0.79614   0.36845   0.53581   0.00000  Uiso   1.00
C821   C     0.85639   0.65270   0.74816   0.00000  Uiso   1.00
C822   C     0.81028   0.34730   0.75184   0.00000  Uiso   1.00
H823   H     0.89996   0.33637   0.74475   0.00000  Uiso   1.00
H824   H     0.76671   0.66363   0.75525   0.00000  Uiso   1.00
N825   N     0.98344   0.48598   0.73783   0.00000  Uiso   1.00
N826   N     0.68322   0.51402   0.76217   0.00000  Uiso   1.00
N827   N     0.80317   0.40428   0.61668   0.00000  Uiso   1.00
O828   O     0.83947   0.38532   0.64090   0.00000  Uiso   1.00
O829   O     0.75213   0.38189   0.61635   0.00000  Uiso   1.00
N830   N     0.86350   0.59572   0.88332   0.00000  Uiso   1.00
O831   O     0.82722   0.61467   0.85908   0.00000  Uiso   1.00
O832   O     0.91453   0.61813   0.88368   0.00000  Uiso   1.00
C833   C     0.66821   0.43569   0.72079   0.00000  Uiso   1.00
H834   H     0.96892   0.41726   0.69969   0.00000  Uiso   1.00
H835   H     0.70808   0.43965   0.69836   0.00000  Uiso   1.00
H836   H     0.67138   0.40964   0.74919   0.00000  Uiso   1.00
C837   C     0.99845   0.56431   0.77921   0.00000  Uiso   1.00
H838   H     0.69774   0.58274   0.80031   0.00000  Uiso   1.00
H839   H     0.99529   0.59036   0.75081   0.00000  Uiso   1.00
H840   H     0.95859   0.56035   0.80164   0.00000  Uiso   1.00
O841   O     0.12975   0.91286   0.75299   0.00000  Uiso   1.00
O842   O     0.20358   0.75381   0.74702   0.00000  Uiso   1.00
O843   O     0.22613   0.90387   0.74519   0.00000  Uiso   1.00
O844   O     0.10720   0.76279   0.75482   0.00000  Uiso   1.00
C845   C     0.18181   0.93143   0.74878   0.00000  Uiso   1.00
C846   C     0.15152   0.73524   0.75122   0.00000  Uiso   1.00
O847   O     0.11847   0.83784   0.81998   0.00000  Uiso   1.00
O848   O     0.21486   0.82883   0.68003   0.00000  Uiso   1.00
O849   O     0.21485   0.82885   0.81218   0.00000  Uiso   1.00
O850   O     0.11848   0.83781   0.68783   0.00000  Uiso   1.00
C851   C     0.16681   0.83398   0.83624   0.00000  Uiso   1.00
C852   C     0.16652   0.83269   0.66376   0.00000  Uiso   1.00
Zn853  Zn    0.10231   0.83933   0.75521   0.00000  Uiso   1.00
Zn854  Zn    0.23102   0.82734   0.74479   0.00000  Uiso   1.00
C855   C     0.15152   0.78477   0.59265   0.00000  Uiso   1.00
C856   C     0.18181   0.88190   0.90735   0.00000  Uiso   1.00
C857   C     0.16638   0.83154   0.61609   0.00000  Uiso   1.00
C858   C     0.16695   0.83513   0.88391   0.00000  Uiso   1.00
C859   C     0.18039   0.87826   0.59454   0.00000  Uiso   1.00
C860   C     0.15294   0.78841   0.90546   0.00000  Uiso   1.00
C861   C     0.18017   0.87939   0.54822   0.00000  Uiso   1.00
C862   C     0.15316   0.78728   0.95178   0.00000  Uiso   1.00
C863   C     0.16628   0.83278   0.52347   0.00000  Uiso   1.00
C864   C     0.16705   0.83389   0.97653   0.00000  Uiso   1.00
C865   C     0.15184   0.78511   0.54561   0.00000  Uiso   1.00
C866   C     0.18149   0.88156   0.95439   0.00000  Uiso   1.00
C867   C     0.19361   0.92644   0.52645   0.00000  Uiso   1.00
C868   C     0.13971   0.74023   0.97356   0.00000  Uiso   1.00
C869   C     0.19400   0.92765   0.97987   0.00000  Uiso   1.00
C870   C     0.13933   0.73902   0.52013   0.00000  Uiso   1.00
H871   H     0.19113   0.91373   0.61410   0.00000  Uiso   1.00
H872   H     0.14220   0.75294   0.88590   0.00000  Uiso   1.00
H873   H     0.20375   0.96236   0.54548   0.00000  Uiso   1.00
H874   H     0.12957   0.70432   0.95452   0.00000  Uiso   1.00
H875   H     0.20385   0.96489   0.96419   0.00000  Uiso   1.00
H876   H     0.12947   0.70178   0.53581   0.00000  Uiso   1.00
C877   C     0.18972   0.98603   0.74816   0.00000  Uiso   1.00
C878   C     0.14361   0.68063   0.75184   0.00000  Uiso   1.00
H879   H     0.23329   0.66970   0.74475   0.00000  Uiso   1.00
H880   H     0.10004   0.99697   0.75525   0.00000  Uiso   1.00
N881   N     0.31678   0.81932   0.73783   0.00000  Uiso   1.00
N882   N     0.01656   0.84735   0.76217   0.00000  Uiso   1.00
N883   N     0.13651   0.73762   0.61668   0.00000  Uiso   1.00
O884   O     0.17280   0.71865   0.64090   0.00000  Uiso   1.00
O885   O     0.08547   0.71522   0.61635   0.00000  Uiso   1.00
N886   N     0.19683   0.92905   0.88332   0.00000  Uiso   1.00
O887   O     0.16055   0.94800   0.85908   0.00000  Uiso   1.00
O888   O     0.24786   0.95147   0.88368   0.00000  Uiso   1.00
C889   C     0.00155   0.76903   0.72079   0.00000  Uiso   1.00
H890   H     0.30226   0.75059   0.69969   0.00000  Uiso   1.00
H891   H     0.04141   0.77298   0.69836   0.00000  Uiso   1.00
H892   H     0.00471   0.74297   0.74919   0.00000  Uiso   1.00
C893   C     0.33179   0.89764   0.77921   0.00000  Uiso   1.00
H894   H     0.03108   0.91608   0.80031   0.00000  Uiso   1.00
H895   H     0.32862   0.92369   0.75081   0.00000  Uiso   1.00
H896   H     0.29192   0.89369   0.80164   0.00000  Uiso   1.00
O897   O     0.46308   0.91286   0.75299   0.00000  Uiso   1.00
O898   O     0.53692   0.75381   0.74702   0.00000  Uiso   1.00
O899   O     0.55946   0.90387   0.74519   0.00000  Uiso   1.00
O900   O     0.44054   0.76279   0.75482   0.00000  Uiso   1.00
C901   C     0.51514   0.93143   0.74878   0.00000  Uiso   1.00
C902   C     0.48485   0.73524   0.75122   0.00000  Uiso   1.00
O903   O     0.45181   0.83784   0.81998   0.00000  Uiso   1.00
O904   O     0.54819   0.82883   0.68003   0.00000  Uiso   1.00
O905   O     0.54819   0.82885   0.81218   0.00000  Uiso   1.00
O906   O     0.45181   0.83781   0.68783   0.00000  Uiso   1.00
C907   C     0.50015   0.83398   0.83624   0.00000  Uiso   1.00
C908   C     0.49985   0.83269   0.66376   0.00000  Uiso   1.00
Zn909  Zn    0.43565   0.83933   0.75521   0.00000  Uiso   1.00
Zn910  Zn    0.56435   0.82734   0.74479   0.00000  Uiso   1.00
C911   C     0.48486   0.78477   0.59265   0.00000  Uiso   1.00
C912   C     0.51514   0.88190   0.90735   0.00000  Uiso   1.00
C913   C     0.49971   0.83154   0.61609   0.00000  Uiso   1.00
C914   C     0.50029   0.83513   0.88391   0.00000  Uiso   1.00
C915   C     0.51372   0.87826   0.59454   0.00000  Uiso   1.00
C916   C     0.48628   0.78841   0.90546   0.00000  Uiso   1.00
C917   C     0.51350   0.87939   0.54822   0.00000  Uiso   1.00
C918   C     0.48650   0.78728   0.95178   0.00000  Uiso   1.00
C919   C     0.49961   0.83278   0.52347   0.00000  Uiso   1.00
C920   C     0.50038   0.83389   0.97653   0.00000  Uiso   1.00
C921   C     0.48517   0.78511   0.54561   0.00000  Uiso   1.00
C922   C     0.51482   0.88156   0.95439   0.00000  Uiso   1.00
C923   C     0.52695   0.92644   0.52645   0.00000  Uiso   1.00
C924   C     0.47304   0.74023   0.97356   0.00000  Uiso   1.00
C925   C     0.52733   0.92765   0.97987   0.00000  Uiso   1.00
C926   C     0.47266   0.73902   0.52013   0.00000  Uiso   1.00
H927   H     0.52446   0.91373   0.61410   0.00000  Uiso   1.00
H928   H     0.47553   0.75294   0.88590   0.00000  Uiso   1.00
H929   H     0.53708   0.96236   0.54548   0.00000  Uiso   1.00
H930   H     0.46291   0.70432   0.95452   0.00000  Uiso   1.00
H931   H     0.53718   0.96489   0.96419   0.00000  Uiso   1.00
H932   H     0.46281   0.70178   0.53581   0.00000  Uiso   1.00
C933   C     0.52306   0.98603   0.74816   0.00000  Uiso   1.00
C934   C     0.47694   0.68063   0.75184   0.00000  Uiso   1.00
H935   H     0.56662   0.66970   0.74475   0.00000  Uiso   1.00
H936   H     0.43338   0.99697   0.75525   0.00000  Uiso   1.00
N937   N     0.65011   0.81932   0.73783   0.00000  Uiso   1.00
N938   N     0.34989   0.84735   0.76217   0.00000  Uiso   1.00
N939   N     0.46984   0.73762   0.61668   0.00000  Uiso   1.00
O940   O     0.50613   0.71865   0.64090   0.00000  Uiso   1.00
O941   O     0.41880   0.71522   0.61635   0.00000  Uiso   1.00
N942   N     0.53016   0.92905   0.88332   0.00000  Uiso   1.00
O943   O     0.49389   0.94800   0.85908   0.00000  Uiso   1.00
O944   O     0.58120   0.95147   0.88368   0.00000  Uiso   1.00
C945   C     0.33488   0.76903   0.72079   0.00000  Uiso   1.00
H946   H     0.63559   0.75059   0.69969   0.00000  Uiso   1.00
H947   H     0.37474   0.77298   0.69836   0.00000  Uiso   1.00
H948   H     0.33804   0.74297   0.74919   0.00000  Uiso   1.00
C949   C     0.66512   0.89764   0.77921   0.00000  Uiso   1.00
H950   H     0.36441   0.91608   0.80031   0.00000  Uiso   1.00
H951   H     0.66196   0.92369   0.75081   0.00000  Uiso   1.00
H952   H     0.62526   0.89369   0.80164   0.00000  Uiso   1.00
O953   O     0.79642   0.91286   0.75299   0.00000  Uiso   1.00
O954   O     0.87025   0.75381   0.74702   0.00000  Uiso   1.00
O955   O     0.89280   0.90387   0.74519   0.00000  Uiso   1.00
O956   O     0.77387   0.76279   0.75482   0.00000  Uiso   1.00
C957   C     0.84848   0.93143   0.74878   0.00000  Uiso   1.00
C958   C     0.81819   0.73524   0.75122   0.00000  Uiso   1.00
O959   O     0.78514   0.83784   0.81998   0.00000  Uiso   1.00
O960   O     0.88153   0.82883   0.68003   0.00000  Uiso   1.00
O961   O     0.88152   0.82885   0.81218   0.00000  Uiso   1.00
O962   O     0.78515   0.83781   0.68783   0.00000  Uiso   1.00
C963   C     0.83348   0.83398   0.83624   0.00000  Uiso   1.00
C964   C     0.83319   0.83269   0.66376   0.00000  Uiso   1.00
Zn965  Zn    0.76898   0.83933   0.75521   0.00000  Uiso   1.00
Zn966  Zn    0.89769   0.82734   0.74479   0.00000  Uiso   1.00
C967   C     0.81819   0.78477   0.59265   0.00000  Uiso   1.00
C968   C     0.84848   0.88190   0.90735   0.00000  Uiso   1.00
C969   C     0.83305   0.83154   0.61609   0.00000  Uiso   1.00
C970   C     0.83362   0.83513   0.88391   0.00000  Uiso   1.00
C971   C     0.84705   0.87826   0.59454   0.00000  Uiso   1.00
C972   C     0.81961   0.78841   0.90546   0.00000  Uiso   1.00
C973   C     0.84683   0.87939   0.54822   0.00000  Uiso   1.00
C974   C     0.81983   0.78728   0.95178   0.00000  Uiso   1.00
C975   C     0.83295   0.83278   0.52347   0.00000  Uiso   1.00
C976   C     0.83372   0.83389   0.97653   0.00000  Uiso   1.00
C977   C     0.81851   0.78511   0.54561   0.00000  Uiso   1.00
C978   C     0.84816   0.88156   0.95439   0.00000  Uiso   1.00
C979   C     0.86028   0.92644   0.52645   0.00000  Uiso   1.00
C980   C     0.80638   0.74023   0.97356   0.00000  Uiso   1.00
C981   C     0.86067   0.92765   0.97987   0.00000  Uiso   1.00
C982   C     0.80599   0.73902   0.52013   0.00000  Uiso   1.00
H983   H     0.85780   0.91373   0.61410   0.00000  Uiso   1.00
H984   H     0.80887   0.75294   0.88590   0.00000  Uiso   1.00
H985   H     0.87042   0.96236   0.54548   0.00000  Uiso   1.00
H986   H     0.79624   0.70432   0.95452   0.00000  Uiso   1.00
H987   H     0.87052   0.96489   0.96419   0.00000  Uiso   1.00
H988   H     0.79614   0.70178   0.53581   0.00000  Uiso   1.00
C989   C     0.85639   0.98603   0.74816   0.00000  Uiso   1.00
C990   C     0.81028   0.68063   0.75184   0.00000  Uiso   1.00
H991   H     0.89996   0.66970   0.74475   0.00000  Uiso   1.00
H992   H     0.76671   0.99697   0.75525   0.00000  Uiso   1.00
N993   N     0.98344   0.81932   0.73783   0.00000  Uiso   1.00
N994   N     0.68322   0.84735   0.76217   0.00000  Uiso   1.00
N995   N     0.80317   0.73762   0.61668   0.00000  Uiso   1.00
O996   O     0.83947   0.71865   0.64090   0.00000  Uiso   1.00
O997   O     0.75213   0.71522   0.61635   0.00000  Uiso   1.00
N998   N     0.86350   0.92905   0.88332   0.00000  Uiso   1.00
O999   O     0.82722   0.94800   0.85908   0.00000  Uiso   1.00
O1000  O     0.91453   0.95147   0.88368   0.00000  Uiso   1.00
C1001  C     0.66821   0.76903   0.72079   0.00000  Uiso   1.00
H1002  H     0.96892   0.75059   0.69969   0.00000  Uiso   1.00
H1003  H     0.70808   0.77298   0.69836   0.00000  Uiso   1.00
H1004  H     0.67138   0.74297   0.74919   0.00000  Uiso   1.00
C1005  C     0.99845   0.89764   0.77921   0.00000  Uiso   1.00
H1006  H     0.69774   0.91608   0.80031   0.00000  Uiso   1.00
H1007  H     0.99529   0.92369   0.75081   0.00000  Uiso   1.00
H1008  H     0.95859   0.89369   0.80164   0.00000  Uiso   1.00
loop_
_geom_bond_atom_site_label_1
_geom_bond_atom_site_label_2
_geom_bond_distance
_geom_bond_site_symmetry_2
_ccdc_geom_bond_type
O1     C5      1.286   .     A
O1     Zn13    1.952   .     S
O2     C6      1.286   .     A
O2     Zn14    1.952   .     S
O3     Zn14    1.970   .     S
O3     C5      1.294   .     A
O4     C6      1.294   .     A
O4     Zn13    1.970   .     S
C5     C37     1.399   .     S
C6     C38     1.399   .     S
O7     C11     1.293   .     A
O7     Zn13    2.002   .     S
O8     C12     1.293   .     A
O8     Zn14    2.002   .     S
O9     Zn14    2.004   .     S
O9     C11     1.294   .     A
O10    C12     1.294   .     A
O10    Zn13    2.004   .     S
C11    C18     1.417   .     S
C12    C17     1.417   .     S
Zn13   N42     2.039   .     S
Zn14   N41     2.039   .     S
C15    C25     1.399   .     A
C15    N43     1.437   .     S
C15    C17     1.401   .     A
C16    C18     1.401   .     A
C16    C26     1.399   .     A
C16    N46     1.437   .     S
C17    C19     1.388   .     A
C18    C20     1.388   .     A
C19    H31     1.086   .     S
C19    C21     1.380   .     A
C20    C22     1.380   .     A
C20    H32     1.086   .     S
C21    C27     1.397   .     A
C21    C23     1.411   .     A
C22    C28     1.397   .     A
C22    C24     1.411   .     A
C23    C25     1.419   .     A
C23    C528    1.396   1_554 S
C24    C26     1.419   .     A
C24    C527    1.396   .     S
C25    C30     1.405   .     A
C26    C29     1.405   .     A
C27    H33     1.084   .     S
C27    C533    1.387   1_554 S
C28    H34     1.084   .     S
C28    C534    1.387   .     S
C29    H35     1.082   .     S
C29    C531    1.387   .     S
C30    H36     1.082   .     S
C30    C532    1.387   1_554 S
C37    C206    1.335   .     S
C37    H207    1.088   .     S
C38    C373    1.335   1_545 S
C38    H376    1.088   1_545 S
H39    C373    1.088   1_545 S
H40    C206    1.088   .     S
N41    N98     1.281   .     S
N41    C105    1.440   .     S
N42    N153    1.281   1_455 S
N42    C165    1.440   1_455 S
N43    O45     1.301   .     A
N43    O44     1.301   .     A
N46    O48     1.301   .     A
N46    O47     1.301   .     A
C49    H52     1.110   .     S
C49    H51     1.103   .     S
C49    N153    1.440   1_455 S
C49    H162    1.109   1_455 S
H50    C105    1.109   .     S
C53    H55     1.110   .     S
C53    H56     1.103   .     S
C53    N98     1.440   .     S
C53    H110    1.109   .     S
H54    C165    1.109   1_455 S
O57    C61     1.286   .     A
O57    Zn69    1.952   .     S
O58    C62     1.286   .     A
O58    Zn70    1.952   .     S
O59    Zn70    1.970   .     S
O59    C61     1.294   .     A
O60    C62     1.294   .     A
O60    Zn69    1.970   .     S
C61    C93     1.399   .     S
C62    C94     1.399   .     S
O63    C67     1.293   .     A
O63    Zn69    2.002   .     S
O64    C68     1.293   .     A
O64    Zn70    2.002   .     S
O65    Zn70    2.004   .     S
O65    C67     1.294   .     A
O66    C68     1.294   .     A
O66    Zn69    2.004   .     S
C67    C74     1.417   .     S
C68    C73     1.417   .     S
Zn69   N98     2.039   .     S
Zn70   N97     2.039   .     S
C71    C81     1.399   .     A
C71    N99     1.437   .     S
C71    C73     1.401   .     A
C72    C74     1.401   .     A
C72    C82     1.399   .     A
C72    N102    1.437   .     S
C73    C75     1.388   .     A
C74    C76     1.388   .     A
C75    H87     1.086   .     S
C75    C77     1.380   .     A
C76    C78     1.380   .     A
C76    H88     1.086   .     S
C77    C83     1.397   .     A
C77    C79     1.411   .     A
C78    C84     1.397   .     A
C78    C80     1.411   .     A
C79    C81     1.419   .     A
C79    C584    1.396   1_554 S
C80    C82     1.419   .     A
C80    C583    1.396   .     S
C81    C86     1.405   .     A
C82    C85     1.405   .     A
C83    H89     1.084   .     S
C83    C589    1.387   1_554 S
C84    H90     1.084   .     S
C84    C590    1.387   .     S
C85    H91     1.082   .     S
C85    C587    1.387   .     S
C86    H92     1.082   .     S
C86    C588    1.387   1_554 S
C93    C262    1.335   .     S
C93    H263    1.088   .     S
C94    C429    1.335   1_545 S
C94    H432    1.088   1_545 S
H95    C429    1.088   1_545 S
H96    C262    1.088   .     S
N97    N154    1.281   .     S
N97    C161    1.440   .     S
N99    O101    1.301   .     A
N99    O100    1.301   .     A
N102   O104    1.301   .     A
N102   O103    1.301   .     A
C105   H108    1.110   .     S
C105   H107    1.103   .     S
H106   C161    1.109   .     S
C109   H111    1.110   .     S
C109   H112    1.103   .     S
C109   N154    1.440   .     S
C109   H166    1.109   .     S
O113   C117    1.286   .     A
O113   Zn125   1.952   .     S
O114   C118    1.286   .     A
O114   Zn126   1.952   .     S
O115   Zn126   1.970   .     S
O115   C117    1.294   .     A
O116   C118    1.294   .     A
O116   Zn125   1.970   .     S
C117   C149    1.399   .     S
C118   C150    1.399   .     S
O119   C123    1.293   .     A
O119   Zn125   2.002   .     S
O120   C124    1.293   .     A
O120   Zn126   2.002   .     S
O121   Zn126   2.004   .     S
O121   C123    1.294   .     A
O122   C124    1.294   .     A
O122   Zn125   2.004   .     S
C123   C130    1.417   .     S
C124   C129    1.417   .     S
Zn125  N154    2.039   .     S
Zn126  N153    2.039   .     S
C127   C137    1.399   .     A
C127   N155    1.437   .     S
C127   C129    1.401   .     A
C128   C130    1.401   .     A
C128   C138    1.399   .     A
C128   N158    1.437   .     S
C129   C131    1.388   .     A
C130   C132    1.388   .     A
C131   H143    1.086   .     S
C131   C133    1.380   .     A
C132   C134    1.380   .     A
C132   H144    1.086   .     S
C133   C139    1.397   .     A
C133   C135    1.411   .     A
C134   C140    1.397   .     A
C134   C136    1.411   .     A
C135   C137    1.419   .     A
C135   C640    1.396   1_554 S
C136   C138    1.419   .     A
C136   C639    1.396   .     S
C137   C142    1.405   .     A
C138   C141    1.405   .     A
C139   H145    1.084   .     S
C139   C645    1.387   1_554 S
C140   H146    1.084   .     S
C140   C646    1.387   .     S
C141   H147    1.082   .     S
C141   C643    1.387   .     S
C142   H148    1.082   .     S
C142   C644    1.387   1_554 S
C149   C318    1.335   .     S
C149   H319    1.088   .     S
C150   C485    1.335   1_545 S
C150   H488    1.088   1_545 S
H151   C485    1.088   1_545 S
H152   C318    1.088   .     S
N153   N42     1.281   1_655 S
N153   C49     1.440   1_655 S
N155   O157    1.301   .     A
N155   O156    1.301   .     A
N158   O160    1.301   .     A
N158   O159    1.301   .     A
C161   H164    1.110   .     S
C161   H163    1.103   .     S
H162   C49     1.109   1_655 S
C165   H167    1.110   .     S
C165   H168    1.103   .     S
C165   N42     1.440   1_655 S
C165   H54     1.109   1_655 S
O169   C173    1.286   .     A
O169   Zn181   1.952   .     S
O170   C174    1.286   .     A
O170   Zn182   1.952   .     S
O171   Zn182   1.970   .     S
O171   C173    1.294   .     A
O172   C174    1.294   .     A
O172   Zn181   1.970   .     S
C173   C205    1.399   .     S
C174   C206    1.399   .     S
O175   C179    1.293   .     A
O175   Zn181   2.002   .     S
O176   C180    1.293   .     A
O176   Zn182   2.002   .     S
O177   Zn182   2.004   .     S
O177   C179    1.294   .     A
O178   C180    1.294   .     A
O178   Zn181   2.004   .     S
C179   C186    1.417   .     S
C180   C185    1.417   .     S
Zn181  N210    2.039   .     S
Zn182  N209    2.039   .     S
C183   C193    1.399   .     A
C183   N211    1.437   .     S
C183   C185    1.401   .     A
C184   C186    1.401   .     A
C184   C194    1.399   .     A
C184   N214    1.437   .     S
C185   C187    1.388   .     A
C186   C188    1.388   .     A
C187   H199    1.086   .     S
C187   C189    1.380   .     A
C188   C190    1.380   .     A
C188   H200    1.086   .     S
C189   C195    1.397   .     A
C189   C191    1.411   .     A
C190   C196    1.397   .     A
C190   C192    1.411   .     A
C191   C193    1.419   .     A
C191   C696    1.396   1_554 S
C192   C194    1.419   .     A
C192   C695    1.396   .     S
C193   C198    1.405   .     A
C194   C197    1.405   .     A
C195   H201    1.084   .     S
C195   C701    1.387   1_554 S
C196   H202    1.084   .     S
C196   C702    1.387   .     S
C197   H203    1.082   .     S
C197   C699    1.387   .     S
C198   H204    1.082   .     S
C198   C700    1.387   1_554 S
C205   C374    1.335   .     S
C205   H375    1.088   .     S
H208   C374    1.088   .     S
N209   N266    1.281   .     S
N209   C273    1.440   .     S
N210   N321    1.281   1_455 S
N210   C333    1.440   1_455 S
N211   O213    1.301   .     A
N211   O212    1.301   .     A
N214   O216    1.301   .     A
N214   O215    1.301   .     A
C217   H220    1.110   .     S
C217   H219    1.103   .     S
C217   N321    1.440   1_455 S
C217   H330    1.109   1_455 S
H218   C273    1.109   .     S
C221   H223    1.110   .     S
C221   H224    1.103   .     S
C221   N266    1.440   .     S
C221   H278    1.109   .     S
H222   C333    1.109   1_455 S
O225   C229    1.286   .     A
O225   Zn237   1.952   .     S
O226   C230    1.286   .     A
O226   Zn238   1.952   .     S
O227   Zn238   1.970   .     S
O227   C229    1.294   .     A
O228   C230    1.294   .     A
O228   Zn237   1.970   .     S
C229   C261    1.399   .     S
C230   C262    1.399   .     S
O231   C235    1.293   .     A
O231   Zn237   2.002   .     S
O232   C236    1.293   .     A
O232   Zn238   2.002   .     S
O233   Zn238   2.004   .     S
O233   C235    1.294   .     A
O234   C236    1.294   .     A
O234   Zn237   2.004   .     S
C235   C242    1.417   .     S
C236   C241    1.417   .     S
Zn237  N266    2.039   .     S
Zn238  N265    2.039   .     S
C239   C249    1.399   .     A
C239   N267    1.437   .     S
C239   C241    1.401   .     A
C240   C242    1.401   .     A
C240   C250    1.399   .     A
C240   N270    1.437   .     S
C241   C243    1.388   .     A
C242   C244    1.388   .     A
C243   H255    1.086   .     S
C243   C245    1.380   .     A
C244   C246    1.380   .     A
C244   H256    1.086   .     S
C245   C251    1.397   .     A
C245   C247    1.411   .     A
C246   C252    1.397   .     A
C246   C248    1.411   .     A
C247   C249    1.419   .     A
C247   C752    1.396   1_554 S
C248   C250    1.419   .     A
C248   C751    1.396   .     S
C249   C254    1.405   .     A
C250   C253    1.405   .     A
C251   H257    1.084   .     S
C251   C757    1.387   1_554 S
C252   H258    1.084   .     S
C252   C758    1.387   .     S
C253   H259    1.082   .     S
C253   C755    1.387   .     S
C254   H260    1.082   .     S
C254   C756    1.387   1_554 S
C261   C430    1.335   .     S
C261   H431    1.088   .     S
H264   C430    1.088   .     S
N265   N322    1.281   .     S
N265   C329    1.440   .     S
N267   O269    1.301   .     A
N267   O268    1.301   .     A
N270   O272    1.301   .     A
N270   O271    1.301   .     A
C273   H276    1.110   .     S
C273   H275    1.103   .     S
H274   C329    1.109   .     S
C277   H279    1.110   .     S
C277   H280    1.103   .     S
C277   N322    1.440   .     S
C277   H334    1.109   .     S
O281   C285    1.286   .     A
O281   Zn293   1.952   .     S
O282   C286    1.286   .     A
O282   Zn294   1.952   .     S
O283   Zn294   1.970   .     S
O283   C285    1.294   .     A
O284   C286    1.294   .     A
O284   Zn293   1.970   .     S
C285   C317    1.399   .     S
C286   C318    1.399   .     S
O287   C291    1.293   .     A
O287   Zn293   2.002   .     S
O288   C292    1.293   .     A
O288   Zn294   2.002   .     S
O289   Zn294   2.004   .     S
O289   C291    1.294   .     A
O290   C292    1.294   .     A
O290   Zn293   2.004   .     S
C291   C298    1.417   .     S
C292   C297    1.417   .     S
Zn293  N322    2.039   .     S
Zn294  N321    2.039   .     S
C295   C305    1.399   .     A
C295   N323    1.437   .     S
C295   C297    1.401   .     A
C296   C298    1.401   .     A
C296   C306    1.399   .     A
C296   N326    1.437   .     S
C297   C299    1.388   .     A
C298   C300    1.388   .     A
C299   H311    1.086   .     S
C299   C301    1.380   .     A
C300   C302    1.380   .     A
C300   H312    1.086   .     S
C301   C307    1.397   .     A
C301   C303    1.411   .     A
C302   C308    1.397   .     A
C302   C304    1.411   .     A
C303   C305    1.419   .     A
C303   C808    1.396   1_554 S
C304   C306    1.419   .     A
C304   C807    1.396   .     S
C305   C310    1.405   .     A
C306   C309    1.405   .     A
C307   H313    1.084   .     S
C307   C813    1.387   1_554 S
C308   H314    1.084   .     S
C308   C814    1.387   .     S
C309   H315    1.082   .     S
C309   C811    1.387   .     S
C310   H316    1.082   .     S
C310   C812    1.387   1_554 S
C317   C486    1.335   .     S
C317   H487    1.088   .     S
H320   C486    1.088   .     S
N321   N210    1.281   1_655 S
N321   C217    1.440   1_655 S
N323   O325    1.301   .     A
N323   O324    1.301   .     A
N326   O328    1.301   .     A
N326   O327    1.301   .     A
C329   H332    1.110   .     S
C329   H331    1.103   .     S
H330   C217    1.109   1_655 S
C333   H335    1.110   .     S
C333   H336    1.103   .     S
C333   N210    1.440   1_655 S
C333   H222    1.109   1_655 S
O337   C341    1.286   .     A
O337   Zn349   1.952   .     S
O338   C342    1.286   .     A
O338   Zn350   1.952   .     S
O339   Zn350   1.970   .     S
O339   C341    1.294   .     A
O340   C342    1.294   .     A
O340   Zn349   1.970   .     S
C341   C373    1.399   .     S
C342   C374    1.399   .     S
O343   C347    1.293   .     A
O343   Zn349   2.002   .     S
O344   C348    1.293   .     A
O344   Zn350   2.002   .     S
O345   Zn350   2.004   .     S
O345   C347    1.294   .     A
O346   C348    1.294   .     A
O346   Zn349   2.004   .     S
C347   C354    1.417   .     S
C348   C353    1.417   .     S
Zn349  N378    2.039   .     S
Zn350  N377    2.039   .     S
C351   C361    1.399   .     A
C351   N379    1.437   .     S
C351   C353    1.401   .     A
C352   C354    1.401   .     A
C352   C362    1.399   .     A
C352   N382    1.437   .     S
C353   C355    1.388   .     A
C354   C356    1.388   .     A
C355   H367    1.086   .     S
C355   C357    1.380   .     A
C356   C358    1.380   .     A
C356   H368    1.086   .     S
C357   C363    1.397   .     A
C357   C359    1.411   .     A
C358   C364    1.397   .     A
C358   C360    1.411   .     A
C359   C361    1.419   .     A
C359   C864    1.396   1_554 S
C360   C362    1.419   .     A
C360   C863    1.396   .     S
C361   C366    1.405   .     A
C362   C365    1.405   .     A
C363   H369    1.084   .     S
C363   C869    1.387   1_554 S
C364   H370    1.084   .     S
C364   C870    1.387   .     S
C365   H371    1.082   .     S
C365   C867    1.387   .     S
C366   H372    1.082   .     S
C366   C868    1.387   1_554 S
C373   C38     1.335   1_565 S
C373   H39     1.088   1_565 S
H376   C38     1.088   1_565 S
N377   N434    1.281   .     S
N377   C441    1.440   .     S
N378   N489    1.281   1_455 S
N378   C501    1.440   1_455 S
N379   O381    1.301   .     A
N379   O380    1.301   .     A
N382   O384    1.301   .     A
N382   O383    1.301   .     A
C385   H388    1.110   .     S
C385   H387    1.103   .     S
C385   N489    1.440   1_455 S
C385   H498    1.109   1_455 S
H386   C441    1.109   .     S
C389   H391    1.110   .     S
C389   H392    1.103   .     S
C389   N434    1.440   .     S
C389   H446    1.109   .     S
H390   C501    1.109   1_455 S
O393   C397    1.286   .     A
O393   Zn405   1.952   .     S
O394   C398    1.286   .     A
O394   Zn406   1.952   .     S
O395   Zn406   1.970   .     S
O395   C397    1.294   .     A
O396   C398    1.294   .     A
O396   Zn405   1.970   .     S
C397   C429    1.399   .     S
C398   C430    1.399   .     S
O399   C403    1.293   .     A
O399   Zn405   2.002   .     S
O400   C404    1.293   .     A
O400   Zn406   2.002   .     S
O401   Zn406   2.004   .     S
O401   C403    1.294   .     A
O402   C404    1.294   .     A
O402   Zn405   2.004   .     S
C403   C410    1.417   .     S
C404   C409    1.417   .     S
Zn405  N434    2.039   .     S
Zn406  N433    2.039   .     S
C407   C417    1.399   .     A
C407   N435    1.437   .     S
C407   C409    1.401   .     A
C408   C410    1.401   .     A
C408   C418    1.399   .     A
C408   N438    1.437   .     S
C409   C411    1.388   .     A
C410   C412    1.388   .     A
C411   H423    1.086   .     S
C411   C413    1.380   .     A
C412   C414    1.380   .     A
C412   H424    1.086   .     S
C413   C419    1.397   .     A
C413   C415    1.411   .     A
C414   C420    1.397   .     A
C414   C416    1.411   .     A
C415   C417    1.419   .     A
C415   C920    1.396   1_554 S
C416   C418    1.419   .     A
C416   C919    1.396   .     S
C417   C422    1.405   .     A
C418   C421    1.405   .     A
C419   H425    1.084   .     S
C419   C925    1.387   1_554 S
C420   H426    1.084   .     S
C420   C926    1.387   .     S
C421   H427    1.082   .     S
C421   C923    1.387   .     S
C422   H428    1.082   .     S
C422   C924    1.387   1_554 S
C429   C94     1.335   1_565 S
C429   H95     1.088   1_565 S
H432   C94     1.088   1_565 S
N433   N490    1.281   .     S
N433   C497    1.440   .     S
N435   O437    1.301   .     A
N435   O436    1.301   .     A
N438   O440    1.301   .     A
N438   O439    1.301   .     A
C441   H444    1.110   .     S
C441   H443    1.103   .     S
H442   C497    1.109   .     S
C445   H447    1.110   .     S
C445   H448    1.103   .     S
C445   N490    1.440   .     S
C445   H502    1.109   .     S
O449   C453    1.286   .     A
O449   Zn461   1.952   .     S
O450   C454    1.286   .     A
O450   Zn462   1.952   .     S
O451   Zn462   1.970   .     S
O451   C453    1.294   .     A
O452   C454    1.294   .     A
O452   Zn461   1.970   .     S
C453   C485    1.399   .     S
C454   C486    1.399   .     S
O455   C459    1.293   .     A
O455   Zn461   2.002   .     S
O456   C460    1.293   .     A
O456   Zn462   2.002   .     S
O457   Zn462   2.004   .     S
O457   C459    1.294   .     A
O458   C460    1.294   .     A
O458   Zn461   2.004   .     S
C459   C466    1.417   .     S
C460   C465    1.417   .     S
Zn461  N490    2.039   .     S
Zn462  N489    2.039   .     S
C463   C473    1.399   .     A
C463   N491    1.437   .     S
C463   C465    1.401   .     A
C464   C466    1.401   .     A
C464   C474    1.399   .     A
C464   N494    1.437   .     S
C465   C467    1.388   .     A
C466   C468    1.388   .     A
C467   H479    1.086   .     S
C467   C469    1.380   .     A
C468   C470    1.380   .     A
C468   H480    1.086   .     S
C469   C475    1.397   .     A
C469   C471    1.411   .     A
C470   C476    1.397   .     A
C470   C472    1.411   .     A
C471   C473    1.419   .     A
C471   C976    1.396   1_554 S
C472   C474    1.419   .     A
C472   C975    1.396   .     S
C473   C478    1.405   .     A
C474   C477    1.405   .     A
C475   H481    1.084   .     S
C475   C981    1.387   1_554 S
C476   H482    1.084   .     S
C476   C982    1.387   .     S
C477   H483    1.082   .     S
C477   C979    1.387   .     S
C478   H484    1.082   .     S
C478   C980    1.387   1_554 S
C485   C150    1.335   1_565 S
C485   H151    1.088   1_565 S
H488   C150    1.088   1_565 S
N489   N378    1.281   1_655 S
N489   C385    1.440   1_655 S
N491   O493    1.301   .     A
N491   O492    1.301   .     A
N494   O496    1.301   .     A
N494   O495    1.301   .     A
C497   H500    1.110   .     S
C497   H499    1.103   .     S
H498   C385    1.109   1_655 S
C501   H503    1.110   .     S
C501   H504    1.103   .     S
C501   N378    1.440   1_655 S
C501   H390    1.109   1_655 S
O505   C509    1.286   .     A
O505   Zn517   1.952   .     S
O506   C510    1.286   .     A
O506   Zn518   1.952   .     S
O507   Zn518   1.970   .     S
O507   C509    1.294   .     A
O508   C510    1.294   .     A
O508   Zn517   1.970   .     S
C509   C541    1.399   .     S
C510   C542    1.399   .     S
O511   C515    1.293   .     A
O511   Zn517   2.002   .     S
O512   C516    1.293   .     A
O512   Zn518   2.002   .     S
O513   Zn518   2.004   .     S
O513   C515    1.294   .     A
O514   C516    1.294   .     A
O514   Zn517   2.004   .     S
C515   C522    1.417   .     S
C516   C521    1.417   .     S
Zn517  N546    2.039   .     S
Zn518  N545    2.039   .     S
C519   C529    1.399   .     A
C519   N547    1.437   .     S
C519   C521    1.401   .     A
C520   C522    1.401   .     A
C520   C530    1.399   .     A
C520   N550    1.437   .     S
C521   C523    1.388   .     A
C522   C524    1.388   .     A
C523   H535    1.086   .     S
C523   C525    1.380   .     A
C524   C526    1.380   .     A
C524   H536    1.086   .     S
C525   C531    1.397   .     A
C525   C527    1.411   .     A
C526   C532    1.397   .     A
C526   C528    1.411   .     A
C527   C529    1.419   .     A
C528   C530    1.419   .     A
C528   C23     1.396   1_556 S
C529   C534    1.405   .     A
C530   C533    1.405   .     A
C531   H537    1.084   .     S
C532   H538    1.084   .     S
C532   C30     1.387   1_556 S
C533   H539    1.082   .     S
C533   C27     1.387   1_556 S
C534   H540    1.082   .     S
C541   C710    1.335   .     S
C541   H711    1.088   .     S
C542   C877    1.335   1_545 S
C542   H880    1.088   1_545 S
H543   C877    1.088   1_545 S
H544   C710    1.088   .     S
N545   N602    1.281   .     S
N545   C609    1.440   .     S
N546   N657    1.281   1_455 S
N546   C669    1.440   1_455 S
N547   O549    1.301   .     A
N547   O548    1.301   .     A
N550   O552    1.301   .     A
N550   O551    1.301   .     A
C553   H556    1.110   .     S
C553   H555    1.103   .     S
C553   N657    1.440   1_455 S
C553   H666    1.109   1_455 S
H554   C609    1.109   .     S
C557   H559    1.110   .     S
C557   H560    1.103   .     S
C557   N602    1.440   .     S
C557   H614    1.109   .     S
H558   C669    1.109   1_455 S
O561   C565    1.286   .     A
O561   Zn573   1.952   .     S
O562   C566    1.286   .     A
O562   Zn574   1.952   .     S
O563   Zn574   1.970   .     S
O563   C565    1.294   .     A
O564   C566    1.294   .     A
O564   Zn573   1.970   .     S
C565   C597    1.399   .     S
C566   C598    1.399   .     S
O567   C571    1.293   .     A
O567   Zn573   2.002   .     S
O568   C572    1.293   .     A
O568   Zn574   2.002   .     S
O569   Zn574   2.004   .     S
O569   C571    1.294   .     A
O570   C572    1.294   .     A
O570   Zn573   2.004   .     S
C571   C578    1.417   .     S
C572   C577    1.417   .     S
Zn573  N602    2.039   .     S
Zn574  N601    2.039   .     S
C575   C585    1.399   .     A
C575   N603    1.437   .     S
C575   C577    1.401   .     A
C576   C578    1.401   .     A
C576   C586    1.399   .     A
C576   N606    1.437   .     S
C577   C579    1.388   .     A
C578   C580    1.388   .     A
C579   H591    1.086   .     S
C579   C581    1.380   .     A
C580   C582    1.380   .     A
C580   H592    1.086   .     S
C581   C587    1.397   .     A
C581   C583    1.411   .     A
C582   C588    1.397   .     A
C582   C584    1.411   .     A
C583   C585    1.419   .     A
C584   C586    1.419   .     A
C584   C79     1.396   1_556 S
C585   C590    1.405   .     A
C586   C589    1.405   .     A
C587   H593    1.084   .     S
C588   H594    1.084   .     S
C588   C86     1.387   1_556 S
C589   H595    1.082   .     S
C589   C83     1.387   1_556 S
C590   H596    1.082   .     S
C597   C766    1.335   .     S
C597   H767    1.088   .     S
C598   C933    1.335   1_545 S
C598   H936    1.088   1_545 S
H599   C933    1.088   1_545 S
H600   C766    1.088   .     S
N601   N658    1.281   .     S
N601   C665    1.440   .     S
N603   O605    1.301   .     A
N603   O604    1.301   .     A
N606   O608    1.301   .     A
N606   O607    1.301   .     A
C609   H612    1.110   .     S
C609   H611    1.103   .     S
H610   C665    1.109   .     S
C613   H615    1.110   .     S
C613   H616    1.103   .     S
C613   N658    1.440   .     S
C613   H670    1.109   .     S
O617   C621    1.286   .     A
O617   Zn629   1.952   .     S
O618   C622    1.286   .     A
O618   Zn630   1.952   .     S
O619   Zn630   1.970   .     S
O619   C621    1.294   .     A
O620   C622    1.294   .     A
O620   Zn629   1.970   .     S
C621   C653    1.399   .     S
C622   C654    1.399   .     S
O623   C627    1.293   .     A
O623   Zn629   2.002   .     S
O624   C628    1.293   .     A
O624   Zn630   2.002   .     S
O625   Zn630   2.004   .     S
O625   C627    1.294   .     A
O626   C628    1.294   .     A
O626   Zn629   2.004   .     S
C627   C634    1.417   .     S
C628   C633    1.417   .     S
Zn629  N658    2.039   .     S
Zn630  N657    2.039   .     S
C631   C641    1.399   .     A
C631   N659    1.437   .     S
C631   C633    1.401   .     A
C632   C634    1.401   .     A
C632   C642    1.399   .     A
C632   N662    1.437   .     S
C633   C635    1.388   .     A
C634   C636    1.388   .     A
C635   H647    1.086   .     S
C635   C637    1.380   .     A
C636   C638    1.380   .     A
C636   H648    1.086   .     S
C637   C643    1.397   .     A
C637   C639    1.411   .     A
C638   C644    1.397   .     A
C638   C640    1.411   .     A
C639   C641    1.419   .     A
C640   C642    1.419   .     A
C640   C135    1.396   1_556 S
C641   C646    1.405   .     A
C642   C645    1.405   .     A
C643   H649    1.084   .     S
C644   H650    1.084   .     S
C644   C142    1.387   1_556 S
C645   H651    1.082   .     S
C645   C139    1.387   1_556 S
C646   H652    1.082   .     S
C653   C822    1.335   .     S
C653   H823    1.088   .     S
C654   C989    1.335   1_545 S
C654   H992    1.088   1_545 S
H655   C989    1.088   1_545 S
H656   C822    1.088   .     S
N657   N546    1.281   1_655 S
N657   C553    1.440   1_655 S
N659   O661    1.301   .     A
N659   O660    1.301   .     A
N662   O664    1.301   .     A
N662   O663    1.301   .     A
C665   H668    1.110   .     S
C665   H667    1.103   .     S
H666   C553    1.109   1_655 S
C669   H671    1.110   .     S
C669   H672    1.103   .     S
C669   N546    1.440   1_655 S
C669   H558    1.109   1_655 S
O673   C677    1.286   .     A
O673   Zn685   1.952   .     S
O674   C678    1.286   .     A
O674   Zn686   1.952   .     S
O675   Zn686   1.970   .     S
O675   C677    1.294   .     A
O676   C678    1.294   .     A
O676   Zn685   1.970   .     S
C677   C709    1.399   .     S
C678   C710    1.399   .     S
O679   C683    1.293   .     A
O679   Zn685   2.002   .     S
O680   C684    1.293   .     A
O680   Zn686   2.002   .     S
O681   Zn686   2.004   .     S
O681   C683    1.294   .     A
O682   C684    1.294   .     A
O682   Zn685   2.004   .     S
C683   C690    1.417   .     S
C684   C689    1.417   .     S
Zn685  N714    2.039   .     S
Zn686  N713    2.039   .     S
C687   C697    1.399   .     A
C687   N715    1.437   .     S
C687   C689    1.401   .     A
C688   C690    1.401   .     A
C688   C698    1.399   .     A
C688   N718    1.437   .     S
C689   C691    1.388   .     A
C690   C692    1.388   .     A
C691   H703    1.086   .     S
C691   C693    1.380   .     A
C692   C694    1.380   .     A
C692   H704    1.086   .     S
C693   C699    1.397   .     A
C693   C695    1.411   .     A
C694   C700    1.397   .     A
C694   C696    1.411   .     A
C695   C697    1.419   .     A
C696   C698    1.419   .     A
C696   C191    1.396   1_556 S
C697   C702    1.405   .     A
C698   C701    1.405   .     A
C699   H705    1.084   .     S
C700   H706    1.084   .     S
C700   C198    1.387   1_556 S
C701   H707    1.082   .     S
C701   C195    1.387   1_556 S
C702   H708    1.082   .     S
C709   C878    1.335   .     S
C709   H879    1.088   .     S
H712   C878    1.088   .     S
N713   N770    1.281   .     S
N713   C777    1.440   .     S
N714   N825    1.281   1_455 S
N714   C837    1.440   1_455 S
N715   O717    1.301   .     A
N715   O716    1.301   .     A
N718   O720    1.301   .     A
N718   O719    1.301   .     A
C721   H724    1.110   .     S
C721   H723    1.103   .     S
C721   N825    1.440   1_455 S
C721   H834    1.109   1_455 S
H722   C777    1.109   .     S
C725   H727    1.110   .     S
C725   H728    1.103   .     S
C725   N770    1.440   .     S
C725   H782    1.109   .     S
H726   C837    1.109   1_455 S
O729   C733    1.286   .     A
O729   Zn741   1.952   .     S
O730   C734    1.286   .     A
O730   Zn742   1.952   .     S
O731   Zn742   1.970   .     S
O731   C733    1.294   .     A
O732   C734    1.294   .     A
O732   Zn741   1.970   .     S
C733   C765    1.399   .     S
C734   C766    1.399   .     S
O735   C739    1.293   .     A
O735   Zn741   2.002   .     S
O736   C740    1.293   .     A
O736   Zn742   2.002   .     S
O737   Zn742   2.004   .     S
O737   C739    1.294   .     A
O738   C740    1.294   .     A
O738   Zn741   2.004   .     S
C739   C746    1.417   .     S
C740   C745    1.417   .     S
Zn741  N770    2.039   .     S
Zn742  N769    2.039   .     S
C743   C753    1.399   .     A
C743   N771    1.437   .     S
C743   C745    1.401   .     A
C744   C746    1.401   .     A
C744   C754    1.399   .     A
C744   N774    1.437   .     S
C745   C747    1.388   .     A
C746   C748    1.388   .     A
C747   H759    1.086   .     S
C747   C749    1.380   .     A
C748   C750    1.380   .     A
C748   H760    1.086   .     S
C749   C755    1.397   .     A
C749   C751    1.411   .     A
C750   C756    1.397   .     A
C750   C752    1.411   .     A
C751   C753    1.419   .     A
C752   C754    1.419   .     A
C752   C247    1.396   1_556 S
C753   C758    1.405   .     A
C754   C757    1.405   .     A
C755   H761    1.084   .     S
C756   H762    1.084   .     S
C756   C254    1.387   1_556 S
C757   H763    1.082   .     S
C757   C251    1.387   1_556 S
C758   H764    1.082   .     S
C765   C934    1.335   .     S
C765   H935    1.088   .     S
H768   C934    1.088   .     S
N769   N826    1.281   .     S
N769   C833    1.440   .     S
N771   O773    1.301   .     A
N771   O772    1.301   .     A
N774   O776    1.301   .     A
N774   O775    1.301   .     A
C777   H780    1.110   .     S
C777   H779    1.103   .     S
H778   C833    1.109   .     S
C781   H783    1.110   .     S
C781   H784    1.103   .     S
C781   N826    1.440   .     S
C781   H838    1.109   .     S
O785   C789    1.286   .     A
O785   Zn797   1.952   .     S
O786   C790    1.286   .     A
O786   Zn798   1.952   .     S
O787   Zn798   1.970   .     S
O787   C789    1.294   .     A
O788   C790    1.294   .     A
O788   Zn797   1.970   .     S
C789   C821    1.399   .     S
C790   C822    1.399   .     S
O791   C795    1.293   .     A
O791   Zn797   2.002   .     S
O792   C796    1.293   .     A
O792   Zn798   2.002   .     S
O793   Zn798   2.004   .     S
O793   C795    1.294   .     A
O794   C796    1.294   .     A
O794   Zn797   2.004   .     S
C795   C802    1.417   .     S
C796   C801    1.417   .     S
Zn797  N826    2.039   .     S
Zn798  N825    2.039   .     S
C799   C809    1.399   .     A
C799   N827    1.437   .     S
C799   C801    1.401   .     A
C800   C802    1.401   .     A
C800   C810    1.399   .     A
C800   N830    1.437   .     S
C801   C803    1.388   .     A
C802   C804    1.388   .     A
C803   H815    1.086   .     S
C803   C805    1.380   .     A
C804   C806    1.380   .     A
C804   H816    1.086   .     S
C805   C811    1.397   .     A
C805   C807    1.411   .     A
C806   C812    1.397   .     A
C806   C808    1.411   .     A
C807   C809    1.419   .     A
C808   C810    1.419   .     A
C808   C303    1.396   1_556 S
C809   C814    1.405   .     A
C810   C813    1.405   .     A
C811   H817    1.084   .     S
C812   H818    1.084   .     S
C812   C310    1.387   1_556 S
C813   H819    1.082   .     S
C813   C307    1.387   1_556 S
C814   H820    1.082   .     S
C821   C990    1.335   .     S
C821   H991    1.088   .     S
H824   C990    1.088   .     S
N825   N714    1.281   1_655 S
N825   C721    1.440   1_655 S
N827   O829    1.301   .     A
N827   O828    1.301   .     A
N830   O832    1.301   .     A
N830   O831    1.301   .     A
C833   H836    1.110   .     S
C833   H835    1.103   .     S
H834   C721    1.109   1_655 S
C837   H839    1.110   .     S
C837   H840    1.103   .     S
C837   N714    1.440   1_655 S
C837   H726    1.109   1_655 S
O841   C845    1.286   .     A
O841   Zn853   1.952   .     S
O842   C846    1.286   .     A
O842   Zn854   1.952   .     S
O843   Zn854   1.970   .     S
O843   C845    1.294   .     A
O844   C846    1.294   .     A
O844   Zn853   1.970   .     S
C845   C877    1.399   .     S
C846   C878    1.399   .     S
O847   C851    1.293   .     A
O847   Zn853   2.002   .     S
O848   C852    1.293   .     A
O848   Zn854   2.002   .     S
O849   Zn854   2.004   .     S
O849   C851    1.294   .     A
O850   C852    1.294   .     A
O850   Zn853   2.004   .     S
C851   C858    1.417   .     S
C852   C857    1.417   .     S
Zn853  N882    2.039   .     S
Zn854  N881    2.039   .     S
C855   C865    1.399   .     A
C855   N883    1.437   .     S
C855   C857    1.401   .     A
C856   C858    1.401   .     A
C856   C866    1.399   .     A
C856   N886    1.437   .     S
C857   C859    1.388   .     A
C858   C860    1.388   .     A
C859   H871    1.086   .     S
C859   C861    1.380   .     A
C860   C862    1.380   .     A
C860   H872    1.086   .     S
C861   C867    1.397   .     A
C861   C863    1.411   .     A
C862   C868    1.397   .     A
C862   C864    1.411   .     A
C863   C865    1.419   .     A
C864   C866    1.419   .     A
C864   C359    1.396   1_556 S
C865   C870    1.405   .     A
C866   C869    1.405   .     A
C867   H873    1.084   .     S
C868   H874    1.084   .     S
C868   C366    1.387   1_556 S
C869   H875    1.082   .     S
C869   C363    1.387   1_556 S
C870   H876    1.082   .     S
C877   C542    1.335   1_565 S
C877   H543    1.088   1_565 S
H880   C542    1.088   1_565 S
N881   N938    1.281   .     S
N881   C945    1.440   .     S
N882   N993    1.281   1_455 S
N882   C1005   1.440   1_455 S
N883   O885    1.301   .     A
N883   O884    1.301   .     A
N886   O888    1.301   .     A
N886   O887    1.301   .     A
C889   H892    1.110   .     S
C889   H891    1.103   .     S
C889   N993    1.440   1_455 S
C889   H1002   1.109   1_455 S
H890   C945    1.109   .     S
C893   H895    1.110   .     S
C893   H896    1.103   .     S
C893   N938    1.440   .     S
C893   H950    1.109   .     S
H894   C1005   1.109   1_455 S
O897   C901    1.286   .     A
O897   Zn909   1.952   .     S
O898   C902    1.286   .     A
O898   Zn910   1.952   .     S
O899   Zn910   1.970   .     S
O899   C901    1.294   .     A
O900   C902    1.294   .     A
O900   Zn909   1.970   .     S
C901   C933    1.399   .     S
C902   C934    1.399   .     S
O903   C907    1.293   .     A
O903   Zn909   2.002   .     S
O904   C908    1.293   .     A
O904   Zn910   2.002   .     S
O905   Zn910   2.004   .     S
O905   C907    1.294   .     A
O906   C908    1.294   .     A
O906   Zn909   2.004   .     S
C907   C914    1.417   .     S
C908   C913    1.417   .     S
Zn909  N938    2.039   .     S
Zn910  N937    2.039   .     S
C911   C921    1.399   .     A
C911   N939    1.437   .     S
C911   C913    1.401   .     A
C912   C914    1.401   .     A
C912   C922    1.399   .     A
C912   N942    1.437   .     S
C913   C915    1.388   .     A
C914   C916    1.388   .     A
C915   H927    1.086   .     S
C915   C917    1.380   .     A
C916   C918    1.380   .     A
C916   H928    1.086   .     S
C917   C923    1.397   .     A
C917   C919    1.411   .     A
C918   C924    1.397   .     A
C918   C920    1.411   .     A
C919   C921    1.419   .     A
C920   C922    1.419   .     A
C920   C415    1.396   1_556 S
C921   C926    1.405   .     A
C922   C925    1.405   .     A
C923   H929    1.084   .     S
C924   H930    1.084   .     S
C924   C422    1.387   1_556 S
C925   H931    1.082   .     S
C925   C419    1.387   1_556 S
C926   H932    1.082   .     S
C933   C598    1.335   1_565 S
C933   H599    1.088   1_565 S
H936   C598    1.088   1_565 S
N937   N994    1.281   .     S
N937   C1001   1.440   .     S
N939   O941    1.301   .     A
N939   O940    1.301   .     A
N942   O944    1.301   .     A
N942   O943    1.301   .     A
C945   H948    1.110   .     S
C945   H947    1.103   .     S
H946   C1001   1.109   .     S
C949   H951    1.110   .     S
C949   H952    1.103   .     S
C949   N994    1.440   .     S
C949   H1006   1.109   .     S
O953   C957    1.286   .     A
O953   Zn965   1.952   .     S
O954   C958    1.286   .     A
O954   Zn966   1.952   .     S
O955   Zn966   1.970   .     S
O955   C957    1.294   .     A
O956   C958    1.294   .     A
O956   Zn965   1.970   .     S
C957   C989    1.399   .     S
C958   C990    1.399   .     S
O959   C963    1.293   .     A
O959   Zn965   2.002   .     S
O960   C964    1.293   .     A
O960   Zn966   2.002   .     S
O961   Zn966   2.004   .     S
O961   C963    1.294   .     A
O962   C964    1.294   .     A
O962   Zn965   2.004   .     S
C963   C970    1.417   .     S
C964   C969    1.417   .     S
Zn965  N994    2.039   .     S
Zn966  N993    2.039   .     S
C967   C977    1.399   .     A
C967   N995    1.437   .     S
C967   C969    1.401   .     A
C968   C970    1.401   .     A
C968   C978    1.399   .     A
C968   N998    1.437   .     S
C969   C971    1.388   .     A
C970   C972    1.388   .     A
C971   H983    1.086   .     S
C971   C973    1.380   .     A
C972   C974    1.380   .     A
C972   H984    1.086   .     S
C973   C979    1.397   .     A
C973   C975    1.411   .     A
C974   C980    1.397   .     A
C974   C976    1.411   .     A
C975   C977    1.419   .     A
C976   C978    1.419   .     A
C976   C471    1.396   1_556 S
C977   C982    1.405   .     A
C978   C981    1.405   .     A
C979   H985    1.084   .     S
C980   H986    1.084   .     S
C980   C478    1.387   1_556 S
C981   H987    1.082   .     S
C981   C475    1.387   1_556 S
C982   H988    1.082   .     S
C989   C654    1.335   1_565 S
C989   H655    1.088   1_565 S
H992   C654    1.088   1_565 S
N993   N882    1.281   1_655 S
N993   C889    1.440   1_655 S
N995   O997    1.301   .     A
N995   O996    1.301   .     A
N998   O1000   1.301   .     A
N998   O999    1.301   .     A
C1001  H1004   1.110   .     S
C1001  H1003   1.103   .     S
H1002  C889    1.109   1_655 S
C1005  H1007   1.110   .     S
C1005  H1008   1.103   .     S
C1005  N882    1.440   1_655 S
C1005  H894    1.109   1_655 S
