data_str_m2_o1_o16_pcu_sym.24
_audit_creation_date              2020-01-03
_audit_creation_method            'Materials Studio'
_symmetry_space_group_name_H-M    'P1'
_symmetry_Int_Tables_number       1
_symmetry_cell_setting            triclinic
loop_
_symmetry_equiv_pos_as_xyz
  x,y,z
_cell_length_a                    28.5895
_cell_length_b                    32.5003
_cell_length_c                    27.0079
_cell_angle_alpha                 90.2164
_cell_angle_beta                  73.2583
_cell_angle_gamma                 90.0084
loop_
_atom_site_label
_atom_site_type_symbol
_atom_site_fract_x
_atom_site_fract_y
_atom_site_fract_z
_atom_site_U_iso_or_equiv
_atom_site_adp_type
_atom_site_occupancy
C1     C     0.16667   0.24596   0.25005   0.00000  Uiso   1.00
C2     C     0.12775   0.18163   0.40555   0.00000  Uiso   1.00
C3     C     0.20906   0.31206   0.25043   0.00000  Uiso   1.00
C4     C     0.14120   0.17136   0.34954   0.00000  Uiso   1.00
C5     C     0.20907   0.02129   0.25036   0.00000  Uiso   1.00
C6     C     0.16665   0.04274   0.25003   0.00000  Uiso   1.00
C7     C     0.12422   0.02127   0.24976   0.00000  Uiso   1.00
C8     C     0.12422   0.31203   0.24982   0.00000  Uiso   1.00
C9     C     0.16664   0.29059   0.25012   0.00000  Uiso   1.00
C10    C     0.30224   0.19762   0.27350   0.00000  Uiso   1.00
C11    C     0.01829   0.19736   0.27402   0.00000  Uiso   1.00
C12    C     0.14810   0.18492   0.48799   0.00000  Uiso   1.00
C13    C     0.03141   0.13616   0.22553   0.00000  Uiso   1.00
C14    C     0.31514   0.13610   0.22568   0.00000  Uiso   1.00
C15    C     0.16666   0.08737   0.24999   0.00000  Uiso   1.00
C16    C     0.19260   0.16616   0.15017   0.00000  Uiso   1.00
C17    C     0.26879   0.16429   0.01091   0.00000  Uiso   1.00
C18    C     0.20731   0.16699   0.09360   0.00000  Uiso   1.00
C19    C     0.07835   0.18744   0.43251   0.00000  Uiso   1.00
C20    C     0.06428   0.19448   0.48559   0.00000  Uiso   1.00
C21    C     0.09806   0.19146   0.01347   0.00000  Uiso   1.00
C22    C     0.16340   0.18531   0.43315   0.00000  Uiso   1.00
C23    C     0.18376   0.17850   0.01476   0.00000  Uiso   1.00
C24    C     0.23370   0.17477   0.48633   0.00000  Uiso   1.00
C25    C     0.24839   0.18286   0.43377   0.00000  Uiso   1.00
C26    C     0.21379   0.19019   0.40823   0.00000  Uiso   1.00
C27    C     0.17147   0.17441   0.06860   0.00000  Uiso   1.00
C28    C     0.25604   0.16087   0.06436   0.00000  Uiso   1.00
Cu29   Cu    0.11978   0.16666   0.25000   0.00000  Uiso   1.00
Cu30   Cu    0.21355   0.16667   0.25000   0.00000  Uiso   1.00
F31    F     0.29127   0.15150   0.08711   0.00000  Uiso   1.00
H32    H     0.24225   0.03731   0.25059   0.00000  Uiso   1.00
H33    H     0.05055   0.18726   0.41246   0.00000  Uiso   1.00
H34    H     0.08397   0.19565   0.05468   0.00000  Uiso   1.00
H35    H     0.02674   0.20158   0.00581   0.00000  Uiso   1.00
H36    H     0.22767   0.20136   0.36949   0.00000  Uiso   1.00
H37    H     0.24222   0.29606   0.25070   0.00000  Uiso   1.00
H38    H     0.30189   0.11165   0.20601   0.00000  Uiso   1.00
H39    H     0.09106   0.03727   0.24949   0.00000  Uiso   1.00
H40    H     0.09104   0.29602   0.24960   0.00000  Uiso   1.00
H41    H     0.27887   0.22281   0.29173   0.00000  Uiso   1.00
H42    H     0.03159   0.22193   0.29346   0.00000  Uiso   1.00
H43    H     0.05537   0.11176   0.20573   0.00000  Uiso   1.00
H44    H     0.28681   0.18420   0.41240   0.00000  Uiso   1.00
H45    H     0.30610   0.15855   0.48840   0.00000  Uiso   1.00
H46    H     0.13413   0.17689   0.09202   0.00000  Uiso   1.00
N47    N     0.04931   0.16666   0.24998   0.00000  Uiso   1.00
N48    N     0.28402   0.16669   0.24999   0.00000  Uiso   1.00
O49    O     0.12708   0.22678   0.25000   0.00000  Uiso   1.00
O50    O     0.20627   0.22679   0.25000   0.00000  Uiso   1.00
O51    O     0.10775   0.16665   0.32549   0.00000  Uiso   1.00
O52    O     0.18694   0.16666   0.32549   0.00000  Uiso   1.00
O53    O     0.12706   0.10654   0.24999   0.00000  Uiso   1.00
O54    O     0.20625   0.10655   0.24999   0.00000  Uiso   1.00
O55    O     0.14640   0.16667   0.17451   0.00000  Uiso   1.00
O56    O     0.22559   0.16668   0.17451   0.00000  Uiso   1.00
C57    C     0.50000   0.24596   0.25005   0.00000  Uiso   1.00
C58    C     0.46109   0.18163   0.40555   0.00000  Uiso   1.00
C59    C     0.54240   0.31206   0.25043   0.00000  Uiso   1.00
C60    C     0.47453   0.17136   0.34954   0.00000  Uiso   1.00
C61    C     0.54241   0.02129   0.25036   0.00000  Uiso   1.00
C62    C     0.49999   0.04274   0.25003   0.00000  Uiso   1.00
C63    C     0.45756   0.02127   0.24976   0.00000  Uiso   1.00
C64    C     0.45755   0.31203   0.24982   0.00000  Uiso   1.00
C65    C     0.49998   0.29059   0.25012   0.00000  Uiso   1.00
C66    C     0.63558   0.19762   0.27350   0.00000  Uiso   1.00
C67    C     0.35162   0.19736   0.27402   0.00000  Uiso   1.00
C68    C     0.48143   0.18492   0.48799   0.00000  Uiso   1.00
C69    C     0.36475   0.13616   0.22553   0.00000  Uiso   1.00
C70    C     0.64848   0.13610   0.22568   0.00000  Uiso   1.00
C71    C     0.49999   0.08737   0.24999   0.00000  Uiso   1.00
C72    C     0.52593   0.16616   0.15017   0.00000  Uiso   1.00
C73    C     0.60213   0.16429   0.01091   0.00000  Uiso   1.00
C74    C     0.54065   0.16699   0.09360   0.00000  Uiso   1.00
C75    C     0.41168   0.18744   0.43251   0.00000  Uiso   1.00
C76    C     0.39762   0.19448   0.48559   0.00000  Uiso   1.00
C77    C     0.43140   0.19146   0.01347   0.00000  Uiso   1.00
C78    C     0.49673   0.18531   0.43315   0.00000  Uiso   1.00
C79    C     0.51710   0.17850   0.01476   0.00000  Uiso   1.00
C80    C     0.56703   0.17477   0.48633   0.00000  Uiso   1.00
C81    C     0.58172   0.18286   0.43377   0.00000  Uiso   1.00
C82    C     0.54712   0.19019   0.40823   0.00000  Uiso   1.00
C83    C     0.50480   0.17441   0.06860   0.00000  Uiso   1.00
C84    C     0.58937   0.16087   0.06436   0.00000  Uiso   1.00
Cu85   Cu    0.45311   0.16666   0.25000   0.00000  Uiso   1.00
Cu86   Cu    0.54689   0.16667   0.25000   0.00000  Uiso   1.00
F87    F     0.62461   0.15150   0.08711   0.00000  Uiso   1.00
H88    H     0.57558   0.03731   0.25059   0.00000  Uiso   1.00
H89    H     0.38388   0.18726   0.41246   0.00000  Uiso   1.00
H90    H     0.41730   0.19565   0.05468   0.00000  Uiso   1.00
H91    H     0.36008   0.20158   0.00581   0.00000  Uiso   1.00
H92    H     0.56101   0.20136   0.36949   0.00000  Uiso   1.00
H93    H     0.57556   0.29606   0.25070   0.00000  Uiso   1.00
H94    H     0.63523   0.11165   0.20601   0.00000  Uiso   1.00
H95    H     0.42439   0.03727   0.24949   0.00000  Uiso   1.00
H96    H     0.42438   0.29602   0.24960   0.00000  Uiso   1.00
H97    H     0.61220   0.22281   0.29173   0.00000  Uiso   1.00
H98    H     0.36492   0.22193   0.29346   0.00000  Uiso   1.00
H99    H     0.38870   0.11176   0.20573   0.00000  Uiso   1.00
H100   H     0.62014   0.18420   0.41240   0.00000  Uiso   1.00
H101   H     0.63943   0.15855   0.48840   0.00000  Uiso   1.00
H102   H     0.46747   0.17689   0.09202   0.00000  Uiso   1.00
N103   N     0.38265   0.16666   0.24998   0.00000  Uiso   1.00
N104   N     0.61735   0.16669   0.24999   0.00000  Uiso   1.00
O105   O     0.46042   0.22678   0.25000   0.00000  Uiso   1.00
O106   O     0.53961   0.22679   0.25000   0.00000  Uiso   1.00
O107   O     0.44108   0.16665   0.32549   0.00000  Uiso   1.00
O108   O     0.52027   0.16666   0.32549   0.00000  Uiso   1.00
O109   O     0.46039   0.10654   0.24999   0.00000  Uiso   1.00
O110   O     0.53958   0.10655   0.24999   0.00000  Uiso   1.00
O111   O     0.47973   0.16667   0.17451   0.00000  Uiso   1.00
O112   O     0.55892   0.16668   0.17451   0.00000  Uiso   1.00
C113   C     0.83333   0.24596   0.25005   0.00000  Uiso   1.00
C114   C     0.79442   0.18163   0.40555   0.00000  Uiso   1.00
C115   C     0.87573   0.31206   0.25043   0.00000  Uiso   1.00
C116   C     0.80786   0.17136   0.34954   0.00000  Uiso   1.00
C117   C     0.87574   0.02129   0.25036   0.00000  Uiso   1.00
C118   C     0.83332   0.04274   0.25003   0.00000  Uiso   1.00
C119   C     0.79089   0.02127   0.24976   0.00000  Uiso   1.00
C120   C     0.79088   0.31203   0.24982   0.00000  Uiso   1.00
C121   C     0.83331   0.29059   0.25012   0.00000  Uiso   1.00
C122   C     0.96891   0.19762   0.27350   0.00000  Uiso   1.00
C123   C     0.68496   0.19736   0.27402   0.00000  Uiso   1.00
C124   C     0.81477   0.18492   0.48799   0.00000  Uiso   1.00
C125   C     0.69808   0.13616   0.22553   0.00000  Uiso   1.00
C126   C     0.98181   0.13610   0.22568   0.00000  Uiso   1.00
C127   C     0.83332   0.08737   0.24999   0.00000  Uiso   1.00
C128   C     0.85927   0.16616   0.15017   0.00000  Uiso   1.00
C129   C     0.93546   0.16429   0.01091   0.00000  Uiso   1.00
C130   C     0.87398   0.16699   0.09360   0.00000  Uiso   1.00
C131   C     0.74501   0.18744   0.43251   0.00000  Uiso   1.00
C132   C     0.73095   0.19448   0.48559   0.00000  Uiso   1.00
C133   C     0.76473   0.19146   0.01347   0.00000  Uiso   1.00
C134   C     0.83006   0.18531   0.43315   0.00000  Uiso   1.00
C135   C     0.85043   0.17850   0.01476   0.00000  Uiso   1.00
C136   C     0.90036   0.17477   0.48633   0.00000  Uiso   1.00
C137   C     0.91505   0.18286   0.43377   0.00000  Uiso   1.00
C138   C     0.88045   0.19019   0.40823   0.00000  Uiso   1.00
C139   C     0.83814   0.17441   0.06860   0.00000  Uiso   1.00
C140   C     0.92270   0.16087   0.06436   0.00000  Uiso   1.00
Cu141  Cu    0.78645   0.16666   0.25000   0.00000  Uiso   1.00
Cu142  Cu    0.88022   0.16667   0.25000   0.00000  Uiso   1.00
F143   F     0.95794   0.15150   0.08711   0.00000  Uiso   1.00
H144   H     0.90891   0.03731   0.25059   0.00000  Uiso   1.00
H145   H     0.71722   0.18726   0.41246   0.00000  Uiso   1.00
H146   H     0.75064   0.19565   0.05468   0.00000  Uiso   1.00
H147   H     0.69341   0.20158   0.00581   0.00000  Uiso   1.00
H148   H     0.89434   0.20136   0.36949   0.00000  Uiso   1.00
H149   H     0.90889   0.29606   0.25070   0.00000  Uiso   1.00
H150   H     0.96856   0.11165   0.20601   0.00000  Uiso   1.00
H151   H     0.75773   0.03727   0.24949   0.00000  Uiso   1.00
H152   H     0.75771   0.29602   0.24960   0.00000  Uiso   1.00
H153   H     0.94554   0.22281   0.29173   0.00000  Uiso   1.00
H154   H     0.69825   0.22193   0.29346   0.00000  Uiso   1.00
H155   H     0.72203   0.11176   0.20573   0.00000  Uiso   1.00
H156   H     0.95348   0.18420   0.41240   0.00000  Uiso   1.00
H157   H     0.97276   0.15855   0.48840   0.00000  Uiso   1.00
H158   H     0.80080   0.17689   0.09202   0.00000  Uiso   1.00
N159   N     0.71598   0.16666   0.24998   0.00000  Uiso   1.00
N160   N     0.95069   0.16669   0.24999   0.00000  Uiso   1.00
O161   O     0.79375   0.22678   0.25000   0.00000  Uiso   1.00
O162   O     0.87294   0.22679   0.25000   0.00000  Uiso   1.00
O163   O     0.77441   0.16665   0.32549   0.00000  Uiso   1.00
O164   O     0.85360   0.16666   0.32549   0.00000  Uiso   1.00
O165   O     0.79373   0.10654   0.24999   0.00000  Uiso   1.00
O166   O     0.87292   0.10655   0.24999   0.00000  Uiso   1.00
O167   O     0.81306   0.16667   0.17451   0.00000  Uiso   1.00
O168   O     0.89225   0.16668   0.17451   0.00000  Uiso   1.00
C169   C     0.16667   0.57930   0.25005   0.00000  Uiso   1.00
C170   C     0.12775   0.51496   0.40555   0.00000  Uiso   1.00
C171   C     0.20906   0.64539   0.25043   0.00000  Uiso   1.00
C172   C     0.14120   0.50469   0.34954   0.00000  Uiso   1.00
C173   C     0.20907   0.35463   0.25036   0.00000  Uiso   1.00
C174   C     0.16665   0.37608   0.25003   0.00000  Uiso   1.00
C175   C     0.12422   0.35460   0.24976   0.00000  Uiso   1.00
C176   C     0.12422   0.64537   0.24982   0.00000  Uiso   1.00
C177   C     0.16664   0.62392   0.25012   0.00000  Uiso   1.00
C178   C     0.30224   0.53095   0.27350   0.00000  Uiso   1.00
C179   C     0.01829   0.53070   0.27402   0.00000  Uiso   1.00
C180   C     0.14810   0.51826   0.48799   0.00000  Uiso   1.00
C181   C     0.03141   0.46949   0.22553   0.00000  Uiso   1.00
C182   C     0.31514   0.46944   0.22568   0.00000  Uiso   1.00
C183   C     0.16666   0.42070   0.24999   0.00000  Uiso   1.00
C184   C     0.19260   0.49949   0.15017   0.00000  Uiso   1.00
C185   C     0.26879   0.49763   0.01091   0.00000  Uiso   1.00
C186   C     0.20731   0.50033   0.09360   0.00000  Uiso   1.00
C187   C     0.07835   0.52078   0.43251   0.00000  Uiso   1.00
C188   C     0.06428   0.52781   0.48559   0.00000  Uiso   1.00
C189   C     0.09806   0.52479   0.01347   0.00000  Uiso   1.00
C190   C     0.16340   0.51864   0.43315   0.00000  Uiso   1.00
C191   C     0.18376   0.51184   0.01476   0.00000  Uiso   1.00
C192   C     0.23370   0.50810   0.48633   0.00000  Uiso   1.00
C193   C     0.24839   0.51619   0.43377   0.00000  Uiso   1.00
C194   C     0.21379   0.52352   0.40823   0.00000  Uiso   1.00
C195   C     0.17147   0.50774   0.06860   0.00000  Uiso   1.00
C196   C     0.25604   0.49420   0.06436   0.00000  Uiso   1.00
Cu197  Cu    0.11978   0.49999   0.25000   0.00000  Uiso   1.00
Cu198  Cu    0.21355   0.50001   0.25000   0.00000  Uiso   1.00
F199   F     0.29127   0.48484   0.08711   0.00000  Uiso   1.00
H200   H     0.24225   0.37064   0.25059   0.00000  Uiso   1.00
H201   H     0.05055   0.52059   0.41246   0.00000  Uiso   1.00
H202   H     0.08397   0.52899   0.05468   0.00000  Uiso   1.00
H203   H     0.02674   0.53491   0.00581   0.00000  Uiso   1.00
H204   H     0.22767   0.53470   0.36949   0.00000  Uiso   1.00
H205   H     0.24222   0.62939   0.25070   0.00000  Uiso   1.00
H206   H     0.30189   0.44499   0.20601   0.00000  Uiso   1.00
H207   H     0.09106   0.37060   0.24949   0.00000  Uiso   1.00
H208   H     0.09104   0.62935   0.24960   0.00000  Uiso   1.00
H209   H     0.27887   0.55614   0.29173   0.00000  Uiso   1.00
H210   H     0.03159   0.55526   0.29346   0.00000  Uiso   1.00
H211   H     0.05537   0.44510   0.20573   0.00000  Uiso   1.00
H212   H     0.28681   0.51754   0.41240   0.00000  Uiso   1.00
H213   H     0.30610   0.49189   0.48840   0.00000  Uiso   1.00
H214   H     0.13413   0.51022   0.09202   0.00000  Uiso   1.00
N215   N     0.04931   0.49999   0.24998   0.00000  Uiso   1.00
N216   N     0.28402   0.50002   0.24999   0.00000  Uiso   1.00
O217   O     0.12708   0.56011   0.25000   0.00000  Uiso   1.00
O218   O     0.20627   0.56012   0.25000   0.00000  Uiso   1.00
O219   O     0.10775   0.49998   0.32549   0.00000  Uiso   1.00
O220   O     0.18694   0.49999   0.32549   0.00000  Uiso   1.00
O221   O     0.12706   0.43988   0.24999   0.00000  Uiso   1.00
O222   O     0.20625   0.43989   0.24999   0.00000  Uiso   1.00
O223   O     0.14640   0.50001   0.17451   0.00000  Uiso   1.00
O224   O     0.22559   0.50002   0.17451   0.00000  Uiso   1.00
C225   C     0.50000   0.57930   0.25005   0.00000  Uiso   1.00
C226   C     0.46109   0.51496   0.40555   0.00000  Uiso   1.00
C227   C     0.54240   0.64539   0.25043   0.00000  Uiso   1.00
C228   C     0.47453   0.50469   0.34954   0.00000  Uiso   1.00
C229   C     0.54241   0.35463   0.25036   0.00000  Uiso   1.00
C230   C     0.49999   0.37608   0.25003   0.00000  Uiso   1.00
C231   C     0.45756   0.35460   0.24976   0.00000  Uiso   1.00
C232   C     0.45755   0.64537   0.24982   0.00000  Uiso   1.00
C233   C     0.49998   0.62392   0.25012   0.00000  Uiso   1.00
C234   C     0.63558   0.53095   0.27350   0.00000  Uiso   1.00
C235   C     0.35162   0.53070   0.27402   0.00000  Uiso   1.00
C236   C     0.48143   0.51826   0.48799   0.00000  Uiso   1.00
C237   C     0.36475   0.46949   0.22553   0.00000  Uiso   1.00
C238   C     0.64848   0.46944   0.22568   0.00000  Uiso   1.00
C239   C     0.49999   0.42070   0.24999   0.00000  Uiso   1.00
C240   C     0.52593   0.49949   0.15017   0.00000  Uiso   1.00
C241   C     0.60213   0.49763   0.01091   0.00000  Uiso   1.00
C242   C     0.54065   0.50033   0.09360   0.00000  Uiso   1.00
C243   C     0.41168   0.52078   0.43251   0.00000  Uiso   1.00
C244   C     0.39762   0.52781   0.48559   0.00000  Uiso   1.00
C245   C     0.43140   0.52479   0.01347   0.00000  Uiso   1.00
C246   C     0.49673   0.51864   0.43315   0.00000  Uiso   1.00
C247   C     0.51710   0.51184   0.01476   0.00000  Uiso   1.00
C248   C     0.56703   0.50810   0.48633   0.00000  Uiso   1.00
C249   C     0.58172   0.51619   0.43377   0.00000  Uiso   1.00
C250   C     0.54712   0.52352   0.40823   0.00000  Uiso   1.00
C251   C     0.50480   0.50774   0.06860   0.00000  Uiso   1.00
C252   C     0.58937   0.49420   0.06436   0.00000  Uiso   1.00
Cu253  Cu    0.45311   0.49999   0.25000   0.00000  Uiso   1.00
Cu254  Cu    0.54689   0.50001   0.25000   0.00000  Uiso   1.00
F255   F     0.62461   0.48484   0.08711   0.00000  Uiso   1.00
H256   H     0.57558   0.37064   0.25059   0.00000  Uiso   1.00
H257   H     0.38388   0.52059   0.41246   0.00000  Uiso   1.00
H258   H     0.41730   0.52899   0.05468   0.00000  Uiso   1.00
H259   H     0.36008   0.53491   0.00581   0.00000  Uiso   1.00
H260   H     0.56101   0.53470   0.36949   0.00000  Uiso   1.00
H261   H     0.57556   0.62939   0.25070   0.00000  Uiso   1.00
H262   H     0.63523   0.44499   0.20601   0.00000  Uiso   1.00
H263   H     0.42439   0.37060   0.24949   0.00000  Uiso   1.00
H264   H     0.42438   0.62935   0.24960   0.00000  Uiso   1.00
H265   H     0.61220   0.55614   0.29173   0.00000  Uiso   1.00
H266   H     0.36492   0.55526   0.29346   0.00000  Uiso   1.00
H267   H     0.38870   0.44510   0.20573   0.00000  Uiso   1.00
H268   H     0.62014   0.51754   0.41240   0.00000  Uiso   1.00
H269   H     0.63943   0.49189   0.48840   0.00000  Uiso   1.00
H270   H     0.46747   0.51022   0.09202   0.00000  Uiso   1.00
N271   N     0.38265   0.49999   0.24998   0.00000  Uiso   1.00
N272   N     0.61735   0.50002   0.24999   0.00000  Uiso   1.00
O273   O     0.46042   0.56011   0.25000   0.00000  Uiso   1.00
O274   O     0.53961   0.56012   0.25000   0.00000  Uiso   1.00
O275   O     0.44108   0.49998   0.32549   0.00000  Uiso   1.00
O276   O     0.52027   0.49999   0.32549   0.00000  Uiso   1.00
O277   O     0.46039   0.43988   0.24999   0.00000  Uiso   1.00
O278   O     0.53958   0.43989   0.24999   0.00000  Uiso   1.00
O279   O     0.47973   0.50001   0.17451   0.00000  Uiso   1.00
O280   O     0.55892   0.50002   0.17451   0.00000  Uiso   1.00
C281   C     0.83333   0.57930   0.25005   0.00000  Uiso   1.00
C282   C     0.79442   0.51496   0.40555   0.00000  Uiso   1.00
C283   C     0.87573   0.64539   0.25043   0.00000  Uiso   1.00
C284   C     0.80786   0.50469   0.34954   0.00000  Uiso   1.00
C285   C     0.87574   0.35463   0.25036   0.00000  Uiso   1.00
C286   C     0.83332   0.37608   0.25003   0.00000  Uiso   1.00
C287   C     0.79089   0.35460   0.24976   0.00000  Uiso   1.00
C288   C     0.79088   0.64537   0.24982   0.00000  Uiso   1.00
C289   C     0.83331   0.62392   0.25012   0.00000  Uiso   1.00
C290   C     0.96891   0.53095   0.27350   0.00000  Uiso   1.00
C291   C     0.68496   0.53070   0.27402   0.00000  Uiso   1.00
C292   C     0.81477   0.51826   0.48799   0.00000  Uiso   1.00
C293   C     0.69808   0.46949   0.22553   0.00000  Uiso   1.00
C294   C     0.98181   0.46944   0.22568   0.00000  Uiso   1.00
C295   C     0.83332   0.42070   0.24999   0.00000  Uiso   1.00
C296   C     0.85927   0.49949   0.15017   0.00000  Uiso   1.00
C297   C     0.93546   0.49763   0.01091   0.00000  Uiso   1.00
C298   C     0.87398   0.50033   0.09360   0.00000  Uiso   1.00
C299   C     0.74501   0.52078   0.43251   0.00000  Uiso   1.00
C300   C     0.73095   0.52781   0.48559   0.00000  Uiso   1.00
C301   C     0.76473   0.52479   0.01347   0.00000  Uiso   1.00
C302   C     0.83006   0.51864   0.43315   0.00000  Uiso   1.00
C303   C     0.85043   0.51184   0.01476   0.00000  Uiso   1.00
C304   C     0.90036   0.50810   0.48633   0.00000  Uiso   1.00
C305   C     0.91505   0.51619   0.43377   0.00000  Uiso   1.00
C306   C     0.88045   0.52352   0.40823   0.00000  Uiso   1.00
C307   C     0.83814   0.50774   0.06860   0.00000  Uiso   1.00
C308   C     0.92270   0.49420   0.06436   0.00000  Uiso   1.00
Cu309  Cu    0.78645   0.49999   0.25000   0.00000  Uiso   1.00
Cu310  Cu    0.88022   0.50001   0.25000   0.00000  Uiso   1.00
F311   F     0.95794   0.48484   0.08711   0.00000  Uiso   1.00
H312   H     0.90891   0.37064   0.25059   0.00000  Uiso   1.00
H313   H     0.71722   0.52059   0.41246   0.00000  Uiso   1.00
H314   H     0.75064   0.52899   0.05468   0.00000  Uiso   1.00
H315   H     0.69341   0.53491   0.00581   0.00000  Uiso   1.00
H316   H     0.89434   0.53470   0.36949   0.00000  Uiso   1.00
H317   H     0.90889   0.62939   0.25070   0.00000  Uiso   1.00
H318   H     0.96856   0.44499   0.20601   0.00000  Uiso   1.00
H319   H     0.75773   0.37060   0.24949   0.00000  Uiso   1.00
H320   H     0.75771   0.62935   0.24960   0.00000  Uiso   1.00
H321   H     0.94554   0.55614   0.29173   0.00000  Uiso   1.00
H322   H     0.69825   0.55526   0.29346   0.00000  Uiso   1.00
H323   H     0.72203   0.44510   0.20573   0.00000  Uiso   1.00
H324   H     0.95348   0.51754   0.41240   0.00000  Uiso   1.00
H325   H     0.97276   0.49189   0.48840   0.00000  Uiso   1.00
H326   H     0.80080   0.51022   0.09202   0.00000  Uiso   1.00
N327   N     0.71598   0.49999   0.24998   0.00000  Uiso   1.00
N328   N     0.95069   0.50002   0.24999   0.00000  Uiso   1.00
O329   O     0.79375   0.56011   0.25000   0.00000  Uiso   1.00
O330   O     0.87294   0.56012   0.25000   0.00000  Uiso   1.00
O331   O     0.77441   0.49998   0.32549   0.00000  Uiso   1.00
O332   O     0.85360   0.49999   0.32549   0.00000  Uiso   1.00
O333   O     0.79373   0.43988   0.24999   0.00000  Uiso   1.00
O334   O     0.87292   0.43989   0.24999   0.00000  Uiso   1.00
O335   O     0.81306   0.50001   0.17451   0.00000  Uiso   1.00
O336   O     0.89225   0.50002   0.17451   0.00000  Uiso   1.00
C337   C     0.16667   0.91263   0.25005   0.00000  Uiso   1.00
C338   C     0.12775   0.84829   0.40555   0.00000  Uiso   1.00
C339   C     0.20906   0.97872   0.25043   0.00000  Uiso   1.00
C340   C     0.14120   0.83802   0.34954   0.00000  Uiso   1.00
C341   C     0.20907   0.68796   0.25036   0.00000  Uiso   1.00
C342   C     0.16665   0.70941   0.25003   0.00000  Uiso   1.00
C343   C     0.12422   0.68794   0.24976   0.00000  Uiso   1.00
C344   C     0.12422   0.97870   0.24982   0.00000  Uiso   1.00
C345   C     0.16664   0.95725   0.25012   0.00000  Uiso   1.00
C346   C     0.30224   0.86429   0.27350   0.00000  Uiso   1.00
C347   C     0.01829   0.86403   0.27402   0.00000  Uiso   1.00
C348   C     0.14810   0.85159   0.48799   0.00000  Uiso   1.00
C349   C     0.03141   0.80283   0.22553   0.00000  Uiso   1.00
C350   C     0.31514   0.80277   0.22568   0.00000  Uiso   1.00
C351   C     0.16666   0.75404   0.24999   0.00000  Uiso   1.00
C352   C     0.19260   0.83283   0.15017   0.00000  Uiso   1.00
C353   C     0.26879   0.83096   0.01091   0.00000  Uiso   1.00
C354   C     0.20731   0.83366   0.09360   0.00000  Uiso   1.00
C355   C     0.07835   0.85411   0.43251   0.00000  Uiso   1.00
C356   C     0.06428   0.86115   0.48559   0.00000  Uiso   1.00
C357   C     0.09806   0.85812   0.01347   0.00000  Uiso   1.00
C358   C     0.16340   0.85198   0.43315   0.00000  Uiso   1.00
C359   C     0.18376   0.84517   0.01476   0.00000  Uiso   1.00
C360   C     0.23370   0.84143   0.48633   0.00000  Uiso   1.00
C361   C     0.24839   0.84953   0.43377   0.00000  Uiso   1.00
C362   C     0.21379   0.85686   0.40823   0.00000  Uiso   1.00
C363   C     0.17147   0.84107   0.06860   0.00000  Uiso   1.00
C364   C     0.25604   0.82754   0.06436   0.00000  Uiso   1.00
Cu365  Cu    0.11978   0.83333   0.25000   0.00000  Uiso   1.00
Cu366  Cu    0.21355   0.83334   0.25000   0.00000  Uiso   1.00
F367   F     0.29127   0.81817   0.08711   0.00000  Uiso   1.00
H368   H     0.24225   0.70397   0.25059   0.00000  Uiso   1.00
H369   H     0.05055   0.85392   0.41246   0.00000  Uiso   1.00
H370   H     0.08397   0.86232   0.05468   0.00000  Uiso   1.00
H371   H     0.02674   0.86825   0.00581   0.00000  Uiso   1.00
H372   H     0.22767   0.86803   0.36949   0.00000  Uiso   1.00
H373   H     0.24222   0.96272   0.25070   0.00000  Uiso   1.00
H374   H     0.30189   0.77832   0.20601   0.00000  Uiso   1.00
H375   H     0.09106   0.70393   0.24949   0.00000  Uiso   1.00
H376   H     0.09104   0.96269   0.24960   0.00000  Uiso   1.00
H377   H     0.27887   0.88947   0.29173   0.00000  Uiso   1.00
H378   H     0.03159   0.88859   0.29346   0.00000  Uiso   1.00
H379   H     0.05537   0.77843   0.20573   0.00000  Uiso   1.00
H380   H     0.28681   0.85087   0.41240   0.00000  Uiso   1.00
H381   H     0.30610   0.82522   0.48840   0.00000  Uiso   1.00
H382   H     0.13413   0.84356   0.09202   0.00000  Uiso   1.00
N383   N     0.04931   0.83332   0.24998   0.00000  Uiso   1.00
N384   N     0.28402   0.83335   0.24999   0.00000  Uiso   1.00
O385   O     0.12708   0.89345   0.25000   0.00000  Uiso   1.00
O386   O     0.20627   0.89346   0.25000   0.00000  Uiso   1.00
O387   O     0.10775   0.83332   0.32549   0.00000  Uiso   1.00
O388   O     0.18694   0.83333   0.32549   0.00000  Uiso   1.00
O389   O     0.12706   0.77321   0.24999   0.00000  Uiso   1.00
O390   O     0.20625   0.77322   0.24999   0.00000  Uiso   1.00
O391   O     0.14640   0.83334   0.17451   0.00000  Uiso   1.00
O392   O     0.22559   0.83335   0.17451   0.00000  Uiso   1.00
C393   C     0.50000   0.91263   0.25005   0.00000  Uiso   1.00
C394   C     0.46109   0.84829   0.40555   0.00000  Uiso   1.00
C395   C     0.54240   0.97872   0.25043   0.00000  Uiso   1.00
C396   C     0.47453   0.83802   0.34954   0.00000  Uiso   1.00
C397   C     0.54241   0.68796   0.25036   0.00000  Uiso   1.00
C398   C     0.49999   0.70941   0.25003   0.00000  Uiso   1.00
C399   C     0.45756   0.68794   0.24976   0.00000  Uiso   1.00
C400   C     0.45755   0.97870   0.24982   0.00000  Uiso   1.00
C401   C     0.49998   0.95725   0.25012   0.00000  Uiso   1.00
C402   C     0.63558   0.86429   0.27350   0.00000  Uiso   1.00
C403   C     0.35162   0.86403   0.27402   0.00000  Uiso   1.00
C404   C     0.48143   0.85159   0.48799   0.00000  Uiso   1.00
C405   C     0.36475   0.80283   0.22553   0.00000  Uiso   1.00
C406   C     0.64848   0.80277   0.22568   0.00000  Uiso   1.00
C407   C     0.49999   0.75404   0.24999   0.00000  Uiso   1.00
C408   C     0.52593   0.83283   0.15017   0.00000  Uiso   1.00
C409   C     0.60213   0.83096   0.01091   0.00000  Uiso   1.00
C410   C     0.54065   0.83366   0.09360   0.00000  Uiso   1.00
C411   C     0.41168   0.85411   0.43251   0.00000  Uiso   1.00
C412   C     0.39762   0.86115   0.48559   0.00000  Uiso   1.00
C413   C     0.43140   0.85812   0.01347   0.00000  Uiso   1.00
C414   C     0.49673   0.85198   0.43315   0.00000  Uiso   1.00
C415   C     0.51710   0.84517   0.01476   0.00000  Uiso   1.00
C416   C     0.56703   0.84143   0.48633   0.00000  Uiso   1.00
C417   C     0.58172   0.84953   0.43377   0.00000  Uiso   1.00
C418   C     0.54712   0.85686   0.40823   0.00000  Uiso   1.00
C419   C     0.50480   0.84107   0.06860   0.00000  Uiso   1.00
C420   C     0.58937   0.82754   0.06436   0.00000  Uiso   1.00
Cu421  Cu    0.45311   0.83333   0.25000   0.00000  Uiso   1.00
Cu422  Cu    0.54689   0.83334   0.25000   0.00000  Uiso   1.00
F423   F     0.62461   0.81817   0.08711   0.00000  Uiso   1.00
H424   H     0.57558   0.70397   0.25059   0.00000  Uiso   1.00
H425   H     0.38388   0.85392   0.41246   0.00000  Uiso   1.00
H426   H     0.41730   0.86232   0.05468   0.00000  Uiso   1.00
H427   H     0.36008   0.86825   0.00581   0.00000  Uiso   1.00
H428   H     0.56101   0.86803   0.36949   0.00000  Uiso   1.00
H429   H     0.57556   0.96272   0.25070   0.00000  Uiso   1.00
H430   H     0.63523   0.77832   0.20601   0.00000  Uiso   1.00
H431   H     0.42439   0.70393   0.24949   0.00000  Uiso   1.00
H432   H     0.42438   0.96269   0.24960   0.00000  Uiso   1.00
H433   H     0.61220   0.88947   0.29173   0.00000  Uiso   1.00
H434   H     0.36492   0.88859   0.29346   0.00000  Uiso   1.00
H435   H     0.38870   0.77843   0.20573   0.00000  Uiso   1.00
H436   H     0.62014   0.85087   0.41240   0.00000  Uiso   1.00
H437   H     0.63943   0.82522   0.48840   0.00000  Uiso   1.00
H438   H     0.46747   0.84356   0.09202   0.00000  Uiso   1.00
N439   N     0.38265   0.83332   0.24998   0.00000  Uiso   1.00
N440   N     0.61735   0.83335   0.24999   0.00000  Uiso   1.00
O441   O     0.46042   0.89345   0.25000   0.00000  Uiso   1.00
O442   O     0.53961   0.89346   0.25000   0.00000  Uiso   1.00
O443   O     0.44108   0.83332   0.32549   0.00000  Uiso   1.00
O444   O     0.52027   0.83333   0.32549   0.00000  Uiso   1.00
O445   O     0.46039   0.77321   0.24999   0.00000  Uiso   1.00
O446   O     0.53958   0.77322   0.24999   0.00000  Uiso   1.00
O447   O     0.47973   0.83334   0.17451   0.00000  Uiso   1.00
O448   O     0.55892   0.83335   0.17451   0.00000  Uiso   1.00
C449   C     0.83333   0.91263   0.25005   0.00000  Uiso   1.00
C450   C     0.79442   0.84829   0.40555   0.00000  Uiso   1.00
C451   C     0.87573   0.97872   0.25043   0.00000  Uiso   1.00
C452   C     0.80786   0.83802   0.34954   0.00000  Uiso   1.00
C453   C     0.87574   0.68796   0.25036   0.00000  Uiso   1.00
C454   C     0.83332   0.70941   0.25003   0.00000  Uiso   1.00
C455   C     0.79089   0.68794   0.24976   0.00000  Uiso   1.00
C456   C     0.79088   0.97870   0.24982   0.00000  Uiso   1.00
C457   C     0.83331   0.95725   0.25012   0.00000  Uiso   1.00
C458   C     0.96891   0.86429   0.27350   0.00000  Uiso   1.00
C459   C     0.68496   0.86403   0.27402   0.00000  Uiso   1.00
C460   C     0.81477   0.85159   0.48799   0.00000  Uiso   1.00
C461   C     0.69808   0.80283   0.22553   0.00000  Uiso   1.00
C462   C     0.98181   0.80277   0.22568   0.00000  Uiso   1.00
C463   C     0.83332   0.75404   0.24999   0.00000  Uiso   1.00
C464   C     0.85927   0.83283   0.15017   0.00000  Uiso   1.00
C465   C     0.93546   0.83096   0.01091   0.00000  Uiso   1.00
C466   C     0.87398   0.83366   0.09360   0.00000  Uiso   1.00
C467   C     0.74501   0.85411   0.43251   0.00000  Uiso   1.00
C468   C     0.73095   0.86115   0.48559   0.00000  Uiso   1.00
C469   C     0.76473   0.85812   0.01347   0.00000  Uiso   1.00
C470   C     0.83006   0.85198   0.43315   0.00000  Uiso   1.00
C471   C     0.85043   0.84517   0.01476   0.00000  Uiso   1.00
C472   C     0.90036   0.84143   0.48633   0.00000  Uiso   1.00
C473   C     0.91505   0.84953   0.43377   0.00000  Uiso   1.00
C474   C     0.88045   0.85686   0.40823   0.00000  Uiso   1.00
C475   C     0.83814   0.84107   0.06860   0.00000  Uiso   1.00
C476   C     0.92270   0.82754   0.06436   0.00000  Uiso   1.00
Cu477  Cu    0.78645   0.83333   0.25000   0.00000  Uiso   1.00
Cu478  Cu    0.88022   0.83334   0.25000   0.00000  Uiso   1.00
F479   F     0.95794   0.81817   0.08711   0.00000  Uiso   1.00
H480   H     0.90891   0.70397   0.25059   0.00000  Uiso   1.00
H481   H     0.71722   0.85392   0.41246   0.00000  Uiso   1.00
H482   H     0.75064   0.86232   0.05468   0.00000  Uiso   1.00
H483   H     0.69341   0.86825   0.00581   0.00000  Uiso   1.00
H484   H     0.89434   0.86803   0.36949   0.00000  Uiso   1.00
H485   H     0.90889   0.96272   0.25070   0.00000  Uiso   1.00
H486   H     0.96856   0.77832   0.20601   0.00000  Uiso   1.00
H487   H     0.75773   0.70393   0.24949   0.00000  Uiso   1.00
H488   H     0.75771   0.96269   0.24960   0.00000  Uiso   1.00
H489   H     0.94554   0.88947   0.29173   0.00000  Uiso   1.00
H490   H     0.69825   0.88859   0.29346   0.00000  Uiso   1.00
H491   H     0.72203   0.77843   0.20573   0.00000  Uiso   1.00
H492   H     0.95348   0.85087   0.41240   0.00000  Uiso   1.00
H493   H     0.97276   0.82522   0.48840   0.00000  Uiso   1.00
H494   H     0.80080   0.84356   0.09202   0.00000  Uiso   1.00
N495   N     0.71598   0.83332   0.24998   0.00000  Uiso   1.00
N496   N     0.95069   0.83335   0.24999   0.00000  Uiso   1.00
O497   O     0.79375   0.89345   0.25000   0.00000  Uiso   1.00
O498   O     0.87294   0.89346   0.25000   0.00000  Uiso   1.00
O499   O     0.77441   0.83332   0.32549   0.00000  Uiso   1.00
O500   O     0.85360   0.83333   0.32549   0.00000  Uiso   1.00
O501   O     0.79373   0.77321   0.24999   0.00000  Uiso   1.00
O502   O     0.87292   0.77322   0.24999   0.00000  Uiso   1.00
O503   O     0.81306   0.83334   0.17451   0.00000  Uiso   1.00
O504   O     0.89225   0.83335   0.17451   0.00000  Uiso   1.00
C505   C     0.16667   0.24596   0.75005   0.00000  Uiso   1.00
C506   C     0.12775   0.18163   0.90555   0.00000  Uiso   1.00
C507   C     0.20906   0.31206   0.75043   0.00000  Uiso   1.00
C508   C     0.14120   0.17136   0.84954   0.00000  Uiso   1.00
C509   C     0.20907   0.02129   0.75036   0.00000  Uiso   1.00
C510   C     0.16665   0.04274   0.75003   0.00000  Uiso   1.00
C511   C     0.12422   0.02127   0.74976   0.00000  Uiso   1.00
C512   C     0.12422   0.31203   0.74982   0.00000  Uiso   1.00
C513   C     0.16664   0.29059   0.75012   0.00000  Uiso   1.00
C514   C     0.30224   0.19762   0.77350   0.00000  Uiso   1.00
C515   C     0.01829   0.19736   0.77402   0.00000  Uiso   1.00
C516   C     0.14810   0.18492   0.98799   0.00000  Uiso   1.00
C517   C     0.03141   0.13616   0.72553   0.00000  Uiso   1.00
C518   C     0.31514   0.13610   0.72568   0.00000  Uiso   1.00
C519   C     0.16666   0.08737   0.74999   0.00000  Uiso   1.00
C520   C     0.19260   0.16616   0.65017   0.00000  Uiso   1.00
C521   C     0.26879   0.16429   0.51091   0.00000  Uiso   1.00
C522   C     0.20731   0.16699   0.59360   0.00000  Uiso   1.00
C523   C     0.07835   0.18744   0.93251   0.00000  Uiso   1.00
C524   C     0.06428   0.19448   0.98559   0.00000  Uiso   1.00
C525   C     0.09806   0.19146   0.51347   0.00000  Uiso   1.00
C526   C     0.16340   0.18531   0.93315   0.00000  Uiso   1.00
C527   C     0.18376   0.17850   0.51476   0.00000  Uiso   1.00
C528   C     0.23370   0.17477   0.98633   0.00000  Uiso   1.00
C529   C     0.24839   0.18286   0.93377   0.00000  Uiso   1.00
C530   C     0.21379   0.19019   0.90823   0.00000  Uiso   1.00
C531   C     0.17147   0.17441   0.56860   0.00000  Uiso   1.00
C532   C     0.25604   0.16087   0.56436   0.00000  Uiso   1.00
Cu533  Cu    0.11978   0.16666   0.75000   0.00000  Uiso   1.00
Cu534  Cu    0.21355   0.16667   0.75000   0.00000  Uiso   1.00
F535   F     0.29127   0.15150   0.58711   0.00000  Uiso   1.00
H536   H     0.24225   0.03731   0.75059   0.00000  Uiso   1.00
H537   H     0.05055   0.18726   0.91246   0.00000  Uiso   1.00
H538   H     0.08397   0.19565   0.55468   0.00000  Uiso   1.00
H539   H     0.02674   0.20158   0.50581   0.00000  Uiso   1.00
H540   H     0.22767   0.20136   0.86949   0.00000  Uiso   1.00
H541   H     0.24222   0.29606   0.75070   0.00000  Uiso   1.00
H542   H     0.30189   0.11165   0.70601   0.00000  Uiso   1.00
H543   H     0.09106   0.03727   0.74949   0.00000  Uiso   1.00
H544   H     0.09104   0.29602   0.74960   0.00000  Uiso   1.00
H545   H     0.27887   0.22281   0.79173   0.00000  Uiso   1.00
H546   H     0.03159   0.22193   0.79346   0.00000  Uiso   1.00
H547   H     0.05537   0.11176   0.70573   0.00000  Uiso   1.00
H548   H     0.28681   0.18420   0.91240   0.00000  Uiso   1.00
H549   H     0.30610   0.15855   0.98840   0.00000  Uiso   1.00
H550   H     0.13413   0.17689   0.59202   0.00000  Uiso   1.00
N551   N     0.04931   0.16666   0.74998   0.00000  Uiso   1.00
N552   N     0.28402   0.16669   0.74999   0.00000  Uiso   1.00
O553   O     0.12708   0.22678   0.75000   0.00000  Uiso   1.00
O554   O     0.20627   0.22679   0.75000   0.00000  Uiso   1.00
O555   O     0.10775   0.16665   0.82549   0.00000  Uiso   1.00
O556   O     0.18694   0.16666   0.82549   0.00000  Uiso   1.00
O557   O     0.12706   0.10654   0.74999   0.00000  Uiso   1.00
O558   O     0.20625   0.10655   0.74999   0.00000  Uiso   1.00
O559   O     0.14640   0.16667   0.67451   0.00000  Uiso   1.00
O560   O     0.22559   0.16668   0.67451   0.00000  Uiso   1.00
C561   C     0.50000   0.24596   0.75005   0.00000  Uiso   1.00
C562   C     0.46109   0.18163   0.90555   0.00000  Uiso   1.00
C563   C     0.54240   0.31206   0.75043   0.00000  Uiso   1.00
C564   C     0.47453   0.17136   0.84954   0.00000  Uiso   1.00
C565   C     0.54241   0.02129   0.75036   0.00000  Uiso   1.00
C566   C     0.49999   0.04274   0.75003   0.00000  Uiso   1.00
C567   C     0.45756   0.02127   0.74976   0.00000  Uiso   1.00
C568   C     0.45755   0.31203   0.74982   0.00000  Uiso   1.00
C569   C     0.49998   0.29059   0.75012   0.00000  Uiso   1.00
C570   C     0.63558   0.19762   0.77350   0.00000  Uiso   1.00
C571   C     0.35162   0.19736   0.77402   0.00000  Uiso   1.00
C572   C     0.48143   0.18492   0.98799   0.00000  Uiso   1.00
C573   C     0.36475   0.13616   0.72553   0.00000  Uiso   1.00
C574   C     0.64848   0.13610   0.72568   0.00000  Uiso   1.00
C575   C     0.49999   0.08737   0.74999   0.00000  Uiso   1.00
C576   C     0.52593   0.16616   0.65017   0.00000  Uiso   1.00
C577   C     0.60213   0.16429   0.51091   0.00000  Uiso   1.00
C578   C     0.54065   0.16699   0.59360   0.00000  Uiso   1.00
C579   C     0.41168   0.18744   0.93251   0.00000  Uiso   1.00
C580   C     0.39762   0.19448   0.98559   0.00000  Uiso   1.00
C581   C     0.43140   0.19146   0.51347   0.00000  Uiso   1.00
C582   C     0.49673   0.18531   0.93315   0.00000  Uiso   1.00
C583   C     0.51710   0.17850   0.51476   0.00000  Uiso   1.00
C584   C     0.56703   0.17477   0.98633   0.00000  Uiso   1.00
C585   C     0.58172   0.18286   0.93377   0.00000  Uiso   1.00
C586   C     0.54712   0.19019   0.90823   0.00000  Uiso   1.00
C587   C     0.50480   0.17441   0.56860   0.00000  Uiso   1.00
C588   C     0.58937   0.16087   0.56436   0.00000  Uiso   1.00
Cu589  Cu    0.45311   0.16666   0.75000   0.00000  Uiso   1.00
Cu590  Cu    0.54689   0.16667   0.75000   0.00000  Uiso   1.00
F591   F     0.62461   0.15150   0.58711   0.00000  Uiso   1.00
H592   H     0.57558   0.03731   0.75059   0.00000  Uiso   1.00
H593   H     0.38388   0.18726   0.91246   0.00000  Uiso   1.00
H594   H     0.41730   0.19565   0.55468   0.00000  Uiso   1.00
H595   H     0.36008   0.20158   0.50581   0.00000  Uiso   1.00
H596   H     0.56101   0.20136   0.86949   0.00000  Uiso   1.00
H597   H     0.57556   0.29606   0.75070   0.00000  Uiso   1.00
H598   H     0.63523   0.11165   0.70601   0.00000  Uiso   1.00
H599   H     0.42439   0.03727   0.74949   0.00000  Uiso   1.00
H600   H     0.42438   0.29602   0.74960   0.00000  Uiso   1.00
H601   H     0.61220   0.22281   0.79173   0.00000  Uiso   1.00
H602   H     0.36492   0.22193   0.79346   0.00000  Uiso   1.00
H603   H     0.38870   0.11176   0.70573   0.00000  Uiso   1.00
H604   H     0.62014   0.18420   0.91240   0.00000  Uiso   1.00
H605   H     0.63943   0.15855   0.98840   0.00000  Uiso   1.00
H606   H     0.46747   0.17689   0.59202   0.00000  Uiso   1.00
N607   N     0.38265   0.16666   0.74998   0.00000  Uiso   1.00
N608   N     0.61735   0.16669   0.74999   0.00000  Uiso   1.00
O609   O     0.46042   0.22678   0.75000   0.00000  Uiso   1.00
O610   O     0.53961   0.22679   0.75000   0.00000  Uiso   1.00
O611   O     0.44108   0.16665   0.82549   0.00000  Uiso   1.00
O612   O     0.52027   0.16666   0.82549   0.00000  Uiso   1.00
O613   O     0.46039   0.10654   0.74999   0.00000  Uiso   1.00
O614   O     0.53958   0.10655   0.74999   0.00000  Uiso   1.00
O615   O     0.47973   0.16667   0.67451   0.00000  Uiso   1.00
O616   O     0.55892   0.16668   0.67451   0.00000  Uiso   1.00
C617   C     0.83333   0.24596   0.75005   0.00000  Uiso   1.00
C618   C     0.79442   0.18163   0.90555   0.00000  Uiso   1.00
C619   C     0.87573   0.31206   0.75043   0.00000  Uiso   1.00
C620   C     0.80786   0.17136   0.84954   0.00000  Uiso   1.00
C621   C     0.87574   0.02129   0.75036   0.00000  Uiso   1.00
C622   C     0.83332   0.04274   0.75003   0.00000  Uiso   1.00
C623   C     0.79089   0.02127   0.74976   0.00000  Uiso   1.00
C624   C     0.79088   0.31203   0.74982   0.00000  Uiso   1.00
C625   C     0.83331   0.29059   0.75012   0.00000  Uiso   1.00
C626   C     0.96891   0.19762   0.77350   0.00000  Uiso   1.00
C627   C     0.68496   0.19736   0.77402   0.00000  Uiso   1.00
C628   C     0.81477   0.18492   0.98799   0.00000  Uiso   1.00
C629   C     0.69808   0.13616   0.72553   0.00000  Uiso   1.00
C630   C     0.98181   0.13610   0.72568   0.00000  Uiso   1.00
C631   C     0.83332   0.08737   0.74999   0.00000  Uiso   1.00
C632   C     0.85927   0.16616   0.65017   0.00000  Uiso   1.00
C633   C     0.93546   0.16429   0.51091   0.00000  Uiso   1.00
C634   C     0.87398   0.16699   0.59360   0.00000  Uiso   1.00
C635   C     0.74501   0.18744   0.93251   0.00000  Uiso   1.00
C636   C     0.73095   0.19448   0.98559   0.00000  Uiso   1.00
C637   C     0.76473   0.19146   0.51347   0.00000  Uiso   1.00
C638   C     0.83006   0.18531   0.93315   0.00000  Uiso   1.00
C639   C     0.85043   0.17850   0.51476   0.00000  Uiso   1.00
C640   C     0.90036   0.17477   0.98633   0.00000  Uiso   1.00
C641   C     0.91505   0.18286   0.93377   0.00000  Uiso   1.00
C642   C     0.88045   0.19019   0.90823   0.00000  Uiso   1.00
C643   C     0.83814   0.17441   0.56860   0.00000  Uiso   1.00
C644   C     0.92270   0.16087   0.56436   0.00000  Uiso   1.00
Cu645  Cu    0.78645   0.16666   0.75000   0.00000  Uiso   1.00
Cu646  Cu    0.88022   0.16667   0.75000   0.00000  Uiso   1.00
F647   F     0.95794   0.15150   0.58711   0.00000  Uiso   1.00
H648   H     0.90891   0.03731   0.75059   0.00000  Uiso   1.00
H649   H     0.71722   0.18726   0.91246   0.00000  Uiso   1.00
H650   H     0.75064   0.19565   0.55468   0.00000  Uiso   1.00
H651   H     0.69341   0.20158   0.50581   0.00000  Uiso   1.00
H652   H     0.89434   0.20136   0.86949   0.00000  Uiso   1.00
H653   H     0.90889   0.29606   0.75070   0.00000  Uiso   1.00
H654   H     0.96856   0.11165   0.70601   0.00000  Uiso   1.00
H655   H     0.75773   0.03727   0.74949   0.00000  Uiso   1.00
H656   H     0.75771   0.29602   0.74960   0.00000  Uiso   1.00
H657   H     0.94554   0.22281   0.79173   0.00000  Uiso   1.00
H658   H     0.69825   0.22193   0.79346   0.00000  Uiso   1.00
H659   H     0.72203   0.11176   0.70573   0.00000  Uiso   1.00
H660   H     0.95348   0.18420   0.91240   0.00000  Uiso   1.00
H661   H     0.97276   0.15855   0.98840   0.00000  Uiso   1.00
H662   H     0.80080   0.17689   0.59202   0.00000  Uiso   1.00
N663   N     0.71598   0.16666   0.74998   0.00000  Uiso   1.00
N664   N     0.95069   0.16669   0.74999   0.00000  Uiso   1.00
O665   O     0.79375   0.22678   0.75000   0.00000  Uiso   1.00
O666   O     0.87294   0.22679   0.75000   0.00000  Uiso   1.00
O667   O     0.77441   0.16665   0.82549   0.00000  Uiso   1.00
O668   O     0.85360   0.16666   0.82549   0.00000  Uiso   1.00
O669   O     0.79373   0.10654   0.74999   0.00000  Uiso   1.00
O670   O     0.87292   0.10655   0.74999   0.00000  Uiso   1.00
O671   O     0.81306   0.16667   0.67451   0.00000  Uiso   1.00
O672   O     0.89225   0.16668   0.67451   0.00000  Uiso   1.00
C673   C     0.16667   0.57930   0.75005   0.00000  Uiso   1.00
C674   C     0.12775   0.51496   0.90555   0.00000  Uiso   1.00
C675   C     0.20906   0.64539   0.75043   0.00000  Uiso   1.00
C676   C     0.14120   0.50469   0.84954   0.00000  Uiso   1.00
C677   C     0.20907   0.35463   0.75036   0.00000  Uiso   1.00
C678   C     0.16665   0.37608   0.75003   0.00000  Uiso   1.00
C679   C     0.12422   0.35460   0.74976   0.00000  Uiso   1.00
C680   C     0.12422   0.64537   0.74982   0.00000  Uiso   1.00
C681   C     0.16664   0.62392   0.75012   0.00000  Uiso   1.00
C682   C     0.30224   0.53095   0.77350   0.00000  Uiso   1.00
C683   C     0.01829   0.53070   0.77402   0.00000  Uiso   1.00
C684   C     0.14810   0.51826   0.98799   0.00000  Uiso   1.00
C685   C     0.03141   0.46949   0.72553   0.00000  Uiso   1.00
C686   C     0.31514   0.46944   0.72568   0.00000  Uiso   1.00
C687   C     0.16666   0.42070   0.74999   0.00000  Uiso   1.00
C688   C     0.19260   0.49949   0.65017   0.00000  Uiso   1.00
C689   C     0.26879   0.49763   0.51091   0.00000  Uiso   1.00
C690   C     0.20731   0.50033   0.59360   0.00000  Uiso   1.00
C691   C     0.07835   0.52078   0.93251   0.00000  Uiso   1.00
C692   C     0.06428   0.52781   0.98559   0.00000  Uiso   1.00
C693   C     0.09806   0.52479   0.51347   0.00000  Uiso   1.00
C694   C     0.16340   0.51864   0.93315   0.00000  Uiso   1.00
C695   C     0.18376   0.51184   0.51476   0.00000  Uiso   1.00
C696   C     0.23370   0.50810   0.98633   0.00000  Uiso   1.00
C697   C     0.24839   0.51619   0.93377   0.00000  Uiso   1.00
C698   C     0.21379   0.52352   0.90823   0.00000  Uiso   1.00
C699   C     0.17147   0.50774   0.56860   0.00000  Uiso   1.00
C700   C     0.25604   0.49420   0.56436   0.00000  Uiso   1.00
Cu701  Cu    0.11978   0.49999   0.75000   0.00000  Uiso   1.00
Cu702  Cu    0.21355   0.50001   0.75000   0.00000  Uiso   1.00
F703   F     0.29127   0.48484   0.58711   0.00000  Uiso   1.00
H704   H     0.24225   0.37064   0.75059   0.00000  Uiso   1.00
H705   H     0.05055   0.52059   0.91246   0.00000  Uiso   1.00
H706   H     0.08397   0.52899   0.55468   0.00000  Uiso   1.00
H707   H     0.02674   0.53491   0.50581   0.00000  Uiso   1.00
H708   H     0.22767   0.53470   0.86949   0.00000  Uiso   1.00
H709   H     0.24222   0.62939   0.75070   0.00000  Uiso   1.00
H710   H     0.30189   0.44499   0.70601   0.00000  Uiso   1.00
H711   H     0.09106   0.37060   0.74949   0.00000  Uiso   1.00
H712   H     0.09104   0.62935   0.74960   0.00000  Uiso   1.00
H713   H     0.27887   0.55614   0.79173   0.00000  Uiso   1.00
H714   H     0.03159   0.55526   0.79346   0.00000  Uiso   1.00
H715   H     0.05537   0.44510   0.70573   0.00000  Uiso   1.00
H716   H     0.28681   0.51754   0.91240   0.00000  Uiso   1.00
H717   H     0.30610   0.49189   0.98840   0.00000  Uiso   1.00
H718   H     0.13413   0.51022   0.59202   0.00000  Uiso   1.00
N719   N     0.04931   0.49999   0.74998   0.00000  Uiso   1.00
N720   N     0.28402   0.50002   0.74999   0.00000  Uiso   1.00
O721   O     0.12708   0.56011   0.75000   0.00000  Uiso   1.00
O722   O     0.20627   0.56012   0.75000   0.00000  Uiso   1.00
O723   O     0.10775   0.49998   0.82549   0.00000  Uiso   1.00
O724   O     0.18694   0.49999   0.82549   0.00000  Uiso   1.00
O725   O     0.12706   0.43988   0.74999   0.00000  Uiso   1.00
O726   O     0.20625   0.43989   0.74999   0.00000  Uiso   1.00
O727   O     0.14640   0.50001   0.67451   0.00000  Uiso   1.00
O728   O     0.22559   0.50002   0.67451   0.00000  Uiso   1.00
C729   C     0.50000   0.57930   0.75005   0.00000  Uiso   1.00
C730   C     0.46109   0.51496   0.90555   0.00000  Uiso   1.00
C731   C     0.54240   0.64539   0.75043   0.00000  Uiso   1.00
C732   C     0.47453   0.50469   0.84954   0.00000  Uiso   1.00
C733   C     0.54241   0.35463   0.75036   0.00000  Uiso   1.00
C734   C     0.49999   0.37608   0.75003   0.00000  Uiso   1.00
C735   C     0.45756   0.35460   0.74976   0.00000  Uiso   1.00
C736   C     0.45755   0.64537   0.74982   0.00000  Uiso   1.00
C737   C     0.49998   0.62392   0.75012   0.00000  Uiso   1.00
C738   C     0.63558   0.53095   0.77350   0.00000  Uiso   1.00
C739   C     0.35162   0.53070   0.77402   0.00000  Uiso   1.00
C740   C     0.48143   0.51826   0.98799   0.00000  Uiso   1.00
C741   C     0.36475   0.46949   0.72553   0.00000  Uiso   1.00
C742   C     0.64848   0.46944   0.72568   0.00000  Uiso   1.00
C743   C     0.49999   0.42070   0.74999   0.00000  Uiso   1.00
C744   C     0.52593   0.49949   0.65017   0.00000  Uiso   1.00
C745   C     0.60213   0.49763   0.51091   0.00000  Uiso   1.00
C746   C     0.54065   0.50033   0.59360   0.00000  Uiso   1.00
C747   C     0.41168   0.52078   0.93251   0.00000  Uiso   1.00
C748   C     0.39762   0.52781   0.98559   0.00000  Uiso   1.00
C749   C     0.43140   0.52479   0.51347   0.00000  Uiso   1.00
C750   C     0.49673   0.51864   0.93315   0.00000  Uiso   1.00
C751   C     0.51710   0.51184   0.51476   0.00000  Uiso   1.00
C752   C     0.56703   0.50810   0.98633   0.00000  Uiso   1.00
C753   C     0.58172   0.51619   0.93377   0.00000  Uiso   1.00
C754   C     0.54712   0.52352   0.90823   0.00000  Uiso   1.00
C755   C     0.50480   0.50774   0.56860   0.00000  Uiso   1.00
C756   C     0.58937   0.49420   0.56436   0.00000  Uiso   1.00
Cu757  Cu    0.45311   0.49999   0.75000   0.00000  Uiso   1.00
Cu758  Cu    0.54689   0.50001   0.75000   0.00000  Uiso   1.00
F759   F     0.62461   0.48484   0.58711   0.00000  Uiso   1.00
H760   H     0.57558   0.37064   0.75059   0.00000  Uiso   1.00
H761   H     0.38388   0.52059   0.91246   0.00000  Uiso   1.00
H762   H     0.41730   0.52899   0.55468   0.00000  Uiso   1.00
H763   H     0.36008   0.53491   0.50581   0.00000  Uiso   1.00
H764   H     0.56101   0.53470   0.86949   0.00000  Uiso   1.00
H765   H     0.57556   0.62939   0.75070   0.00000  Uiso   1.00
H766   H     0.63523   0.44499   0.70601   0.00000  Uiso   1.00
H767   H     0.42439   0.37060   0.74949   0.00000  Uiso   1.00
H768   H     0.42438   0.62935   0.74960   0.00000  Uiso   1.00
H769   H     0.61220   0.55614   0.79173   0.00000  Uiso   1.00
H770   H     0.36492   0.55526   0.79346   0.00000  Uiso   1.00
H771   H     0.38870   0.44510   0.70573   0.00000  Uiso   1.00
H772   H     0.62014   0.51754   0.91240   0.00000  Uiso   1.00
H773   H     0.63943   0.49189   0.98840   0.00000  Uiso   1.00
H774   H     0.46747   0.51022   0.59202   0.00000  Uiso   1.00
N775   N     0.38265   0.49999   0.74998   0.00000  Uiso   1.00
N776   N     0.61735   0.50002   0.74999   0.00000  Uiso   1.00
O777   O     0.46042   0.56011   0.75000   0.00000  Uiso   1.00
O778   O     0.53961   0.56012   0.75000   0.00000  Uiso   1.00
O779   O     0.44108   0.49998   0.82549   0.00000  Uiso   1.00
O780   O     0.52027   0.49999   0.82549   0.00000  Uiso   1.00
O781   O     0.46039   0.43988   0.74999   0.00000  Uiso   1.00
O782   O     0.53958   0.43989   0.74999   0.00000  Uiso   1.00
O783   O     0.47973   0.50001   0.67451   0.00000  Uiso   1.00
O784   O     0.55892   0.50002   0.67451   0.00000  Uiso   1.00
C785   C     0.83333   0.57930   0.75005   0.00000  Uiso   1.00
C786   C     0.79442   0.51496   0.90555   0.00000  Uiso   1.00
C787   C     0.87573   0.64539   0.75043   0.00000  Uiso   1.00
C788   C     0.80786   0.50469   0.84954   0.00000  Uiso   1.00
C789   C     0.87574   0.35463   0.75036   0.00000  Uiso   1.00
C790   C     0.83332   0.37608   0.75003   0.00000  Uiso   1.00
C791   C     0.79089   0.35460   0.74976   0.00000  Uiso   1.00
C792   C     0.79088   0.64537   0.74982   0.00000  Uiso   1.00
C793   C     0.83331   0.62392   0.75012   0.00000  Uiso   1.00
C794   C     0.96891   0.53095   0.77350   0.00000  Uiso   1.00
C795   C     0.68496   0.53070   0.77402   0.00000  Uiso   1.00
C796   C     0.81477   0.51826   0.98799   0.00000  Uiso   1.00
C797   C     0.69808   0.46949   0.72553   0.00000  Uiso   1.00
C798   C     0.98181   0.46944   0.72568   0.00000  Uiso   1.00
C799   C     0.83332   0.42070   0.74999   0.00000  Uiso   1.00
C800   C     0.85927   0.49949   0.65017   0.00000  Uiso   1.00
C801   C     0.93546   0.49763   0.51091   0.00000  Uiso   1.00
C802   C     0.87398   0.50033   0.59360   0.00000  Uiso   1.00
C803   C     0.74501   0.52078   0.93251   0.00000  Uiso   1.00
C804   C     0.73095   0.52781   0.98559   0.00000  Uiso   1.00
C805   C     0.76473   0.52479   0.51347   0.00000  Uiso   1.00
C806   C     0.83006   0.51864   0.93315   0.00000  Uiso   1.00
C807   C     0.85043   0.51184   0.51476   0.00000  Uiso   1.00
C808   C     0.90036   0.50810   0.98633   0.00000  Uiso   1.00
C809   C     0.91505   0.51619   0.93377   0.00000  Uiso   1.00
C810   C     0.88045   0.52352   0.90823   0.00000  Uiso   1.00
C811   C     0.83814   0.50774   0.56860   0.00000  Uiso   1.00
C812   C     0.92270   0.49420   0.56436   0.00000  Uiso   1.00
Cu813  Cu    0.78645   0.49999   0.75000   0.00000  Uiso   1.00
Cu814  Cu    0.88022   0.50001   0.75000   0.00000  Uiso   1.00
F815   F     0.95794   0.48484   0.58711   0.00000  Uiso   1.00
H816   H     0.90891   0.37064   0.75059   0.00000  Uiso   1.00
H817   H     0.71722   0.52059   0.91246   0.00000  Uiso   1.00
H818   H     0.75064   0.52899   0.55468   0.00000  Uiso   1.00
H819   H     0.69341   0.53491   0.50581   0.00000  Uiso   1.00
H820   H     0.89434   0.53470   0.86949   0.00000  Uiso   1.00
H821   H     0.90889   0.62939   0.75070   0.00000  Uiso   1.00
H822   H     0.96856   0.44499   0.70601   0.00000  Uiso   1.00
H823   H     0.75773   0.37060   0.74949   0.00000  Uiso   1.00
H824   H     0.75771   0.62935   0.74960   0.00000  Uiso   1.00
H825   H     0.94554   0.55614   0.79173   0.00000  Uiso   1.00
H826   H     0.69825   0.55526   0.79346   0.00000  Uiso   1.00
H827   H     0.72203   0.44510   0.70573   0.00000  Uiso   1.00
H828   H     0.95348   0.51754   0.91240   0.00000  Uiso   1.00
H829   H     0.97276   0.49189   0.98840   0.00000  Uiso   1.00
H830   H     0.80080   0.51022   0.59202   0.00000  Uiso   1.00
N831   N     0.71598   0.49999   0.74998   0.00000  Uiso   1.00
N832   N     0.95069   0.50002   0.74999   0.00000  Uiso   1.00
O833   O     0.79375   0.56011   0.75000   0.00000  Uiso   1.00
O834   O     0.87294   0.56012   0.75000   0.00000  Uiso   1.00
O835   O     0.77441   0.49998   0.82549   0.00000  Uiso   1.00
O836   O     0.85360   0.49999   0.82549   0.00000  Uiso   1.00
O837   O     0.79373   0.43988   0.74999   0.00000  Uiso   1.00
O838   O     0.87292   0.43989   0.74999   0.00000  Uiso   1.00
O839   O     0.81306   0.50001   0.67451   0.00000  Uiso   1.00
O840   O     0.89225   0.50002   0.67451   0.00000  Uiso   1.00
C841   C     0.16667   0.91263   0.75005   0.00000  Uiso   1.00
C842   C     0.12775   0.84829   0.90555   0.00000  Uiso   1.00
C843   C     0.20906   0.97872   0.75043   0.00000  Uiso   1.00
C844   C     0.14120   0.83802   0.84954   0.00000  Uiso   1.00
C845   C     0.20907   0.68796   0.75036   0.00000  Uiso   1.00
C846   C     0.16665   0.70941   0.75003   0.00000  Uiso   1.00
C847   C     0.12422   0.68794   0.74976   0.00000  Uiso   1.00
C848   C     0.12422   0.97870   0.74982   0.00000  Uiso   1.00
C849   C     0.16664   0.95725   0.75012   0.00000  Uiso   1.00
C850   C     0.30224   0.86429   0.77350   0.00000  Uiso   1.00
C851   C     0.01829   0.86403   0.77402   0.00000  Uiso   1.00
C852   C     0.14810   0.85159   0.98799   0.00000  Uiso   1.00
C853   C     0.03141   0.80283   0.72553   0.00000  Uiso   1.00
C854   C     0.31514   0.80277   0.72568   0.00000  Uiso   1.00
C855   C     0.16666   0.75404   0.74999   0.00000  Uiso   1.00
C856   C     0.19260   0.83283   0.65017   0.00000  Uiso   1.00
C857   C     0.26879   0.83096   0.51091   0.00000  Uiso   1.00
C858   C     0.20731   0.83366   0.59360   0.00000  Uiso   1.00
C859   C     0.07835   0.85411   0.93251   0.00000  Uiso   1.00
C860   C     0.06428   0.86115   0.98559   0.00000  Uiso   1.00
C861   C     0.09806   0.85812   0.51347   0.00000  Uiso   1.00
C862   C     0.16340   0.85198   0.93315   0.00000  Uiso   1.00
C863   C     0.18376   0.84517   0.51476   0.00000  Uiso   1.00
C864   C     0.23370   0.84143   0.98633   0.00000  Uiso   1.00
C865   C     0.24839   0.84953   0.93377   0.00000  Uiso   1.00
C866   C     0.21379   0.85686   0.90823   0.00000  Uiso   1.00
C867   C     0.17147   0.84107   0.56860   0.00000  Uiso   1.00
C868   C     0.25604   0.82754   0.56436   0.00000  Uiso   1.00
Cu869  Cu    0.11978   0.83333   0.75000   0.00000  Uiso   1.00
Cu870  Cu    0.21355   0.83334   0.75000   0.00000  Uiso   1.00
F871   F     0.29127   0.81817   0.58711   0.00000  Uiso   1.00
H872   H     0.24225   0.70397   0.75059   0.00000  Uiso   1.00
H873   H     0.05055   0.85392   0.91246   0.00000  Uiso   1.00
H874   H     0.08397   0.86232   0.55468   0.00000  Uiso   1.00
H875   H     0.02674   0.86825   0.50581   0.00000  Uiso   1.00
H876   H     0.22767   0.86803   0.86949   0.00000  Uiso   1.00
H877   H     0.24222   0.96272   0.75070   0.00000  Uiso   1.00
H878   H     0.30189   0.77832   0.70601   0.00000  Uiso   1.00
H879   H     0.09106   0.70393   0.74949   0.00000  Uiso   1.00
H880   H     0.09104   0.96269   0.74960   0.00000  Uiso   1.00
H881   H     0.27887   0.88947   0.79173   0.00000  Uiso   1.00
H882   H     0.03159   0.88859   0.79346   0.00000  Uiso   1.00
H883   H     0.05537   0.77843   0.70573   0.00000  Uiso   1.00
H884   H     0.28681   0.85087   0.91240   0.00000  Uiso   1.00
H885   H     0.30610   0.82522   0.98840   0.00000  Uiso   1.00
H886   H     0.13413   0.84356   0.59202   0.00000  Uiso   1.00
N887   N     0.04931   0.83332   0.74998   0.00000  Uiso   1.00
N888   N     0.28402   0.83335   0.74999   0.00000  Uiso   1.00
O889   O     0.12708   0.89345   0.75000   0.00000  Uiso   1.00
O890   O     0.20627   0.89346   0.75000   0.00000  Uiso   1.00
O891   O     0.10775   0.83332   0.82549   0.00000  Uiso   1.00
O892   O     0.18694   0.83333   0.82549   0.00000  Uiso   1.00
O893   O     0.12706   0.77321   0.74999   0.00000  Uiso   1.00
O894   O     0.20625   0.77322   0.74999   0.00000  Uiso   1.00
O895   O     0.14640   0.83334   0.67451   0.00000  Uiso   1.00
O896   O     0.22559   0.83335   0.67451   0.00000  Uiso   1.00
C897   C     0.50000   0.91263   0.75005   0.00000  Uiso   1.00
C898   C     0.46109   0.84829   0.90555   0.00000  Uiso   1.00
C899   C     0.54240   0.97872   0.75043   0.00000  Uiso   1.00
C900   C     0.47453   0.83802   0.84954   0.00000  Uiso   1.00
C901   C     0.54241   0.68796   0.75036   0.00000  Uiso   1.00
C902   C     0.49999   0.70941   0.75003   0.00000  Uiso   1.00
C903   C     0.45756   0.68794   0.74976   0.00000  Uiso   1.00
C904   C     0.45755   0.97870   0.74982   0.00000  Uiso   1.00
C905   C     0.49998   0.95725   0.75012   0.00000  Uiso   1.00
C906   C     0.63558   0.86429   0.77350   0.00000  Uiso   1.00
C907   C     0.35162   0.86403   0.77402   0.00000  Uiso   1.00
C908   C     0.48143   0.85159   0.98799   0.00000  Uiso   1.00
C909   C     0.36475   0.80283   0.72553   0.00000  Uiso   1.00
C910   C     0.64848   0.80277   0.72568   0.00000  Uiso   1.00
C911   C     0.49999   0.75404   0.74999   0.00000  Uiso   1.00
C912   C     0.52593   0.83283   0.65017   0.00000  Uiso   1.00
C913   C     0.60213   0.83096   0.51091   0.00000  Uiso   1.00
C914   C     0.54065   0.83366   0.59360   0.00000  Uiso   1.00
C915   C     0.41168   0.85411   0.93251   0.00000  Uiso   1.00
C916   C     0.39762   0.86115   0.98559   0.00000  Uiso   1.00
C917   C     0.43140   0.85812   0.51347   0.00000  Uiso   1.00
C918   C     0.49673   0.85198   0.93315   0.00000  Uiso   1.00
C919   C     0.51710   0.84517   0.51476   0.00000  Uiso   1.00
C920   C     0.56703   0.84143   0.98633   0.00000  Uiso   1.00
C921   C     0.58172   0.84953   0.93377   0.00000  Uiso   1.00
C922   C     0.54712   0.85686   0.90823   0.00000  Uiso   1.00
C923   C     0.50480   0.84107   0.56860   0.00000  Uiso   1.00
C924   C     0.58937   0.82754   0.56436   0.00000  Uiso   1.00
Cu925  Cu    0.45311   0.83333   0.75000   0.00000  Uiso   1.00
Cu926  Cu    0.54689   0.83334   0.75000   0.00000  Uiso   1.00
F927   F     0.62461   0.81817   0.58711   0.00000  Uiso   1.00
H928   H     0.57558   0.70397   0.75059   0.00000  Uiso   1.00
H929   H     0.38388   0.85392   0.91246   0.00000  Uiso   1.00
H930   H     0.41730   0.86232   0.55468   0.00000  Uiso   1.00
H931   H     0.36008   0.86825   0.50581   0.00000  Uiso   1.00
H932   H     0.56101   0.86803   0.86949   0.00000  Uiso   1.00
H933   H     0.57556   0.96272   0.75070   0.00000  Uiso   1.00
H934   H     0.63523   0.77832   0.70601   0.00000  Uiso   1.00
H935   H     0.42439   0.70393   0.74949   0.00000  Uiso   1.00
H936   H     0.42438   0.96269   0.74960   0.00000  Uiso   1.00
H937   H     0.61220   0.88947   0.79173   0.00000  Uiso   1.00
H938   H     0.36492   0.88859   0.79346   0.00000  Uiso   1.00
H939   H     0.38870   0.77843   0.70573   0.00000  Uiso   1.00
H940   H     0.62014   0.85087   0.91240   0.00000  Uiso   1.00
H941   H     0.63943   0.82522   0.98840   0.00000  Uiso   1.00
H942   H     0.46747   0.84356   0.59202   0.00000  Uiso   1.00
N943   N     0.38265   0.83332   0.74998   0.00000  Uiso   1.00
N944   N     0.61735   0.83335   0.74999   0.00000  Uiso   1.00
O945   O     0.46042   0.89345   0.75000   0.00000  Uiso   1.00
O946   O     0.53961   0.89346   0.75000   0.00000  Uiso   1.00
O947   O     0.44108   0.83332   0.82549   0.00000  Uiso   1.00
O948   O     0.52027   0.83333   0.82549   0.00000  Uiso   1.00
O949   O     0.46039   0.77321   0.74999   0.00000  Uiso   1.00
O950   O     0.53958   0.77322   0.74999   0.00000  Uiso   1.00
O951   O     0.47973   0.83334   0.67451   0.00000  Uiso   1.00
O952   O     0.55892   0.83335   0.67451   0.00000  Uiso   1.00
C953   C     0.83333   0.91263   0.75005   0.00000  Uiso   1.00
C954   C     0.79442   0.84829   0.90555   0.00000  Uiso   1.00
C955   C     0.87573   0.97872   0.75043   0.00000  Uiso   1.00
C956   C     0.80786   0.83802   0.84954   0.00000  Uiso   1.00
C957   C     0.87574   0.68796   0.75036   0.00000  Uiso   1.00
C958   C     0.83332   0.70941   0.75003   0.00000  Uiso   1.00
C959   C     0.79089   0.68794   0.74976   0.00000  Uiso   1.00
C960   C     0.79088   0.97870   0.74982   0.00000  Uiso   1.00
C961   C     0.83331   0.95725   0.75012   0.00000  Uiso   1.00
C962   C     0.96891   0.86429   0.77350   0.00000  Uiso   1.00
C963   C     0.68496   0.86403   0.77402   0.00000  Uiso   1.00
C964   C     0.81477   0.85159   0.98799   0.00000  Uiso   1.00
C965   C     0.69808   0.80283   0.72553   0.00000  Uiso   1.00
C966   C     0.98181   0.80277   0.72568   0.00000  Uiso   1.00
C967   C     0.83332   0.75404   0.74999   0.00000  Uiso   1.00
C968   C     0.85927   0.83283   0.65017   0.00000  Uiso   1.00
C969   C     0.93546   0.83096   0.51091   0.00000  Uiso   1.00
C970   C     0.87398   0.83366   0.59360   0.00000  Uiso   1.00
C971   C     0.74501   0.85411   0.93251   0.00000  Uiso   1.00
C972   C     0.73095   0.86115   0.98559   0.00000  Uiso   1.00
C973   C     0.76473   0.85812   0.51347   0.00000  Uiso   1.00
C974   C     0.83006   0.85198   0.93315   0.00000  Uiso   1.00
C975   C     0.85043   0.84517   0.51476   0.00000  Uiso   1.00
C976   C     0.90036   0.84143   0.98633   0.00000  Uiso   1.00
C977   C     0.91505   0.84953   0.93377   0.00000  Uiso   1.00
C978   C     0.88045   0.85686   0.90823   0.00000  Uiso   1.00
C979   C     0.83814   0.84107   0.56860   0.00000  Uiso   1.00
C980   C     0.92270   0.82754   0.56436   0.00000  Uiso   1.00
Cu981  Cu    0.78645   0.83333   0.75000   0.00000  Uiso   1.00
Cu982  Cu    0.88022   0.83334   0.75000   0.00000  Uiso   1.00
F983   F     0.95794   0.81817   0.58711   0.00000  Uiso   1.00
H984   H     0.90891   0.70397   0.75059   0.00000  Uiso   1.00
H985   H     0.71722   0.85392   0.91246   0.00000  Uiso   1.00
H986   H     0.75064   0.86232   0.55468   0.00000  Uiso   1.00
H987   H     0.69341   0.86825   0.50581   0.00000  Uiso   1.00
H988   H     0.89434   0.86803   0.86949   0.00000  Uiso   1.00
H989   H     0.90889   0.96272   0.75070   0.00000  Uiso   1.00
H990   H     0.96856   0.77832   0.70601   0.00000  Uiso   1.00
H991   H     0.75773   0.70393   0.74949   0.00000  Uiso   1.00
H992   H     0.75771   0.96269   0.74960   0.00000  Uiso   1.00
H993   H     0.94554   0.88947   0.79173   0.00000  Uiso   1.00
H994   H     0.69825   0.88859   0.79346   0.00000  Uiso   1.00
H995   H     0.72203   0.77843   0.70573   0.00000  Uiso   1.00
H996   H     0.95348   0.85087   0.91240   0.00000  Uiso   1.00
H997   H     0.97276   0.82522   0.98840   0.00000  Uiso   1.00
H998   H     0.80080   0.84356   0.59202   0.00000  Uiso   1.00
N999   N     0.71598   0.83332   0.74998   0.00000  Uiso   1.00
N1000  N     0.95069   0.83335   0.74999   0.00000  Uiso   1.00
O1001  O     0.79375   0.89345   0.75000   0.00000  Uiso   1.00
O1002  O     0.87294   0.89346   0.75000   0.00000  Uiso   1.00
O1003  O     0.77441   0.83332   0.82549   0.00000  Uiso   1.00
O1004  O     0.85360   0.83333   0.82549   0.00000  Uiso   1.00
O1005  O     0.79373   0.77321   0.74999   0.00000  Uiso   1.00
O1006  O     0.87292   0.77322   0.74999   0.00000  Uiso   1.00
O1007  O     0.81306   0.83334   0.67451   0.00000  Uiso   1.00
O1008  O     0.89225   0.83335   0.67451   0.00000  Uiso   1.00
loop_
_geom_bond_atom_site_label_1
_geom_bond_atom_site_label_2
_geom_bond_distance
_geom_bond_site_symmetry_2
_ccdc_geom_bond_type
C1     O50     1.292   .     A
C1     C9      1.450   .     S
C1     O49     1.292   .     A
C2     C22     1.430   .     A
C2     C4      1.486   .     S
C2     C19     1.403   .     A
C3     C9      1.401   .     A
C3     H37     1.083   .     S
C3     C173    1.384   .     S
C4     O52     1.290   .     A
C4     O51     1.310   .     A
C5     H32     1.083   .     S
C5     C6      1.401   .     A
C5     C339    1.384   1_545 S
C6     C7      1.401   .     A
C6     C15     1.450   .     S
C7     H39     1.083   .     S
C7     C344    1.384   1_545 S
C8     H40     1.083   .     S
C8     C9      1.401   .     A
C8     C175    1.384   .     S
C10    H41     1.080   .     S
C10    N48     1.368   .     A
C10    C67     1.416   .     S
C11    N47     1.367   .     A
C11    H42     1.081   .     S
C11    C122    1.416   1_455 S
C12    C22     1.418   .     A
C12    C525    1.413   .     S
C12    C527    1.425   .     S
C13    H43     1.081   .     S
C13    N47     1.368   .     A
C13    C126    1.417   1_455 S
C14    H38     1.081   .     S
C14    N48     1.367   .     A
C14    C69     1.417   .     S
C15    O53     1.292   .     A
C15    O54     1.292   .     A
C16    O56     1.296   .     A
C16    O55     1.295   .     A
C16    C18     1.464   .     S
C17    C28     1.388   .     A
C17    C528    1.396   1_554 S
C17    H549    1.081   1_554 S
C18    C28     1.403   .     A
C18    C27     1.401   .     A
C19    C20     1.391   .     A
C19    H33     1.083   .     S
C20    C525    1.389   .     S
C20    H539    1.079   .     S
C21    H34     1.077   .     S
C21    C524    1.389   1_554 S
C21    C516    1.413   1_554 S
C22    C26     1.413   .     A
C23    C27     1.401   .     A
C23    C516    1.425   1_554 S
C23    C528    1.418   1_554 S
C24    C25     1.386   .     A
C24    C527    1.418   .     S
C24    C521    1.396   .     S
C25    H44     1.085   .     S
C25    C26     1.380   .     A
C26    H36     1.071   .     S
C27    H46     1.075   .     S
C28    F31     1.358   .     S
Cu29   O51     1.968   .     S
Cu29   O49     1.965   .     S
Cu29   Cu30    2.681   .     S
Cu29   O53     1.965   .     S
Cu29   N47     2.015   .     S
Cu29   O55     1.960   .     S
Cu30   O54     1.965   .     S
Cu30   N48     2.015   .     S
Cu30   O50     1.965   .     S
Cu30   O56     1.968   .     S
Cu30   O52     1.960   .     S
H35    C524    1.079   1_554 S
H45    C521    1.081   .     S
C57    O106    1.292   .     A
C57    C65     1.450   .     S
C57    O105    1.292   .     A
C58    C78     1.430   .     A
C58    C60     1.486   .     S
C58    C75     1.403   .     A
C59    C65     1.401   .     A
C59    H93     1.083   .     S
C59    C229    1.384   .     S
C60    O108    1.290   .     A
C60    O107    1.310   .     A
C61    H88     1.083   .     S
C61    C62     1.401   .     A
C61    C395    1.384   1_545 S
C62    C63     1.401   .     A
C62    C71     1.450   .     S
C63    H95     1.083   .     S
C63    C400    1.384   1_545 S
C64    H96     1.083   .     S
C64    C65     1.401   .     A
C64    C231    1.384   .     S
C66    H97     1.080   .     S
C66    N104    1.368   .     A
C66    C123    1.416   .     S
C67    N103    1.367   .     A
C67    H98     1.081   .     S
C68    C78     1.418   .     A
C68    C581    1.413   .     S
C68    C583    1.425   .     S
C69    H99     1.081   .     S
C69    N103    1.368   .     A
C70    H94     1.081   .     S
C70    N104    1.367   .     A
C70    C125    1.417   .     S
C71    O109    1.292   .     A
C71    O110    1.292   .     A
C72    O112    1.296   .     A
C72    O111    1.295   .     A
C72    C74     1.464   .     S
C73    C84     1.388   .     A
C73    C584    1.396   1_554 S
C73    H605    1.081   1_554 S
C74    C84     1.403   .     A
C74    C83     1.401   .     A
C75    C76     1.391   .     A
C75    H89     1.083   .     S
C76    C581    1.389   .     S
C76    H595    1.079   .     S
C77    H90     1.077   .     S
C77    C580    1.389   1_554 S
C77    C572    1.413   1_554 S
C78    C82     1.413   .     A
C79    C83     1.401   .     A
C79    C572    1.425   1_554 S
C79    C584    1.418   1_554 S
C80    C81     1.386   .     A
C80    C583    1.418   .     S
C80    C577    1.396   .     S
C81    H100    1.085   .     S
C81    C82     1.380   .     A
C82    H92     1.071   .     S
C83    H102    1.075   .     S
C84    F87     1.358   .     S
Cu85   O107    1.968   .     S
Cu85   O105    1.965   .     S
Cu85   Cu86    2.681   .     S
Cu85   O109    1.965   .     S
Cu85   N103    2.015   .     S
Cu85   O111    1.960   .     S
Cu86   O110    1.965   .     S
Cu86   N104    2.015   .     S
Cu86   O106    1.965   .     S
Cu86   O112    1.968   .     S
Cu86   O108    1.960   .     S
H91    C580    1.079   1_554 S
H101   C577    1.081   .     S
C113   O162    1.292   .     A
C113   C121    1.450   .     S
C113   O161    1.292   .     A
C114   C134    1.430   .     A
C114   C116    1.486   .     S
C114   C131    1.403   .     A
C115   C121    1.401   .     A
C115   H149    1.083   .     S
C115   C285    1.384   .     S
C116   O164    1.290   .     A
C116   O163    1.310   .     A
C117   H144    1.083   .     S
C117   C118    1.401   .     A
C117   C451    1.384   1_545 S
C118   C119    1.401   .     A
C118   C127    1.450   .     S
C119   H151    1.083   .     S
C119   C456    1.384   1_545 S
C120   H152    1.083   .     S
C120   C121    1.401   .     A
C120   C287    1.384   .     S
C122   H153    1.080   .     S
C122   N160    1.368   .     A
C122   C11     1.416   1_655 S
C123   N159    1.367   .     A
C123   H154    1.081   .     S
C124   C134    1.418   .     A
C124   C637    1.413   .     S
C124   C639    1.425   .     S
C125   H155    1.081   .     S
C125   N159    1.368   .     A
C126   H150    1.081   .     S
C126   N160    1.367   .     A
C126   C13     1.417   1_655 S
C127   O165    1.292   .     A
C127   O166    1.292   .     A
C128   O168    1.296   .     A
C128   O167    1.295   .     A
C128   C130    1.464   .     S
C129   C140    1.388   .     A
C129   C640    1.396   1_554 S
C129   H661    1.081   1_554 S
C130   C140    1.403   .     A
C130   C139    1.401   .     A
C131   C132    1.391   .     A
C131   H145    1.083   .     S
C132   C637    1.389   .     S
C132   H651    1.079   .     S
C133   H146    1.077   .     S
C133   C636    1.389   1_554 S
C133   C628    1.413   1_554 S
C134   C138    1.413   .     A
C135   C139    1.401   .     A
C135   C628    1.425   1_554 S
C135   C640    1.418   1_554 S
C136   C137    1.386   .     A
C136   C639    1.418   .     S
C136   C633    1.396   .     S
C137   H156    1.085   .     S
C137   C138    1.380   .     A
C138   H148    1.071   .     S
C139   H158    1.075   .     S
C140   F143    1.358   .     S
Cu141  O163    1.968   .     S
Cu141  O161    1.965   .     S
Cu141  Cu142   2.681   .     S
Cu141  O165    1.965   .     S
Cu141  N159    2.015   .     S
Cu141  O167    1.960   .     S
Cu142  O166    1.965   .     S
Cu142  N160    2.015   .     S
Cu142  O162    1.965   .     S
Cu142  O168    1.968   .     S
Cu142  O164    1.960   .     S
H147   C636    1.079   1_554 S
H157   C633    1.081   .     S
C169   O218    1.292   .     A
C169   C177    1.450   .     S
C169   O217    1.292   .     A
C170   C190    1.430   .     A
C170   C172    1.486   .     S
C170   C187    1.403   .     A
C171   C177    1.401   .     A
C171   H205    1.083   .     S
C171   C341    1.384   .     S
C172   O220    1.290   .     A
C172   O219    1.310   .     A
C173   H200    1.083   .     S
C173   C174    1.401   .     A
C174   C175    1.401   .     A
C174   C183    1.450   .     S
C175   H207    1.083   .     S
C176   H208    1.083   .     S
C176   C177    1.401   .     A
C176   C343    1.384   .     S
C178   H209    1.080   .     S
C178   N216    1.368   .     A
C178   C235    1.416   .     S
C179   N215    1.367   .     A
C179   H210    1.081   .     S
C179   C290    1.416   1_455 S
C180   C190    1.418   .     A
C180   C693    1.413   .     S
C180   C695    1.425   .     S
C181   H211    1.081   .     S
C181   N215    1.368   .     A
C181   C294    1.417   1_455 S
C182   H206    1.081   .     S
C182   N216    1.367   .     A
C182   C237    1.417   .     S
C183   O221    1.292   .     A
C183   O222    1.292   .     A
C184   O224    1.296   .     A
C184   O223    1.295   .     A
C184   C186    1.464   .     S
C185   C196    1.388   .     A
C185   C696    1.396   1_554 S
C185   H717    1.081   1_554 S
C186   C196    1.403   .     A
C186   C195    1.401   .     A
C187   C188    1.391   .     A
C187   H201    1.083   .     S
C188   C693    1.389   .     S
C188   H707    1.079   .     S
C189   H202    1.077   .     S
C189   C692    1.389   1_554 S
C189   C684    1.413   1_554 S
C190   C194    1.413   .     A
C191   C195    1.401   .     A
C191   C684    1.425   1_554 S
C191   C696    1.418   1_554 S
C192   C193    1.386   .     A
C192   C695    1.418   .     S
C192   C689    1.396   .     S
C193   H212    1.085   .     S
C193   C194    1.380   .     A
C194   H204    1.071   .     S
C195   H214    1.075   .     S
C196   F199    1.358   .     S
Cu197  O219    1.968   .     S
Cu197  O217    1.965   .     S
Cu197  Cu198   2.681   .     S
Cu197  O221    1.965   .     S
Cu197  N215    2.015   .     S
Cu197  O223    1.960   .     S
Cu198  O222    1.965   .     S
Cu198  N216    2.015   .     S
Cu198  O218    1.965   .     S
Cu198  O224    1.968   .     S
Cu198  O220    1.960   .     S
H203   C692    1.079   1_554 S
H213   C689    1.081   .     S
C225   O274    1.292   .     A
C225   C233    1.450   .     S
C225   O273    1.292   .     A
C226   C246    1.430   .     A
C226   C228    1.486   .     S
C226   C243    1.403   .     A
C227   C233    1.401   .     A
C227   H261    1.083   .     S
C227   C397    1.384   .     S
C228   O276    1.290   .     A
C228   O275    1.310   .     A
C229   H256    1.083   .     S
C229   C230    1.401   .     A
C230   C231    1.401   .     A
C230   C239    1.450   .     S
C231   H263    1.083   .     S
C232   H264    1.083   .     S
C232   C233    1.401   .     A
C232   C399    1.384   .     S
C234   H265    1.080   .     S
C234   N272    1.368   .     A
C234   C291    1.416   .     S
C235   N271    1.367   .     A
C235   H266    1.081   .     S
C236   C246    1.418   .     A
C236   C749    1.413   .     S
C236   C751    1.425   .     S
C237   H267    1.081   .     S
C237   N271    1.368   .     A
C238   H262    1.081   .     S
C238   N272    1.367   .     A
C238   C293    1.417   .     S
C239   O277    1.292   .     A
C239   O278    1.292   .     A
C240   O280    1.296   .     A
C240   O279    1.295   .     A
C240   C242    1.464   .     S
C241   C252    1.388   .     A
C241   C752    1.396   1_554 S
C241   H773    1.081   1_554 S
C242   C252    1.403   .     A
C242   C251    1.401   .     A
C243   C244    1.391   .     A
C243   H257    1.083   .     S
C244   C749    1.389   .     S
C244   H763    1.079   .     S
C245   H258    1.077   .     S
C245   C748    1.389   1_554 S
C245   C740    1.413   1_554 S
C246   C250    1.413   .     A
C247   C251    1.401   .     A
C247   C740    1.425   1_554 S
C247   C752    1.418   1_554 S
C248   C249    1.386   .     A
C248   C751    1.418   .     S
C248   C745    1.396   .     S
C249   H268    1.085   .     S
C249   C250    1.380   .     A
C250   H260    1.071   .     S
C251   H270    1.075   .     S
C252   F255    1.358   .     S
Cu253  O275    1.968   .     S
Cu253  O273    1.965   .     S
Cu253  Cu254   2.681   .     S
Cu253  O277    1.965   .     S
Cu253  N271    2.015   .     S
Cu253  O279    1.960   .     S
Cu254  O278    1.965   .     S
Cu254  N272    2.015   .     S
Cu254  O274    1.965   .     S
Cu254  O280    1.968   .     S
Cu254  O276    1.960   .     S
H259   C748    1.079   1_554 S
H269   C745    1.081   .     S
C281   O330    1.292   .     A
C281   C289    1.450   .     S
C281   O329    1.292   .     A
C282   C302    1.430   .     A
C282   C284    1.486   .     S
C282   C299    1.403   .     A
C283   C289    1.401   .     A
C283   H317    1.083   .     S
C283   C453    1.384   .     S
C284   O332    1.290   .     A
C284   O331    1.310   .     A
C285   H312    1.083   .     S
C285   C286    1.401   .     A
C286   C287    1.401   .     A
C286   C295    1.450   .     S
C287   H319    1.083   .     S
C288   H320    1.083   .     S
C288   C289    1.401   .     A
C288   C455    1.384   .     S
C290   H321    1.080   .     S
C290   N328    1.368   .     A
C290   C179    1.416   1_655 S
C291   N327    1.367   .     A
C291   H322    1.081   .     S
C292   C302    1.418   .     A
C292   C805    1.413   .     S
C292   C807    1.425   .     S
C293   H323    1.081   .     S
C293   N327    1.368   .     A
C294   H318    1.081   .     S
C294   N328    1.367   .     A
C294   C181    1.417   1_655 S
C295   O333    1.292   .     A
C295   O334    1.292   .     A
C296   O336    1.296   .     A
C296   O335    1.295   .     A
C296   C298    1.464   .     S
C297   C308    1.388   .     A
C297   C808    1.396   1_554 S
C297   H829    1.081   1_554 S
C298   C308    1.403   .     A
C298   C307    1.401   .     A
C299   C300    1.391   .     A
C299   H313    1.083   .     S
C300   C805    1.389   .     S
C300   H819    1.079   .     S
C301   H314    1.077   .     S
C301   C804    1.389   1_554 S
C301   C796    1.413   1_554 S
C302   C306    1.413   .     A
C303   C307    1.401   .     A
C303   C796    1.425   1_554 S
C303   C808    1.418   1_554 S
C304   C305    1.386   .     A
C304   C807    1.418   .     S
C304   C801    1.396   .     S
C305   H324    1.085   .     S
C305   C306    1.380   .     A
C306   H316    1.071   .     S
C307   H326    1.075   .     S
C308   F311    1.358   .     S
Cu309  O331    1.968   .     S
Cu309  O329    1.965   .     S
Cu309  Cu310   2.681   .     S
Cu309  O333    1.965   .     S
Cu309  N327    2.015   .     S
Cu309  O335    1.960   .     S
Cu310  O334    1.965   .     S
Cu310  N328    2.015   .     S
Cu310  O330    1.965   .     S
Cu310  O336    1.968   .     S
Cu310  O332    1.960   .     S
H315   C804    1.079   1_554 S
H325   C801    1.081   .     S
C337   O386    1.292   .     A
C337   C345    1.450   .     S
C337   O385    1.292   .     A
C338   C358    1.430   .     A
C338   C340    1.486   .     S
C338   C355    1.403   .     A
C339   C345    1.401   .     A
C339   H373    1.083   .     S
C339   C5      1.384   1_565 S
C340   O388    1.290   .     A
C340   O387    1.310   .     A
C341   H368    1.083   .     S
C341   C342    1.401   .     A
C342   C343    1.401   .     A
C342   C351    1.450   .     S
C343   H375    1.083   .     S
C344   H376    1.083   .     S
C344   C345    1.401   .     A
C344   C7      1.384   1_565 S
C346   H377    1.080   .     S
C346   N384    1.368   .     A
C346   C403    1.416   .     S
C347   N383    1.367   .     A
C347   H378    1.081   .     S
C347   C458    1.416   1_455 S
C348   C358    1.418   .     A
C348   C861    1.413   .     S
C348   C863    1.425   .     S
C349   H379    1.081   .     S
C349   N383    1.368   .     A
C349   C462    1.417   1_455 S
C350   H374    1.081   .     S
C350   N384    1.367   .     A
C350   C405    1.417   .     S
C351   O389    1.292   .     A
C351   O390    1.292   .     A
C352   O392    1.296   .     A
C352   O391    1.295   .     A
C352   C354    1.464   .     S
C353   C364    1.388   .     A
C353   C864    1.396   1_554 S
C353   H885    1.081   1_554 S
C354   C364    1.403   .     A
C354   C363    1.401   .     A
C355   C356    1.391   .     A
C355   H369    1.083   .     S
C356   C861    1.389   .     S
C356   H875    1.079   .     S
C357   H370    1.077   .     S
C357   C860    1.389   1_554 S
C357   C852    1.413   1_554 S
C358   C362    1.413   .     A
C359   C363    1.401   .     A
C359   C852    1.425   1_554 S
C359   C864    1.418   1_554 S
C360   C361    1.386   .     A
C360   C863    1.418   .     S
C360   C857    1.396   .     S
C361   H380    1.085   .     S
C361   C362    1.380   .     A
C362   H372    1.071   .     S
C363   H382    1.075   .     S
C364   F367    1.358   .     S
Cu365  O387    1.968   .     S
Cu365  O385    1.965   .     S
Cu365  Cu366   2.681   .     S
Cu365  O389    1.965   .     S
Cu365  N383    2.015   .     S
Cu365  O391    1.960   .     S
Cu366  O390    1.965   .     S
Cu366  N384    2.015   .     S
Cu366  O386    1.965   .     S
Cu366  O392    1.968   .     S
Cu366  O388    1.960   .     S
H371   C860    1.079   1_554 S
H381   C857    1.081   .     S
C393   O442    1.292   .     A
C393   C401    1.450   .     S
C393   O441    1.292   .     A
C394   C414    1.430   .     A
C394   C396    1.486   .     S
C394   C411    1.403   .     A
C395   C401    1.401   .     A
C395   H429    1.083   .     S
C395   C61     1.384   1_565 S
C396   O444    1.290   .     A
C396   O443    1.310   .     A
C397   H424    1.083   .     S
C397   C398    1.401   .     A
C398   C399    1.401   .     A
C398   C407    1.450   .     S
C399   H431    1.083   .     S
C400   H432    1.083   .     S
C400   C401    1.401   .     A
C400   C63     1.384   1_565 S
C402   H433    1.080   .     S
C402   N440    1.368   .     A
C402   C459    1.416   .     S
C403   N439    1.367   .     A
C403   H434    1.081   .     S
C404   C414    1.418   .     A
C404   C917    1.413   .     S
C404   C919    1.425   .     S
C405   H435    1.081   .     S
C405   N439    1.368   .     A
C406   H430    1.081   .     S
C406   N440    1.367   .     A
C406   C461    1.417   .     S
C407   O445    1.292   .     A
C407   O446    1.292   .     A
C408   O448    1.296   .     A
C408   O447    1.295   .     A
C408   C410    1.464   .     S
C409   C420    1.388   .     A
C409   C920    1.396   1_554 S
C409   H941    1.081   1_554 S
C410   C420    1.403   .     A
C410   C419    1.401   .     A
C411   C412    1.391   .     A
C411   H425    1.083   .     S
C412   C917    1.389   .     S
C412   H931    1.079   .     S
C413   H426    1.077   .     S
C413   C916    1.389   1_554 S
C413   C908    1.413   1_554 S
C414   C418    1.413   .     A
C415   C419    1.401   .     A
C415   C908    1.425   1_554 S
C415   C920    1.418   1_554 S
C416   C417    1.386   .     A
C416   C919    1.418   .     S
C416   C913    1.396   .     S
C417   H436    1.085   .     S
C417   C418    1.380   .     A
C418   H428    1.071   .     S
C419   H438    1.075   .     S
C420   F423    1.358   .     S
Cu421  O443    1.968   .     S
Cu421  O441    1.965   .     S
Cu421  Cu422   2.681   .     S
Cu421  O445    1.965   .     S
Cu421  N439    2.015   .     S
Cu421  O447    1.960   .     S
Cu422  O446    1.965   .     S
Cu422  N440    2.015   .     S
Cu422  O442    1.965   .     S
Cu422  O448    1.968   .     S
Cu422  O444    1.960   .     S
H427   C916    1.079   1_554 S
H437   C913    1.081   .     S
C449   O498    1.292   .     A
C449   C457    1.450   .     S
C449   O497    1.292   .     A
C450   C470    1.430   .     A
C450   C452    1.486   .     S
C450   C467    1.403   .     A
C451   C457    1.401   .     A
C451   H485    1.083   .     S
C451   C117    1.384   1_565 S
C452   O500    1.290   .     A
C452   O499    1.310   .     A
C453   H480    1.083   .     S
C453   C454    1.401   .     A
C454   C455    1.401   .     A
C454   C463    1.450   .     S
C455   H487    1.083   .     S
C456   H488    1.083   .     S
C456   C457    1.401   .     A
C456   C119    1.384   1_565 S
C458   H489    1.080   .     S
C458   N496    1.368   .     A
C458   C347    1.416   1_655 S
C459   N495    1.367   .     A
C459   H490    1.081   .     S
C460   C470    1.418   .     A
C460   C973    1.413   .     S
C460   C975    1.425   .     S
C461   H491    1.081   .     S
C461   N495    1.368   .     A
C462   H486    1.081   .     S
C462   N496    1.367   .     A
C462   C349    1.417   1_655 S
C463   O501    1.292   .     A
C463   O502    1.292   .     A
C464   O504    1.296   .     A
C464   O503    1.295   .     A
C464   C466    1.464   .     S
C465   C476    1.388   .     A
C465   C976    1.396   1_554 S
C465   H997    1.081   1_554 S
C466   C476    1.403   .     A
C466   C475    1.401   .     A
C467   C468    1.391   .     A
C467   H481    1.083   .     S
C468   C973    1.389   .     S
C468   H987    1.079   .     S
C469   H482    1.077   .     S
C469   C972    1.389   1_554 S
C469   C964    1.413   1_554 S
C470   C474    1.413   .     A
C471   C475    1.401   .     A
C471   C964    1.425   1_554 S
C471   C976    1.418   1_554 S
C472   C473    1.386   .     A
C472   C975    1.418   .     S
C472   C969    1.396   .     S
C473   H492    1.085   .     S
C473   C474    1.380   .     A
C474   H484    1.071   .     S
C475   H494    1.075   .     S
C476   F479    1.358   .     S
Cu477  O499    1.968   .     S
Cu477  O497    1.965   .     S
Cu477  Cu478   2.681   .     S
Cu477  O501    1.965   .     S
Cu477  N495    2.015   .     S
Cu477  O503    1.960   .     S
Cu478  O502    1.965   .     S
Cu478  N496    2.015   .     S
Cu478  O498    1.965   .     S
Cu478  O504    1.968   .     S
Cu478  O500    1.960   .     S
H483   C972    1.079   1_554 S
H493   C969    1.081   .     S
C505   O554    1.292   .     A
C505   C513    1.450   .     S
C505   O553    1.292   .     A
C506   C526    1.430   .     A
C506   C508    1.486   .     S
C506   C523    1.403   .     A
C507   C513    1.401   .     A
C507   H541    1.083   .     S
C507   C677    1.384   .     S
C508   O556    1.290   .     A
C508   O555    1.310   .     A
C509   H536    1.083   .     S
C509   C510    1.401   .     A
C509   C843    1.384   1_545 S
C510   C511    1.401   .     A
C510   C519    1.450   .     S
C511   H543    1.083   .     S
C511   C848    1.384   1_545 S
C512   H544    1.083   .     S
C512   C513    1.401   .     A
C512   C679    1.384   .     S
C514   H545    1.080   .     S
C514   N552    1.368   .     A
C514   C571    1.416   .     S
C515   N551    1.367   .     A
C515   H546    1.081   .     S
C515   C626    1.416   1_455 S
C516   C526    1.418   .     A
C516   C21     1.413   1_556 S
C516   C23     1.425   1_556 S
C517   H547    1.081   .     S
C517   N551    1.368   .     A
C517   C630    1.417   1_455 S
C518   H542    1.081   .     S
C518   N552    1.367   .     A
C518   C573    1.417   .     S
C519   O557    1.292   .     A
C519   O558    1.292   .     A
C520   O560    1.296   .     A
C520   O559    1.295   .     A
C520   C522    1.464   .     S
C521   C532    1.388   .     A
C522   C532    1.403   .     A
C522   C531    1.401   .     A
C523   C524    1.391   .     A
C523   H537    1.083   .     S
C524   C21     1.389   1_556 S
C524   H35     1.079   1_556 S
C525   H538    1.077   .     S
C526   C530    1.413   .     A
C527   C531    1.401   .     A
C528   C529    1.386   .     A
C528   C23     1.418   1_556 S
C528   C17     1.396   1_556 S
C529   H548    1.085   .     S
C529   C530    1.380   .     A
C530   H540    1.071   .     S
C531   H550    1.075   .     S
C532   F535    1.358   .     S
Cu533  O555    1.968   .     S
Cu533  O553    1.965   .     S
Cu533  Cu534   2.681   .     S
Cu533  O557    1.965   .     S
Cu533  N551    2.015   .     S
Cu533  O559    1.960   .     S
Cu534  O558    1.965   .     S
Cu534  N552    2.015   .     S
Cu534  O554    1.965   .     S
Cu534  O560    1.968   .     S
Cu534  O556    1.960   .     S
H549   C17     1.081   1_556 S
C561   O610    1.292   .     A
C561   C569    1.450   .     S
C561   O609    1.292   .     A
C562   C582    1.430   .     A
C562   C564    1.486   .     S
C562   C579    1.403   .     A
C563   C569    1.401   .     A
C563   H597    1.083   .     S
C563   C733    1.384   .     S
C564   O612    1.290   .     A
C564   O611    1.310   .     A
C565   H592    1.083   .     S
C565   C566    1.401   .     A
C565   C899    1.384   1_545 S
C566   C567    1.401   .     A
C566   C575    1.450   .     S
C567   H599    1.083   .     S
C567   C904    1.384   1_545 S
C568   H600    1.083   .     S
C568   C569    1.401   .     A
C568   C735    1.384   .     S
C570   H601    1.080   .     S
C570   N608    1.368   .     A
C570   C627    1.416   .     S
C571   N607    1.367   .     A
C571   H602    1.081   .     S
C572   C582    1.418   .     A
C572   C77     1.413   1_556 S
C572   C79     1.425   1_556 S
C573   H603    1.081   .     S
C573   N607    1.368   .     A
C574   H598    1.081   .     S
C574   N608    1.367   .     A
C574   C629    1.417   .     S
C575   O613    1.292   .     A
C575   O614    1.292   .     A
C576   O616    1.296   .     A
C576   O615    1.295   .     A
C576   C578    1.464   .     S
C577   C588    1.388   .     A
C578   C588    1.403   .     A
C578   C587    1.401   .     A
C579   C580    1.391   .     A
C579   H593    1.083   .     S
C580   C77     1.389   1_556 S
C580   H91     1.079   1_556 S
C581   H594    1.077   .     S
C582   C586    1.413   .     A
C583   C587    1.401   .     A
C584   C585    1.386   .     A
C584   C79     1.418   1_556 S
C584   C73     1.396   1_556 S
C585   H604    1.085   .     S
C585   C586    1.380   .     A
C586   H596    1.071   .     S
C587   H606    1.075   .     S
C588   F591    1.358   .     S
Cu589  O611    1.968   .     S
Cu589  O609    1.965   .     S
Cu589  Cu590   2.681   .     S
Cu589  O613    1.965   .     S
Cu589  N607    2.015   .     S
Cu589  O615    1.960   .     S
Cu590  O614    1.965   .     S
Cu590  N608    2.015   .     S
Cu590  O610    1.965   .     S
Cu590  O616    1.968   .     S
Cu590  O612    1.960   .     S
H605   C73     1.081   1_556 S
C617   O666    1.292   .     A
C617   C625    1.450   .     S
C617   O665    1.292   .     A
C618   C638    1.430   .     A
C618   C620    1.486   .     S
C618   C635    1.403   .     A
C619   C625    1.401   .     A
C619   H653    1.083   .     S
C619   C789    1.384   .     S
C620   O668    1.290   .     A
C620   O667    1.310   .     A
C621   H648    1.083   .     S
C621   C622    1.401   .     A
C621   C955    1.384   1_545 S
C622   C623    1.401   .     A
C622   C631    1.450   .     S
C623   H655    1.083   .     S
C623   C960    1.384   1_545 S
C624   H656    1.083   .     S
C624   C625    1.401   .     A
C624   C791    1.384   .     S
C626   H657    1.080   .     S
C626   N664    1.368   .     A
C626   C515    1.416   1_655 S
C627   N663    1.367   .     A
C627   H658    1.081   .     S
C628   C638    1.418   .     A
C628   C133    1.413   1_556 S
C628   C135    1.425   1_556 S
C629   H659    1.081   .     S
C629   N663    1.368   .     A
C630   H654    1.081   .     S
C630   N664    1.367   .     A
C630   C517    1.417   1_655 S
C631   O669    1.292   .     A
C631   O670    1.292   .     A
C632   O672    1.296   .     A
C632   O671    1.295   .     A
C632   C634    1.464   .     S
C633   C644    1.388   .     A
C634   C644    1.403   .     A
C634   C643    1.401   .     A
C635   C636    1.391   .     A
C635   H649    1.083   .     S
C636   C133    1.389   1_556 S
C636   H147    1.079   1_556 S
C637   H650    1.077   .     S
C638   C642    1.413   .     A
C639   C643    1.401   .     A
C640   C641    1.386   .     A
C640   C135    1.418   1_556 S
C640   C129    1.396   1_556 S
C641   H660    1.085   .     S
C641   C642    1.380   .     A
C642   H652    1.071   .     S
C643   H662    1.075   .     S
C644   F647    1.358   .     S
Cu645  O667    1.968   .     S
Cu645  O665    1.965   .     S
Cu645  Cu646   2.681   .     S
Cu645  O669    1.965   .     S
Cu645  N663    2.015   .     S
Cu645  O671    1.960   .     S
Cu646  O670    1.965   .     S
Cu646  N664    2.015   .     S
Cu646  O666    1.965   .     S
Cu646  O672    1.968   .     S
Cu646  O668    1.960   .     S
H661   C129    1.081   1_556 S
C673   O722    1.292   .     A
C673   C681    1.450   .     S
C673   O721    1.292   .     A
C674   C694    1.430   .     A
C674   C676    1.486   .     S
C674   C691    1.403   .     A
C675   C681    1.401   .     A
C675   H709    1.083   .     S
C675   C845    1.384   .     S
C676   O724    1.290   .     A
C676   O723    1.310   .     A
C677   H704    1.083   .     S
C677   C678    1.401   .     A
C678   C679    1.401   .     A
C678   C687    1.450   .     S
C679   H711    1.083   .     S
C680   H712    1.083   .     S
C680   C681    1.401   .     A
C680   C847    1.384   .     S
C682   H713    1.080   .     S
C682   N720    1.368   .     A
C682   C739    1.416   .     S
C683   N719    1.367   .     A
C683   H714    1.081   .     S
C683   C794    1.416   1_455 S
C684   C694    1.418   .     A
C684   C189    1.413   1_556 S
C684   C191    1.425   1_556 S
C685   H715    1.081   .     S
C685   N719    1.368   .     A
C685   C798    1.417   1_455 S
C686   H710    1.081   .     S
C686   N720    1.367   .     A
C686   C741    1.417   .     S
C687   O725    1.292   .     A
C687   O726    1.292   .     A
C688   O728    1.296   .     A
C688   O727    1.295   .     A
C688   C690    1.464   .     S
C689   C700    1.388   .     A
C690   C700    1.403   .     A
C690   C699    1.401   .     A
C691   C692    1.391   .     A
C691   H705    1.083   .     S
C692   C189    1.389   1_556 S
C692   H203    1.079   1_556 S
C693   H706    1.077   .     S
C694   C698    1.413   .     A
C695   C699    1.401   .     A
C696   C697    1.386   .     A
C696   C191    1.418   1_556 S
C696   C185    1.396   1_556 S
C697   H716    1.085   .     S
C697   C698    1.380   .     A
C698   H708    1.071   .     S
C699   H718    1.075   .     S
C700   F703    1.358   .     S
Cu701  O723    1.968   .     S
Cu701  O721    1.965   .     S
Cu701  Cu702   2.681   .     S
Cu701  O725    1.965   .     S
Cu701  N719    2.015   .     S
Cu701  O727    1.960   .     S
Cu702  O726    1.965   .     S
Cu702  N720    2.015   .     S
Cu702  O722    1.965   .     S
Cu702  O728    1.968   .     S
Cu702  O724    1.960   .     S
H717   C185    1.081   1_556 S
C729   O778    1.292   .     A
C729   C737    1.450   .     S
C729   O777    1.292   .     A
C730   C750    1.430   .     A
C730   C732    1.486   .     S
C730   C747    1.403   .     A
C731   C737    1.401   .     A
C731   H765    1.083   .     S
C731   C901    1.384   .     S
C732   O780    1.290   .     A
C732   O779    1.310   .     A
C733   H760    1.083   .     S
C733   C734    1.401   .     A
C734   C735    1.401   .     A
C734   C743    1.450   .     S
C735   H767    1.083   .     S
C736   H768    1.083   .     S
C736   C737    1.401   .     A
C736   C903    1.384   .     S
C738   H769    1.080   .     S
C738   N776    1.368   .     A
C738   C795    1.416   .     S
C739   N775    1.367   .     A
C739   H770    1.081   .     S
C740   C750    1.418   .     A
C740   C245    1.413   1_556 S
C740   C247    1.425   1_556 S
C741   H771    1.081   .     S
C741   N775    1.368   .     A
C742   H766    1.081   .     S
C742   N776    1.367   .     A
C742   C797    1.417   .     S
C743   O781    1.292   .     A
C743   O782    1.292   .     A
C744   O784    1.296   .     A
C744   O783    1.295   .     A
C744   C746    1.464   .     S
C745   C756    1.388   .     A
C746   C756    1.403   .     A
C746   C755    1.401   .     A
C747   C748    1.391   .     A
C747   H761    1.083   .     S
C748   C245    1.389   1_556 S
C748   H259    1.079   1_556 S
C749   H762    1.077   .     S
C750   C754    1.413   .     A
C751   C755    1.401   .     A
C752   C753    1.386   .     A
C752   C247    1.418   1_556 S
C752   C241    1.396   1_556 S
C753   H772    1.085   .     S
C753   C754    1.380   .     A
C754   H764    1.071   .     S
C755   H774    1.075   .     S
C756   F759    1.358   .     S
Cu757  O779    1.968   .     S
Cu757  O777    1.965   .     S
Cu757  Cu758   2.681   .     S
Cu757  O781    1.965   .     S
Cu757  N775    2.015   .     S
Cu757  O783    1.960   .     S
Cu758  O782    1.965   .     S
Cu758  N776    2.015   .     S
Cu758  O778    1.965   .     S
Cu758  O784    1.968   .     S
Cu758  O780    1.960   .     S
H773   C241    1.081   1_556 S
C785   O834    1.292   .     A
C785   C793    1.450   .     S
C785   O833    1.292   .     A
C786   C806    1.430   .     A
C786   C788    1.486   .     S
C786   C803    1.403   .     A
C787   C793    1.401   .     A
C787   H821    1.083   .     S
C787   C957    1.384   .     S
C788   O836    1.290   .     A
C788   O835    1.310   .     A
C789   H816    1.083   .     S
C789   C790    1.401   .     A
C790   C791    1.401   .     A
C790   C799    1.450   .     S
C791   H823    1.083   .     S
C792   H824    1.083   .     S
C792   C793    1.401   .     A
C792   C959    1.384   .     S
C794   H825    1.080   .     S
C794   N832    1.368   .     A
C794   C683    1.416   1_655 S
C795   N831    1.367   .     A
C795   H826    1.081   .     S
C796   C806    1.418   .     A
C796   C301    1.413   1_556 S
C796   C303    1.425   1_556 S
C797   H827    1.081   .     S
C797   N831    1.368   .     A
C798   H822    1.081   .     S
C798   N832    1.367   .     A
C798   C685    1.417   1_655 S
C799   O837    1.292   .     A
C799   O838    1.292   .     A
C800   O840    1.296   .     A
C800   O839    1.295   .     A
C800   C802    1.464   .     S
C801   C812    1.388   .     A
C802   C812    1.403   .     A
C802   C811    1.401   .     A
C803   C804    1.391   .     A
C803   H817    1.083   .     S
C804   C301    1.389   1_556 S
C804   H315    1.079   1_556 S
C805   H818    1.077   .     S
C806   C810    1.413   .     A
C807   C811    1.401   .     A
C808   C809    1.386   .     A
C808   C303    1.418   1_556 S
C808   C297    1.396   1_556 S
C809   H828    1.085   .     S
C809   C810    1.380   .     A
C810   H820    1.071   .     S
C811   H830    1.075   .     S
C812   F815    1.358   .     S
Cu813  O835    1.968   .     S
Cu813  O833    1.965   .     S
Cu813  Cu814   2.681   .     S
Cu813  O837    1.965   .     S
Cu813  N831    2.015   .     S
Cu813  O839    1.960   .     S
Cu814  O838    1.965   .     S
Cu814  N832    2.015   .     S
Cu814  O834    1.965   .     S
Cu814  O840    1.968   .     S
Cu814  O836    1.960   .     S
H829   C297    1.081   1_556 S
C841   O890    1.292   .     A
C841   C849    1.450   .     S
C841   O889    1.292   .     A
C842   C862    1.430   .     A
C842   C844    1.486   .     S
C842   C859    1.403   .     A
C843   C849    1.401   .     A
C843   H877    1.083   .     S
C843   C509    1.384   1_565 S
C844   O892    1.290   .     A
C844   O891    1.310   .     A
C845   H872    1.083   .     S
C845   C846    1.401   .     A
C846   C847    1.401   .     A
C846   C855    1.450   .     S
C847   H879    1.083   .     S
C848   H880    1.083   .     S
C848   C849    1.401   .     A
C848   C511    1.384   1_565 S
C850   H881    1.080   .     S
C850   N888    1.368   .     A
C850   C907    1.416   .     S
C851   N887    1.367   .     A
C851   H882    1.081   .     S
C851   C962    1.416   1_455 S
C852   C862    1.418   .     A
C852   C357    1.413   1_556 S
C852   C359    1.425   1_556 S
C853   H883    1.081   .     S
C853   N887    1.368   .     A
C853   C966    1.417   1_455 S
C854   H878    1.081   .     S
C854   N888    1.367   .     A
C854   C909    1.417   .     S
C855   O893    1.292   .     A
C855   O894    1.292   .     A
C856   O896    1.296   .     A
C856   O895    1.295   .     A
C856   C858    1.464   .     S
C857   C868    1.388   .     A
C858   C868    1.403   .     A
C858   C867    1.401   .     A
C859   C860    1.391   .     A
C859   H873    1.083   .     S
C860   C357    1.389   1_556 S
C860   H371    1.079   1_556 S
C861   H874    1.077   .     S
C862   C866    1.413   .     A
C863   C867    1.401   .     A
C864   C865    1.386   .     A
C864   C359    1.418   1_556 S
C864   C353    1.396   1_556 S
C865   H884    1.085   .     S
C865   C866    1.380   .     A
C866   H876    1.071   .     S
C867   H886    1.075   .     S
C868   F871    1.358   .     S
Cu869  O891    1.968   .     S
Cu869  O889    1.965   .     S
Cu869  Cu870   2.681   .     S
Cu869  O893    1.965   .     S
Cu869  N887    2.015   .     S
Cu869  O895    1.960   .     S
Cu870  O894    1.965   .     S
Cu870  N888    2.015   .     S
Cu870  O890    1.965   .     S
Cu870  O896    1.968   .     S
Cu870  O892    1.960   .     S
H885   C353    1.081   1_556 S
C897   O946    1.292   .     A
C897   C905    1.450   .     S
C897   O945    1.292   .     A
C898   C918    1.430   .     A
C898   C900    1.486   .     S
C898   C915    1.403   .     A
C899   C905    1.401   .     A
C899   H933    1.083   .     S
C899   C565    1.384   1_565 S
C900   O948    1.290   .     A
C900   O947    1.310   .     A
C901   H928    1.083   .     S
C901   C902    1.401   .     A
C902   C903    1.401   .     A
C902   C911    1.450   .     S
C903   H935    1.083   .     S
C904   H936    1.083   .     S
C904   C905    1.401   .     A
C904   C567    1.384   1_565 S
C906   H937    1.080   .     S
C906   N944    1.368   .     A
C906   C963    1.416   .     S
C907   N943    1.367   .     A
C907   H938    1.081   .     S
C908   C918    1.418   .     A
C908   C413    1.413   1_556 S
C908   C415    1.425   1_556 S
C909   H939    1.081   .     S
C909   N943    1.368   .     A
C910   H934    1.081   .     S
C910   N944    1.367   .     A
C910   C965    1.417   .     S
C911   O949    1.292   .     A
C911   O950    1.292   .     A
C912   O952    1.296   .     A
C912   O951    1.295   .     A
C912   C914    1.464   .     S
C913   C924    1.388   .     A
C914   C924    1.403   .     A
C914   C923    1.401   .     A
C915   C916    1.391   .     A
C915   H929    1.083   .     S
C916   C413    1.389   1_556 S
C916   H427    1.079   1_556 S
C917   H930    1.077   .     S
C918   C922    1.413   .     A
C919   C923    1.401   .     A
C920   C921    1.386   .     A
C920   C415    1.418   1_556 S
C920   C409    1.396   1_556 S
C921   H940    1.085   .     S
C921   C922    1.380   .     A
C922   H932    1.071   .     S
C923   H942    1.075   .     S
C924   F927    1.358   .     S
Cu925  O947    1.968   .     S
Cu925  O945    1.965   .     S
Cu925  Cu926   2.681   .     S
Cu925  O949    1.965   .     S
Cu925  N943    2.015   .     S
Cu925  O951    1.960   .     S
Cu926  O950    1.965   .     S
Cu926  N944    2.015   .     S
Cu926  O946    1.965   .     S
Cu926  O952    1.968   .     S
Cu926  O948    1.960   .     S
H941   C409    1.081   1_556 S
C953   O1002   1.292   .     A
C953   C961    1.450   .     S
C953   O1001   1.292   .     A
C954   C974    1.430   .     A
C954   C956    1.486   .     S
C954   C971    1.403   .     A
C955   C961    1.401   .     A
C955   H989    1.083   .     S
C955   C621    1.384   1_565 S
C956   O1004   1.290   .     A
C956   O1003   1.310   .     A
C957   H984    1.083   .     S
C957   C958    1.401   .     A
C958   C959    1.401   .     A
C958   C967    1.450   .     S
C959   H991    1.083   .     S
C960   H992    1.083   .     S
C960   C961    1.401   .     A
C960   C623    1.384   1_565 S
C962   H993    1.080   .     S
C962   N1000   1.368   .     A
C962   C851    1.416   1_655 S
C963   N999    1.367   .     A
C963   H994    1.081   .     S
C964   C974    1.418   .     A
C964   C469    1.413   1_556 S
C964   C471    1.425   1_556 S
C965   H995    1.081   .     S
C965   N999    1.368   .     A
C966   H990    1.081   .     S
C966   N1000   1.367   .     A
C966   C853    1.417   1_655 S
C967   O1005   1.292   .     A
C967   O1006   1.292   .     A
C968   O1008   1.296   .     A
C968   O1007   1.295   .     A
C968   C970    1.464   .     S
C969   C980    1.388   .     A
C970   C980    1.403   .     A
C970   C979    1.401   .     A
C971   C972    1.391   .     A
C971   H985    1.083   .     S
C972   C469    1.389   1_556 S
C972   H483    1.079   1_556 S
C973   H986    1.077   .     S
C974   C978    1.413   .     A
C975   C979    1.401   .     A
C976   C977    1.386   .     A
C976   C471    1.418   1_556 S
C976   C465    1.396   1_556 S
C977   H996    1.085   .     S
C977   C978    1.380   .     A
C978   H988    1.071   .     S
C979   H998    1.075   .     S
C980   F983    1.358   .     S
Cu981  O1003   1.968   .     S
Cu981  O1001   1.965   .     S
Cu981  Cu982   2.681   .     S
Cu981  O1005   1.965   .     S
Cu981  N999    2.015   .     S
Cu981  O1007   1.960   .     S
Cu982  O1006   1.965   .     S
Cu982  N1000   2.015   .     S
Cu982  O1002   1.965   .     S
Cu982  O1008   1.968   .     S
Cu982  O1004   1.960   .     S
H997   C465    1.081   1_556 S
