data_str_m1_o10_o18_pcu_sym.188
_audit_creation_date              2020-01-03
_audit_creation_method            'Materials Studio'
_symmetry_space_group_name_H-M    'P1'
_symmetry_Int_Tables_number       1
_symmetry_cell_setting            triclinic
loop_
_symmetry_equiv_pos_as_xyz
  x,y,z
_cell_length_a                    32.6886
_cell_length_b                    32.6608
_cell_length_c                    35.7694
_cell_angle_alpha                 98.4861
_cell_angle_beta                  73.0249
_cell_angle_gamma                 98.4442
loop_
_atom_site_label
_atom_site_type_symbol
_atom_site_fract_x
_atom_site_fract_y
_atom_site_fract_z
_atom_site_U_iso_or_equiv
_atom_site_adp_type
_atom_site_occupancy
Br1    Br    0.24356   0.04338   0.01553   0.00000  Uiso   1.00
Br2    Br    0.25178   0.15376   0.40650   0.00000  Uiso   1.00
C3     C     0.05289   0.16033   0.25815   0.00000  Uiso   1.00
C4     C     0.21373   0.14797   0.45847   0.00000  Uiso   1.00
C5     C     0.22442   0.12011   0.47899   0.00000  Uiso   1.00
C6     C     0.28084   0.17351   0.24152   0.00000  Uiso   1.00
C7     C     0.21026   0.12329   0.02001   0.00000  Uiso   1.00
C8     C     0.18894   0.15824   0.04072   0.00000  Uiso   1.00
C9     C     0.21934   0.09391   0.04086   0.00000  Uiso   1.00
C10    C     0.20941   0.10052   0.08169   0.00000  Uiso   1.00
C11    C     0.18736   0.16826   0.08108   0.00000  Uiso   1.00
C12    C     0.32636   0.17668   0.23966   0.00000  Uiso   1.00
C13    C     0.00768   0.15643   0.26259   0.00000  Uiso   1.00
C14    C     0.11714   0.23414   0.41772   0.00000  Uiso   1.00
C15    C     0.17974   0.32209   0.23938   0.00000  Uiso   1.00
C16    C     0.15030   0.01295   0.26283   0.00000  Uiso   1.00
C17    C     0.15635   0.05633   0.25848   0.00000  Uiso   1.00
C18    C     0.17654   0.27758   0.24159   0.00000  Uiso   1.00
C19    C     0.18801   0.14534   0.14412   0.00000  Uiso   1.00
C20    C     0.14572   0.18813   0.35605   0.00000  Uiso   1.00
C21    C     0.13989   0.20046   0.39831   0.00000  Uiso   1.00
C22    C     0.19517   0.13809   0.10161   0.00000  Uiso   1.00
C23    C     0.11226   0.24560   0.45767   0.00000  Uiso   1.00
C24    C     0.09268   0.26118   0.04259   0.00000  Uiso   1.00
C25    C     0.15898   0.17957   0.41897   0.00000  Uiso   1.00
C26    C     0.31509   0.12729   0.28943   0.00000  Uiso   1.00
C27    C     0.11166   0.33191   0.29192   0.00000  Uiso   1.00
C28    C     0.18395   0.21049   0.10036   0.00000  Uiso   1.00
C29    C     0.15875   0.19353   0.45809   0.00000  Uiso   1.00
C30    C     0.13171   0.22468   0.47860   0.00000  Uiso   1.00
C31    C     0.18134   0.17445   0.47819   0.00000  Uiso   1.00
C32    C     0.17052   0.18129   0.01996   0.00000  Uiso   1.00
C33    C     0.13917   0.20839   0.03985   0.00000  Uiso   1.00
C34    C     0.12239   0.23205   0.01974   0.00000  Uiso   1.00
H35    H     0.01552   0.19638   0.21903   0.00000  Uiso   1.00
H36    H     0.20730   0.00251   0.21786   0.00000  Uiso   1.00
H37    H     0.21524   0.07736   0.09778   0.00000  Uiso   1.00
H38    H     0.24654   0.09792   0.46271   0.00000  Uiso   1.00
H39    H     0.09264   0.27044   0.47209   0.00000  Uiso   1.00
H40    H     0.10223   0.25105   0.40229   0.00000  Uiso   1.00
H41    H     0.17226   0.15115   0.40464   0.00000  Uiso   1.00
H42    H     0.12563   0.21032   0.07132   0.00000  Uiso   1.00
N43    N     0.06894   0.28446   0.06090   0.00000  Uiso   1.00
N44    N     0.29458   0.10390   0.31079   0.00000  Uiso   1.00
N45    N     0.08075   0.32058   0.31518   0.00000  Uiso   1.00
N46    N     0.18140   0.24413   0.11581   0.00000  Uiso   1.00
O47    O     0.16667   0.16667   0.25000   0.00000  Uiso   1.00
O48    O     0.15693   0.12393   0.16625   0.00000  Uiso   1.00
O49    O     0.12687   0.20646   0.33749   0.00000  Uiso   1.00
O50    O     0.21088   0.17493   0.15877   0.00000  Uiso   1.00
O51    O     0.17198   0.16135   0.33749   0.00000  Uiso   1.00
O52    O     0.17849   0.08101   0.27821   0.00000  Uiso   1.00
O53    O     0.14581   0.26136   0.26767   0.00000  Uiso   1.00
O54    O     0.07452   0.13251   0.23607   0.00000  Uiso   1.00
O55    O     0.26785   0.19179   0.21806   0.00000  Uiso   1.00
O56    O     0.06990   0.18960   0.27820   0.00000  Uiso   1.00
O57    O     0.25440   0.15277   0.26768   0.00000  Uiso   1.00
O58    O     0.13800   0.06903   0.23607   0.00000  Uiso   1.00
O59    O     0.20437   0.25527   0.21806   0.00000  Uiso   1.00
Zn60   Zn    0.19244   0.14090   0.28278   0.00000  Uiso   1.00
Zn61   Zn    0.13459   0.12378   0.22258   0.00000  Uiso   1.00
Zn62   Zn    0.21166   0.19664   0.21188   0.00000  Uiso   1.00
Zn63   Zn    0.12798   0.20535   0.28277   0.00000  Uiso   1.00
Br64   Br    0.57690   0.04338   0.01553   0.00000  Uiso   1.00
Br65   Br    0.58511   0.15376   0.40650   0.00000  Uiso   1.00
C66    C     0.38623   0.16033   0.25815   0.00000  Uiso   1.00
C67    C     0.54706   0.14797   0.45847   0.00000  Uiso   1.00
C68    C     0.55776   0.12011   0.47899   0.00000  Uiso   1.00
C69    C     0.61418   0.17351   0.24152   0.00000  Uiso   1.00
C70    C     0.54359   0.12329   0.02001   0.00000  Uiso   1.00
C71    C     0.52227   0.15824   0.04072   0.00000  Uiso   1.00
C72    C     0.55268   0.09391   0.04086   0.00000  Uiso   1.00
C73    C     0.54274   0.10052   0.08169   0.00000  Uiso   1.00
C74    C     0.52069   0.16826   0.08108   0.00000  Uiso   1.00
C75    C     0.65969   0.17668   0.23966   0.00000  Uiso   1.00
C76    C     0.34102   0.15643   0.26259   0.00000  Uiso   1.00
C77    C     0.45047   0.23414   0.41772   0.00000  Uiso   1.00
C78    C     0.51308   0.32209   0.23938   0.00000  Uiso   1.00
C79    C     0.48364   0.01295   0.26283   0.00000  Uiso   1.00
C80    C     0.48968   0.05633   0.25848   0.00000  Uiso   1.00
C81    C     0.50987   0.27758   0.24159   0.00000  Uiso   1.00
C82    C     0.52134   0.14534   0.14412   0.00000  Uiso   1.00
C83    C     0.47905   0.18813   0.35605   0.00000  Uiso   1.00
C84    C     0.47322   0.20046   0.39831   0.00000  Uiso   1.00
C85    C     0.52850   0.13809   0.10161   0.00000  Uiso   1.00
C86    C     0.44560   0.24560   0.45767   0.00000  Uiso   1.00
C87    C     0.42602   0.26118   0.04259   0.00000  Uiso   1.00
C88    C     0.49232   0.17957   0.41897   0.00000  Uiso   1.00
C89    C     0.64843   0.12729   0.28943   0.00000  Uiso   1.00
C90    C     0.44499   0.33191   0.29192   0.00000  Uiso   1.00
C91    C     0.51728   0.21049   0.10036   0.00000  Uiso   1.00
C92    C     0.49209   0.19353   0.45809   0.00000  Uiso   1.00
C93    C     0.46504   0.22468   0.47860   0.00000  Uiso   1.00
C94    C     0.51467   0.17445   0.47819   0.00000  Uiso   1.00
C95    C     0.50385   0.18129   0.01996   0.00000  Uiso   1.00
C96    C     0.47250   0.20839   0.03985   0.00000  Uiso   1.00
C97    C     0.45572   0.23205   0.01974   0.00000  Uiso   1.00
H98    H     0.34886   0.19638   0.21903   0.00000  Uiso   1.00
H99    H     0.54063   0.00251   0.21786   0.00000  Uiso   1.00
H100   H     0.54857   0.07736   0.09778   0.00000  Uiso   1.00
H101   H     0.57987   0.09792   0.46271   0.00000  Uiso   1.00
H102   H     0.42597   0.27044   0.47209   0.00000  Uiso   1.00
H103   H     0.43557   0.25105   0.40229   0.00000  Uiso   1.00
H104   H     0.50560   0.15115   0.40464   0.00000  Uiso   1.00
H105   H     0.45897   0.21032   0.07132   0.00000  Uiso   1.00
N106   N     0.40227   0.28446   0.06090   0.00000  Uiso   1.00
N107   N     0.62791   0.10390   0.31079   0.00000  Uiso   1.00
N108   N     0.41409   0.32058   0.31518   0.00000  Uiso   1.00
N109   N     0.51474   0.24413   0.11581   0.00000  Uiso   1.00
O110   O     0.50000   0.16667   0.25000   0.00000  Uiso   1.00
O111   O     0.49027   0.12393   0.16625   0.00000  Uiso   1.00
O112   O     0.46020   0.20646   0.33749   0.00000  Uiso   1.00
O113   O     0.54421   0.17493   0.15877   0.00000  Uiso   1.00
O114   O     0.50532   0.16135   0.33749   0.00000  Uiso   1.00
O115   O     0.51182   0.08101   0.27821   0.00000  Uiso   1.00
O116   O     0.47914   0.26136   0.26767   0.00000  Uiso   1.00
O117   O     0.40785   0.13251   0.23607   0.00000  Uiso   1.00
O118   O     0.60119   0.19179   0.21806   0.00000  Uiso   1.00
O119   O     0.40323   0.18960   0.27820   0.00000  Uiso   1.00
O120   O     0.58773   0.15277   0.26768   0.00000  Uiso   1.00
O121   O     0.47133   0.06903   0.23607   0.00000  Uiso   1.00
O122   O     0.53771   0.25527   0.21806   0.00000  Uiso   1.00
Zn123  Zn    0.52577   0.14090   0.28278   0.00000  Uiso   1.00
Zn124  Zn    0.46792   0.12378   0.22258   0.00000  Uiso   1.00
Zn125  Zn    0.54500   0.19664   0.21188   0.00000  Uiso   1.00
Zn126  Zn    0.46131   0.20535   0.28277   0.00000  Uiso   1.00
Br127  Br    0.91023   0.04338   0.01553   0.00000  Uiso   1.00
Br128  Br    0.91844   0.15376   0.40650   0.00000  Uiso   1.00
C129   C     0.71956   0.16033   0.25815   0.00000  Uiso   1.00
C130   C     0.88039   0.14797   0.45847   0.00000  Uiso   1.00
C131   C     0.89109   0.12011   0.47899   0.00000  Uiso   1.00
C132   C     0.94751   0.17351   0.24152   0.00000  Uiso   1.00
C133   C     0.87692   0.12329   0.02001   0.00000  Uiso   1.00
C134   C     0.85561   0.15824   0.04072   0.00000  Uiso   1.00
C135   C     0.88601   0.09391   0.04086   0.00000  Uiso   1.00
C136   C     0.87607   0.10052   0.08169   0.00000  Uiso   1.00
C137   C     0.85402   0.16826   0.08108   0.00000  Uiso   1.00
C138   C     0.99303   0.17668   0.23966   0.00000  Uiso   1.00
C139   C     0.67435   0.15643   0.26259   0.00000  Uiso   1.00
C140   C     0.78381   0.23414   0.41772   0.00000  Uiso   1.00
C141   C     0.84641   0.32209   0.23938   0.00000  Uiso   1.00
C142   C     0.81697   0.01295   0.26283   0.00000  Uiso   1.00
C143   C     0.82301   0.05633   0.25848   0.00000  Uiso   1.00
C144   C     0.84321   0.27758   0.24159   0.00000  Uiso   1.00
C145   C     0.85468   0.14534   0.14412   0.00000  Uiso   1.00
C146   C     0.81238   0.18813   0.35605   0.00000  Uiso   1.00
C147   C     0.80655   0.20046   0.39831   0.00000  Uiso   1.00
C148   C     0.86184   0.13809   0.10161   0.00000  Uiso   1.00
C149   C     0.77893   0.24560   0.45767   0.00000  Uiso   1.00
C150   C     0.75935   0.26118   0.04259   0.00000  Uiso   1.00
C151   C     0.82565   0.17957   0.41897   0.00000  Uiso   1.00
C152   C     0.98176   0.12729   0.28943   0.00000  Uiso   1.00
C153   C     0.77832   0.33191   0.29192   0.00000  Uiso   1.00
C154   C     0.85061   0.21049   0.10036   0.00000  Uiso   1.00
C155   C     0.82542   0.19353   0.45809   0.00000  Uiso   1.00
C156   C     0.79838   0.22468   0.47860   0.00000  Uiso   1.00
C157   C     0.84801   0.17445   0.47819   0.00000  Uiso   1.00
C158   C     0.83718   0.18129   0.01996   0.00000  Uiso   1.00
C159   C     0.80584   0.20839   0.03985   0.00000  Uiso   1.00
C160   C     0.78906   0.23205   0.01974   0.00000  Uiso   1.00
H161   H     0.68219   0.19638   0.21903   0.00000  Uiso   1.00
H162   H     0.87397   0.00251   0.21786   0.00000  Uiso   1.00
H163   H     0.88191   0.07736   0.09778   0.00000  Uiso   1.00
H164   H     0.91321   0.09792   0.46271   0.00000  Uiso   1.00
H165   H     0.75931   0.27044   0.47209   0.00000  Uiso   1.00
H166   H     0.76890   0.25105   0.40229   0.00000  Uiso   1.00
H167   H     0.83893   0.15115   0.40464   0.00000  Uiso   1.00
H168   H     0.79230   0.21032   0.07132   0.00000  Uiso   1.00
N169   N     0.73560   0.28446   0.06090   0.00000  Uiso   1.00
N170   N     0.96125   0.10390   0.31079   0.00000  Uiso   1.00
N171   N     0.74742   0.32058   0.31518   0.00000  Uiso   1.00
N172   N     0.84807   0.24413   0.11581   0.00000  Uiso   1.00
O173   O     0.83333   0.16667   0.25000   0.00000  Uiso   1.00
O174   O     0.82360   0.12393   0.16625   0.00000  Uiso   1.00
O175   O     0.79354   0.20646   0.33749   0.00000  Uiso   1.00
O176   O     0.87755   0.17493   0.15877   0.00000  Uiso   1.00
O177   O     0.83865   0.16135   0.33749   0.00000  Uiso   1.00
O178   O     0.84515   0.08101   0.27821   0.00000  Uiso   1.00
O179   O     0.81247   0.26136   0.26767   0.00000  Uiso   1.00
O180   O     0.74119   0.13251   0.23607   0.00000  Uiso   1.00
O181   O     0.93452   0.19179   0.21806   0.00000  Uiso   1.00
O182   O     0.73656   0.18960   0.27820   0.00000  Uiso   1.00
O183   O     0.92106   0.15277   0.26768   0.00000  Uiso   1.00
O184   O     0.80467   0.06903   0.23607   0.00000  Uiso   1.00
O185   O     0.87104   0.25527   0.21806   0.00000  Uiso   1.00
Zn186  Zn    0.85910   0.14090   0.28278   0.00000  Uiso   1.00
Zn187  Zn    0.80125   0.12378   0.22258   0.00000  Uiso   1.00
Zn188  Zn    0.87833   0.19664   0.21188   0.00000  Uiso   1.00
Zn189  Zn    0.79465   0.20535   0.28277   0.00000  Uiso   1.00
Br190  Br    0.24356   0.37671   0.01553   0.00000  Uiso   1.00
Br191  Br    0.25178   0.48709   0.40650   0.00000  Uiso   1.00
C192   C     0.05289   0.49366   0.25815   0.00000  Uiso   1.00
C193   C     0.21373   0.48130   0.45847   0.00000  Uiso   1.00
C194   C     0.22442   0.45344   0.47899   0.00000  Uiso   1.00
C195   C     0.28084   0.50685   0.24152   0.00000  Uiso   1.00
C196   C     0.21026   0.45663   0.02001   0.00000  Uiso   1.00
C197   C     0.18894   0.49157   0.04072   0.00000  Uiso   1.00
C198   C     0.21934   0.42725   0.04086   0.00000  Uiso   1.00
C199   C     0.20941   0.43386   0.08169   0.00000  Uiso   1.00
C200   C     0.18736   0.50159   0.08108   0.00000  Uiso   1.00
C201   C     0.32636   0.51001   0.23966   0.00000  Uiso   1.00
C202   C     0.00768   0.48976   0.26259   0.00000  Uiso   1.00
C203   C     0.11714   0.56747   0.41772   0.00000  Uiso   1.00
C204   C     0.17974   0.65542   0.23938   0.00000  Uiso   1.00
C205   C     0.15030   0.34629   0.26283   0.00000  Uiso   1.00
C206   C     0.15635   0.38966   0.25848   0.00000  Uiso   1.00
C207   C     0.17654   0.61091   0.24159   0.00000  Uiso   1.00
C208   C     0.18801   0.47868   0.14412   0.00000  Uiso   1.00
C209   C     0.14572   0.52147   0.35605   0.00000  Uiso   1.00
C210   C     0.13989   0.53379   0.39831   0.00000  Uiso   1.00
C211   C     0.19517   0.47142   0.10161   0.00000  Uiso   1.00
C212   C     0.11226   0.57893   0.45767   0.00000  Uiso   1.00
C213   C     0.09268   0.59451   0.04259   0.00000  Uiso   1.00
C214   C     0.15898   0.51291   0.41897   0.00000  Uiso   1.00
C215   C     0.31509   0.46063   0.28943   0.00000  Uiso   1.00
C216   C     0.11166   0.66524   0.29192   0.00000  Uiso   1.00
C217   C     0.18395   0.54382   0.10036   0.00000  Uiso   1.00
C218   C     0.15875   0.52686   0.45809   0.00000  Uiso   1.00
C219   C     0.13171   0.55802   0.47860   0.00000  Uiso   1.00
C220   C     0.18134   0.50779   0.47819   0.00000  Uiso   1.00
C221   C     0.17052   0.51463   0.01996   0.00000  Uiso   1.00
C222   C     0.13917   0.54172   0.03985   0.00000  Uiso   1.00
C223   C     0.12239   0.56538   0.01974   0.00000  Uiso   1.00
H224   H     0.01552   0.52971   0.21903   0.00000  Uiso   1.00
H225   H     0.20730   0.33584   0.21786   0.00000  Uiso   1.00
H226   H     0.21524   0.41070   0.09778   0.00000  Uiso   1.00
H227   H     0.24654   0.43126   0.46271   0.00000  Uiso   1.00
H228   H     0.09264   0.60377   0.47209   0.00000  Uiso   1.00
H229   H     0.10223   0.58438   0.40229   0.00000  Uiso   1.00
H230   H     0.17226   0.48449   0.40464   0.00000  Uiso   1.00
H231   H     0.12563   0.54366   0.07132   0.00000  Uiso   1.00
N232   N     0.06894   0.61780   0.06090   0.00000  Uiso   1.00
N233   N     0.29458   0.43724   0.31079   0.00000  Uiso   1.00
N234   N     0.08075   0.65391   0.31518   0.00000  Uiso   1.00
N235   N     0.18140   0.57746   0.11581   0.00000  Uiso   1.00
O236   O     0.16667   0.50000   0.25000   0.00000  Uiso   1.00
O237   O     0.15693   0.45726   0.16625   0.00000  Uiso   1.00
O238   O     0.12687   0.53979   0.33749   0.00000  Uiso   1.00
O239   O     0.21088   0.50826   0.15877   0.00000  Uiso   1.00
O240   O     0.17198   0.49468   0.33749   0.00000  Uiso   1.00
O241   O     0.17849   0.41434   0.27821   0.00000  Uiso   1.00
O242   O     0.14581   0.59469   0.26767   0.00000  Uiso   1.00
O243   O     0.07452   0.46584   0.23607   0.00000  Uiso   1.00
O244   O     0.26785   0.52512   0.21806   0.00000  Uiso   1.00
O245   O     0.06990   0.52293   0.27820   0.00000  Uiso   1.00
O246   O     0.25440   0.48610   0.26768   0.00000  Uiso   1.00
O247   O     0.13800   0.40236   0.23607   0.00000  Uiso   1.00
O248   O     0.20437   0.58860   0.21806   0.00000  Uiso   1.00
Zn249  Zn    0.19244   0.47423   0.28278   0.00000  Uiso   1.00
Zn250  Zn    0.13459   0.45711   0.22258   0.00000  Uiso   1.00
Zn251  Zn    0.21166   0.52997   0.21188   0.00000  Uiso   1.00
Zn252  Zn    0.12798   0.53868   0.28277   0.00000  Uiso   1.00
Br253  Br    0.57690   0.37671   0.01553   0.00000  Uiso   1.00
Br254  Br    0.58511   0.48709   0.40650   0.00000  Uiso   1.00
C255   C     0.38623   0.49366   0.25815   0.00000  Uiso   1.00
C256   C     0.54706   0.48130   0.45847   0.00000  Uiso   1.00
C257   C     0.55776   0.45344   0.47899   0.00000  Uiso   1.00
C258   C     0.61418   0.50685   0.24152   0.00000  Uiso   1.00
C259   C     0.54359   0.45663   0.02001   0.00000  Uiso   1.00
C260   C     0.52227   0.49157   0.04072   0.00000  Uiso   1.00
C261   C     0.55268   0.42725   0.04086   0.00000  Uiso   1.00
C262   C     0.54274   0.43386   0.08169   0.00000  Uiso   1.00
C263   C     0.52069   0.50159   0.08108   0.00000  Uiso   1.00
C264   C     0.65969   0.51001   0.23966   0.00000  Uiso   1.00
C265   C     0.34102   0.48976   0.26259   0.00000  Uiso   1.00
C266   C     0.45047   0.56747   0.41772   0.00000  Uiso   1.00
C267   C     0.51308   0.65542   0.23938   0.00000  Uiso   1.00
C268   C     0.48364   0.34629   0.26283   0.00000  Uiso   1.00
C269   C     0.48968   0.38966   0.25848   0.00000  Uiso   1.00
C270   C     0.50987   0.61091   0.24159   0.00000  Uiso   1.00
C271   C     0.52134   0.47868   0.14412   0.00000  Uiso   1.00
C272   C     0.47905   0.52147   0.35605   0.00000  Uiso   1.00
C273   C     0.47322   0.53379   0.39831   0.00000  Uiso   1.00
C274   C     0.52850   0.47142   0.10161   0.00000  Uiso   1.00
C275   C     0.44560   0.57893   0.45767   0.00000  Uiso   1.00
C276   C     0.42602   0.59451   0.04259   0.00000  Uiso   1.00
C277   C     0.49232   0.51291   0.41897   0.00000  Uiso   1.00
C278   C     0.64843   0.46063   0.28943   0.00000  Uiso   1.00
C279   C     0.44499   0.66524   0.29192   0.00000  Uiso   1.00
C280   C     0.51728   0.54382   0.10036   0.00000  Uiso   1.00
C281   C     0.49209   0.52686   0.45809   0.00000  Uiso   1.00
C282   C     0.46504   0.55802   0.47860   0.00000  Uiso   1.00
C283   C     0.51467   0.50779   0.47819   0.00000  Uiso   1.00
C284   C     0.50385   0.51463   0.01996   0.00000  Uiso   1.00
C285   C     0.47250   0.54172   0.03985   0.00000  Uiso   1.00
C286   C     0.45572   0.56538   0.01974   0.00000  Uiso   1.00
H287   H     0.34886   0.52971   0.21903   0.00000  Uiso   1.00
H288   H     0.54063   0.33584   0.21786   0.00000  Uiso   1.00
H289   H     0.54857   0.41070   0.09778   0.00000  Uiso   1.00
H290   H     0.57987   0.43126   0.46271   0.00000  Uiso   1.00
H291   H     0.42597   0.60377   0.47209   0.00000  Uiso   1.00
H292   H     0.43557   0.58438   0.40229   0.00000  Uiso   1.00
H293   H     0.50560   0.48449   0.40464   0.00000  Uiso   1.00
H294   H     0.45897   0.54366   0.07132   0.00000  Uiso   1.00
N295   N     0.40227   0.61780   0.06090   0.00000  Uiso   1.00
N296   N     0.62791   0.43724   0.31079   0.00000  Uiso   1.00
N297   N     0.41409   0.65391   0.31518   0.00000  Uiso   1.00
N298   N     0.51474   0.57746   0.11581   0.00000  Uiso   1.00
O299   O     0.50000   0.50000   0.25000   0.00000  Uiso   1.00
O300   O     0.49027   0.45726   0.16625   0.00000  Uiso   1.00
O301   O     0.46020   0.53979   0.33749   0.00000  Uiso   1.00
O302   O     0.54421   0.50826   0.15877   0.00000  Uiso   1.00
O303   O     0.50532   0.49468   0.33749   0.00000  Uiso   1.00
O304   O     0.51182   0.41434   0.27821   0.00000  Uiso   1.00
O305   O     0.47914   0.59469   0.26767   0.00000  Uiso   1.00
O306   O     0.40785   0.46584   0.23607   0.00000  Uiso   1.00
O307   O     0.60119   0.52512   0.21806   0.00000  Uiso   1.00
O308   O     0.40323   0.52293   0.27820   0.00000  Uiso   1.00
O309   O     0.58773   0.48610   0.26768   0.00000  Uiso   1.00
O310   O     0.47133   0.40236   0.23607   0.00000  Uiso   1.00
O311   O     0.53771   0.58860   0.21806   0.00000  Uiso   1.00
Zn312  Zn    0.52577   0.47423   0.28278   0.00000  Uiso   1.00
Zn313  Zn    0.46792   0.45711   0.22258   0.00000  Uiso   1.00
Zn314  Zn    0.54500   0.52997   0.21188   0.00000  Uiso   1.00
Zn315  Zn    0.46131   0.53868   0.28277   0.00000  Uiso   1.00
Br316  Br    0.91023   0.37671   0.01553   0.00000  Uiso   1.00
Br317  Br    0.91844   0.48709   0.40650   0.00000  Uiso   1.00
C318   C     0.71956   0.49366   0.25815   0.00000  Uiso   1.00
C319   C     0.88039   0.48130   0.45847   0.00000  Uiso   1.00
C320   C     0.89109   0.45344   0.47899   0.00000  Uiso   1.00
C321   C     0.94751   0.50685   0.24152   0.00000  Uiso   1.00
C322   C     0.87692   0.45663   0.02001   0.00000  Uiso   1.00
C323   C     0.85561   0.49157   0.04072   0.00000  Uiso   1.00
C324   C     0.88601   0.42725   0.04086   0.00000  Uiso   1.00
C325   C     0.87607   0.43386   0.08169   0.00000  Uiso   1.00
C326   C     0.85402   0.50159   0.08108   0.00000  Uiso   1.00
C327   C     0.99303   0.51001   0.23966   0.00000  Uiso   1.00
C328   C     0.67435   0.48976   0.26259   0.00000  Uiso   1.00
C329   C     0.78381   0.56747   0.41772   0.00000  Uiso   1.00
C330   C     0.84641   0.65542   0.23938   0.00000  Uiso   1.00
C331   C     0.81697   0.34629   0.26283   0.00000  Uiso   1.00
C332   C     0.82301   0.38966   0.25848   0.00000  Uiso   1.00
C333   C     0.84321   0.61091   0.24159   0.00000  Uiso   1.00
C334   C     0.85468   0.47868   0.14412   0.00000  Uiso   1.00
C335   C     0.81238   0.52147   0.35605   0.00000  Uiso   1.00
C336   C     0.80655   0.53379   0.39831   0.00000  Uiso   1.00
C337   C     0.86184   0.47142   0.10161   0.00000  Uiso   1.00
C338   C     0.77893   0.57893   0.45767   0.00000  Uiso   1.00
C339   C     0.75935   0.59451   0.04259   0.00000  Uiso   1.00
C340   C     0.82565   0.51291   0.41897   0.00000  Uiso   1.00
C341   C     0.98176   0.46063   0.28943   0.00000  Uiso   1.00
C342   C     0.77832   0.66524   0.29192   0.00000  Uiso   1.00
C343   C     0.85061   0.54382   0.10036   0.00000  Uiso   1.00
C344   C     0.82542   0.52686   0.45809   0.00000  Uiso   1.00
C345   C     0.79838   0.55802   0.47860   0.00000  Uiso   1.00
C346   C     0.84801   0.50779   0.47819   0.00000  Uiso   1.00
C347   C     0.83718   0.51463   0.01996   0.00000  Uiso   1.00
C348   C     0.80584   0.54172   0.03985   0.00000  Uiso   1.00
C349   C     0.78906   0.56538   0.01974   0.00000  Uiso   1.00
H350   H     0.68219   0.52971   0.21903   0.00000  Uiso   1.00
H351   H     0.87397   0.33584   0.21786   0.00000  Uiso   1.00
H352   H     0.88191   0.41070   0.09778   0.00000  Uiso   1.00
H353   H     0.91321   0.43126   0.46271   0.00000  Uiso   1.00
H354   H     0.75931   0.60377   0.47209   0.00000  Uiso   1.00
H355   H     0.76890   0.58438   0.40229   0.00000  Uiso   1.00
H356   H     0.83893   0.48449   0.40464   0.00000  Uiso   1.00
H357   H     0.79230   0.54366   0.07132   0.00000  Uiso   1.00
N358   N     0.73560   0.61780   0.06090   0.00000  Uiso   1.00
N359   N     0.96125   0.43724   0.31079   0.00000  Uiso   1.00
N360   N     0.74742   0.65391   0.31518   0.00000  Uiso   1.00
N361   N     0.84807   0.57746   0.11581   0.00000  Uiso   1.00
O362   O     0.83333   0.50000   0.25000   0.00000  Uiso   1.00
O363   O     0.82360   0.45726   0.16625   0.00000  Uiso   1.00
O364   O     0.79354   0.53979   0.33749   0.00000  Uiso   1.00
O365   O     0.87755   0.50826   0.15877   0.00000  Uiso   1.00
O366   O     0.83865   0.49468   0.33749   0.00000  Uiso   1.00
O367   O     0.84515   0.41434   0.27821   0.00000  Uiso   1.00
O368   O     0.81247   0.59469   0.26767   0.00000  Uiso   1.00
O369   O     0.74119   0.46584   0.23607   0.00000  Uiso   1.00
O370   O     0.93452   0.52512   0.21806   0.00000  Uiso   1.00
O371   O     0.73656   0.52293   0.27820   0.00000  Uiso   1.00
O372   O     0.92106   0.48610   0.26768   0.00000  Uiso   1.00
O373   O     0.80467   0.40236   0.23607   0.00000  Uiso   1.00
O374   O     0.87104   0.58860   0.21806   0.00000  Uiso   1.00
Zn375  Zn    0.85910   0.47423   0.28278   0.00000  Uiso   1.00
Zn376  Zn    0.80125   0.45711   0.22258   0.00000  Uiso   1.00
Zn377  Zn    0.87833   0.52997   0.21188   0.00000  Uiso   1.00
Zn378  Zn    0.79465   0.53868   0.28277   0.00000  Uiso   1.00
Br379  Br    0.24356   0.71004   0.01553   0.00000  Uiso   1.00
Br380  Br    0.25178   0.82042   0.40650   0.00000  Uiso   1.00
C381   C     0.05289   0.82699   0.25815   0.00000  Uiso   1.00
C382   C     0.21373   0.81463   0.45847   0.00000  Uiso   1.00
C383   C     0.22442   0.78677   0.47899   0.00000  Uiso   1.00
C384   C     0.28084   0.84018   0.24152   0.00000  Uiso   1.00
C385   C     0.21026   0.78996   0.02001   0.00000  Uiso   1.00
C386   C     0.18894   0.82491   0.04072   0.00000  Uiso   1.00
C387   C     0.21934   0.76058   0.04086   0.00000  Uiso   1.00
C388   C     0.20941   0.76719   0.08169   0.00000  Uiso   1.00
C389   C     0.18736   0.83493   0.08108   0.00000  Uiso   1.00
C390   C     0.32636   0.84335   0.23966   0.00000  Uiso   1.00
C391   C     0.00768   0.82309   0.26259   0.00000  Uiso   1.00
C392   C     0.11714   0.90081   0.41772   0.00000  Uiso   1.00
C393   C     0.17974   0.98875   0.23938   0.00000  Uiso   1.00
C394   C     0.15030   0.67962   0.26283   0.00000  Uiso   1.00
C395   C     0.15635   0.72299   0.25848   0.00000  Uiso   1.00
C396   C     0.17654   0.94425   0.24159   0.00000  Uiso   1.00
C397   C     0.18801   0.81201   0.14412   0.00000  Uiso   1.00
C398   C     0.14572   0.85480   0.35605   0.00000  Uiso   1.00
C399   C     0.13989   0.86713   0.39831   0.00000  Uiso   1.00
C400   C     0.19517   0.80475   0.10161   0.00000  Uiso   1.00
C401   C     0.11226   0.91226   0.45767   0.00000  Uiso   1.00
C402   C     0.09268   0.92784   0.04259   0.00000  Uiso   1.00
C403   C     0.15898   0.84624   0.41897   0.00000  Uiso   1.00
C404   C     0.31509   0.79396   0.28943   0.00000  Uiso   1.00
C405   C     0.11166   0.99858   0.29192   0.00000  Uiso   1.00
C406   C     0.18395   0.87716   0.10036   0.00000  Uiso   1.00
C407   C     0.15875   0.86020   0.45809   0.00000  Uiso   1.00
C408   C     0.13171   0.89135   0.47860   0.00000  Uiso   1.00
C409   C     0.18134   0.84112   0.47819   0.00000  Uiso   1.00
C410   C     0.17052   0.84796   0.01996   0.00000  Uiso   1.00
C411   C     0.13917   0.87505   0.03985   0.00000  Uiso   1.00
C412   C     0.12239   0.89872   0.01974   0.00000  Uiso   1.00
H413   H     0.01552   0.86304   0.21903   0.00000  Uiso   1.00
H414   H     0.20730   0.66918   0.21786   0.00000  Uiso   1.00
H415   H     0.21524   0.74403   0.09778   0.00000  Uiso   1.00
H416   H     0.24654   0.76459   0.46271   0.00000  Uiso   1.00
H417   H     0.09264   0.93711   0.47209   0.00000  Uiso   1.00
H418   H     0.10223   0.91772   0.40229   0.00000  Uiso   1.00
H419   H     0.17226   0.81782   0.40464   0.00000  Uiso   1.00
H420   H     0.12563   0.87699   0.07132   0.00000  Uiso   1.00
N421   N     0.06894   0.95113   0.06090   0.00000  Uiso   1.00
N422   N     0.29458   0.77057   0.31079   0.00000  Uiso   1.00
N423   N     0.08075   0.98725   0.31518   0.00000  Uiso   1.00
N424   N     0.18140   0.91080   0.11581   0.00000  Uiso   1.00
O425   O     0.16667   0.83333   0.25000   0.00000  Uiso   1.00
O426   O     0.15693   0.79060   0.16625   0.00000  Uiso   1.00
O427   O     0.12687   0.87313   0.33749   0.00000  Uiso   1.00
O428   O     0.21088   0.84159   0.15877   0.00000  Uiso   1.00
O429   O     0.17198   0.82802   0.33749   0.00000  Uiso   1.00
O430   O     0.17849   0.74768   0.27821   0.00000  Uiso   1.00
O431   O     0.14581   0.92803   0.26767   0.00000  Uiso   1.00
O432   O     0.07452   0.79917   0.23607   0.00000  Uiso   1.00
O433   O     0.26785   0.85845   0.21806   0.00000  Uiso   1.00
O434   O     0.06990   0.85627   0.27820   0.00000  Uiso   1.00
O435   O     0.25440   0.81944   0.26768   0.00000  Uiso   1.00
O436   O     0.13800   0.73570   0.23607   0.00000  Uiso   1.00
O437   O     0.20437   0.92193   0.21806   0.00000  Uiso   1.00
Zn438  Zn    0.19244   0.80756   0.28278   0.00000  Uiso   1.00
Zn439  Zn    0.13459   0.79044   0.22258   0.00000  Uiso   1.00
Zn440  Zn    0.21166   0.86331   0.21188   0.00000  Uiso   1.00
Zn441  Zn    0.12798   0.87202   0.28277   0.00000  Uiso   1.00
Br442  Br    0.57690   0.71004   0.01553   0.00000  Uiso   1.00
Br443  Br    0.58511   0.82042   0.40650   0.00000  Uiso   1.00
C444   C     0.38623   0.82699   0.25815   0.00000  Uiso   1.00
C445   C     0.54706   0.81463   0.45847   0.00000  Uiso   1.00
C446   C     0.55776   0.78677   0.47899   0.00000  Uiso   1.00
C447   C     0.61418   0.84018   0.24152   0.00000  Uiso   1.00
C448   C     0.54359   0.78996   0.02001   0.00000  Uiso   1.00
C449   C     0.52227   0.82491   0.04072   0.00000  Uiso   1.00
C450   C     0.55268   0.76058   0.04086   0.00000  Uiso   1.00
C451   C     0.54274   0.76719   0.08169   0.00000  Uiso   1.00
C452   C     0.52069   0.83493   0.08108   0.00000  Uiso   1.00
C453   C     0.65969   0.84335   0.23966   0.00000  Uiso   1.00
C454   C     0.34102   0.82309   0.26259   0.00000  Uiso   1.00
C455   C     0.45047   0.90081   0.41772   0.00000  Uiso   1.00
C456   C     0.51308   0.98875   0.23938   0.00000  Uiso   1.00
C457   C     0.48364   0.67962   0.26283   0.00000  Uiso   1.00
C458   C     0.48968   0.72299   0.25848   0.00000  Uiso   1.00
C459   C     0.50987   0.94425   0.24159   0.00000  Uiso   1.00
C460   C     0.52134   0.81201   0.14412   0.00000  Uiso   1.00
C461   C     0.47905   0.85480   0.35605   0.00000  Uiso   1.00
C462   C     0.47322   0.86713   0.39831   0.00000  Uiso   1.00
C463   C     0.52850   0.80475   0.10161   0.00000  Uiso   1.00
C464   C     0.44560   0.91226   0.45767   0.00000  Uiso   1.00
C465   C     0.42602   0.92784   0.04259   0.00000  Uiso   1.00
C466   C     0.49232   0.84624   0.41897   0.00000  Uiso   1.00
C467   C     0.64843   0.79396   0.28943   0.00000  Uiso   1.00
C468   C     0.44499   0.99858   0.29192   0.00000  Uiso   1.00
C469   C     0.51728   0.87716   0.10036   0.00000  Uiso   1.00
C470   C     0.49209   0.86020   0.45809   0.00000  Uiso   1.00
C471   C     0.46504   0.89135   0.47860   0.00000  Uiso   1.00
C472   C     0.51467   0.84112   0.47819   0.00000  Uiso   1.00
C473   C     0.50385   0.84796   0.01996   0.00000  Uiso   1.00
C474   C     0.47250   0.87505   0.03985   0.00000  Uiso   1.00
C475   C     0.45572   0.89872   0.01974   0.00000  Uiso   1.00
H476   H     0.34886   0.86304   0.21903   0.00000  Uiso   1.00
H477   H     0.54063   0.66918   0.21786   0.00000  Uiso   1.00
H478   H     0.54857   0.74403   0.09778   0.00000  Uiso   1.00
H479   H     0.57987   0.76459   0.46271   0.00000  Uiso   1.00
H480   H     0.42597   0.93711   0.47209   0.00000  Uiso   1.00
H481   H     0.43557   0.91772   0.40229   0.00000  Uiso   1.00
H482   H     0.50560   0.81782   0.40464   0.00000  Uiso   1.00
H483   H     0.45897   0.87699   0.07132   0.00000  Uiso   1.00
N484   N     0.40227   0.95113   0.06090   0.00000  Uiso   1.00
N485   N     0.62791   0.77057   0.31079   0.00000  Uiso   1.00
N486   N     0.41409   0.98725   0.31518   0.00000  Uiso   1.00
N487   N     0.51474   0.91080   0.11581   0.00000  Uiso   1.00
O488   O     0.50000   0.83333   0.25000   0.00000  Uiso   1.00
O489   O     0.49027   0.79060   0.16625   0.00000  Uiso   1.00
O490   O     0.46020   0.87313   0.33749   0.00000  Uiso   1.00
O491   O     0.54421   0.84159   0.15877   0.00000  Uiso   1.00
O492   O     0.50532   0.82802   0.33749   0.00000  Uiso   1.00
O493   O     0.51182   0.74768   0.27821   0.00000  Uiso   1.00
O494   O     0.47914   0.92803   0.26767   0.00000  Uiso   1.00
O495   O     0.40785   0.79917   0.23607   0.00000  Uiso   1.00
O496   O     0.60119   0.85845   0.21806   0.00000  Uiso   1.00
O497   O     0.40323   0.85627   0.27820   0.00000  Uiso   1.00
O498   O     0.58773   0.81944   0.26768   0.00000  Uiso   1.00
O499   O     0.47133   0.73570   0.23607   0.00000  Uiso   1.00
O500   O     0.53771   0.92193   0.21806   0.00000  Uiso   1.00
Zn501  Zn    0.52577   0.80756   0.28278   0.00000  Uiso   1.00
Zn502  Zn    0.46792   0.79044   0.22258   0.00000  Uiso   1.00
Zn503  Zn    0.54500   0.86331   0.21188   0.00000  Uiso   1.00
Zn504  Zn    0.46131   0.87202   0.28277   0.00000  Uiso   1.00
Br505  Br    0.91023   0.71004   0.01553   0.00000  Uiso   1.00
Br506  Br    0.91844   0.82042   0.40650   0.00000  Uiso   1.00
C507   C     0.71956   0.82699   0.25815   0.00000  Uiso   1.00
C508   C     0.88039   0.81463   0.45847   0.00000  Uiso   1.00
C509   C     0.89109   0.78677   0.47899   0.00000  Uiso   1.00
C510   C     0.94751   0.84018   0.24152   0.00000  Uiso   1.00
C511   C     0.87692   0.78996   0.02001   0.00000  Uiso   1.00
C512   C     0.85561   0.82491   0.04072   0.00000  Uiso   1.00
C513   C     0.88601   0.76058   0.04086   0.00000  Uiso   1.00
C514   C     0.87607   0.76719   0.08169   0.00000  Uiso   1.00
C515   C     0.85402   0.83493   0.08108   0.00000  Uiso   1.00
C516   C     0.99303   0.84335   0.23966   0.00000  Uiso   1.00
C517   C     0.67435   0.82309   0.26259   0.00000  Uiso   1.00
C518   C     0.78381   0.90081   0.41772   0.00000  Uiso   1.00
C519   C     0.84641   0.98875   0.23938   0.00000  Uiso   1.00
C520   C     0.81697   0.67962   0.26283   0.00000  Uiso   1.00
C521   C     0.82301   0.72299   0.25848   0.00000  Uiso   1.00
C522   C     0.84321   0.94425   0.24159   0.00000  Uiso   1.00
C523   C     0.85468   0.81201   0.14412   0.00000  Uiso   1.00
C524   C     0.81238   0.85480   0.35605   0.00000  Uiso   1.00
C525   C     0.80655   0.86713   0.39831   0.00000  Uiso   1.00
C526   C     0.86184   0.80475   0.10161   0.00000  Uiso   1.00
C527   C     0.77893   0.91226   0.45767   0.00000  Uiso   1.00
C528   C     0.75935   0.92784   0.04259   0.00000  Uiso   1.00
C529   C     0.82565   0.84624   0.41897   0.00000  Uiso   1.00
C530   C     0.98176   0.79396   0.28943   0.00000  Uiso   1.00
C531   C     0.77832   0.99858   0.29192   0.00000  Uiso   1.00
C532   C     0.85061   0.87716   0.10036   0.00000  Uiso   1.00
C533   C     0.82542   0.86020   0.45809   0.00000  Uiso   1.00
C534   C     0.79838   0.89135   0.47860   0.00000  Uiso   1.00
C535   C     0.84801   0.84112   0.47819   0.00000  Uiso   1.00
C536   C     0.83718   0.84796   0.01996   0.00000  Uiso   1.00
C537   C     0.80584   0.87505   0.03985   0.00000  Uiso   1.00
C538   C     0.78906   0.89872   0.01974   0.00000  Uiso   1.00
H539   H     0.68219   0.86304   0.21903   0.00000  Uiso   1.00
H540   H     0.87397   0.66918   0.21786   0.00000  Uiso   1.00
H541   H     0.88191   0.74403   0.09778   0.00000  Uiso   1.00
H542   H     0.91321   0.76459   0.46271   0.00000  Uiso   1.00
H543   H     0.75931   0.93711   0.47209   0.00000  Uiso   1.00
H544   H     0.76890   0.91772   0.40229   0.00000  Uiso   1.00
H545   H     0.83893   0.81782   0.40464   0.00000  Uiso   1.00
H546   H     0.79230   0.87699   0.07132   0.00000  Uiso   1.00
N547   N     0.73560   0.95113   0.06090   0.00000  Uiso   1.00
N548   N     0.96125   0.77057   0.31079   0.00000  Uiso   1.00
N549   N     0.74742   0.98725   0.31518   0.00000  Uiso   1.00
N550   N     0.84807   0.91080   0.11581   0.00000  Uiso   1.00
O551   O     0.83333   0.83333   0.25000   0.00000  Uiso   1.00
O552   O     0.82360   0.79060   0.16625   0.00000  Uiso   1.00
O553   O     0.79354   0.87313   0.33749   0.00000  Uiso   1.00
O554   O     0.87755   0.84159   0.15877   0.00000  Uiso   1.00
O555   O     0.83865   0.82802   0.33749   0.00000  Uiso   1.00
O556   O     0.84515   0.74768   0.27821   0.00000  Uiso   1.00
O557   O     0.81247   0.92803   0.26767   0.00000  Uiso   1.00
O558   O     0.74119   0.79917   0.23607   0.00000  Uiso   1.00
O559   O     0.93452   0.85845   0.21806   0.00000  Uiso   1.00
O560   O     0.73656   0.85627   0.27820   0.00000  Uiso   1.00
O561   O     0.92106   0.81944   0.26768   0.00000  Uiso   1.00
O562   O     0.80467   0.73570   0.23607   0.00000  Uiso   1.00
O563   O     0.87104   0.92193   0.21806   0.00000  Uiso   1.00
Zn564  Zn    0.85910   0.80756   0.28278   0.00000  Uiso   1.00
Zn565  Zn    0.80125   0.79044   0.22258   0.00000  Uiso   1.00
Zn566  Zn    0.87833   0.86331   0.21188   0.00000  Uiso   1.00
Zn567  Zn    0.79465   0.87202   0.28277   0.00000  Uiso   1.00
Br568  Br    0.24356   0.04338   0.51553   0.00000  Uiso   1.00
Br569  Br    0.25178   0.15376   0.90650   0.00000  Uiso   1.00
C570   C     0.05289   0.16033   0.75815   0.00000  Uiso   1.00
C571   C     0.21373   0.14797   0.95847   0.00000  Uiso   1.00
C572   C     0.22442   0.12011   0.97899   0.00000  Uiso   1.00
C573   C     0.28084   0.17351   0.74152   0.00000  Uiso   1.00
C574   C     0.21026   0.12329   0.52001   0.00000  Uiso   1.00
C575   C     0.18894   0.15824   0.54072   0.00000  Uiso   1.00
C576   C     0.21934   0.09391   0.54086   0.00000  Uiso   1.00
C577   C     0.20941   0.10052   0.58169   0.00000  Uiso   1.00
C578   C     0.18736   0.16826   0.58108   0.00000  Uiso   1.00
C579   C     0.32636   0.17668   0.73966   0.00000  Uiso   1.00
C580   C     0.00768   0.15643   0.76259   0.00000  Uiso   1.00
C581   C     0.11714   0.23414   0.91772   0.00000  Uiso   1.00
C582   C     0.17974   0.32209   0.73938   0.00000  Uiso   1.00
C583   C     0.15030   0.01295   0.76283   0.00000  Uiso   1.00
C584   C     0.15635   0.05633   0.75848   0.00000  Uiso   1.00
C585   C     0.17654   0.27758   0.74159   0.00000  Uiso   1.00
C586   C     0.18801   0.14534   0.64412   0.00000  Uiso   1.00
C587   C     0.14572   0.18813   0.85605   0.00000  Uiso   1.00
C588   C     0.13989   0.20046   0.89831   0.00000  Uiso   1.00
C589   C     0.19517   0.13809   0.60161   0.00000  Uiso   1.00
C590   C     0.11226   0.24560   0.95767   0.00000  Uiso   1.00
C591   C     0.09268   0.26118   0.54259   0.00000  Uiso   1.00
C592   C     0.15898   0.17957   0.91897   0.00000  Uiso   1.00
C593   C     0.31509   0.12729   0.78943   0.00000  Uiso   1.00
C594   C     0.11166   0.33191   0.79192   0.00000  Uiso   1.00
C595   C     0.18395   0.21049   0.60036   0.00000  Uiso   1.00
C596   C     0.15875   0.19353   0.95809   0.00000  Uiso   1.00
C597   C     0.13171   0.22468   0.97860   0.00000  Uiso   1.00
C598   C     0.18134   0.17445   0.97819   0.00000  Uiso   1.00
C599   C     0.17052   0.18129   0.51996   0.00000  Uiso   1.00
C600   C     0.13917   0.20839   0.53985   0.00000  Uiso   1.00
C601   C     0.12239   0.23205   0.51974   0.00000  Uiso   1.00
H602   H     0.01552   0.19638   0.71903   0.00000  Uiso   1.00
H603   H     0.20730   0.00251   0.71786   0.00000  Uiso   1.00
H604   H     0.21524   0.07736   0.59778   0.00000  Uiso   1.00
H605   H     0.24654   0.09792   0.96271   0.00000  Uiso   1.00
H606   H     0.09264   0.27044   0.97209   0.00000  Uiso   1.00
H607   H     0.10223   0.25105   0.90229   0.00000  Uiso   1.00
H608   H     0.17226   0.15115   0.90464   0.00000  Uiso   1.00
H609   H     0.12563   0.21032   0.57132   0.00000  Uiso   1.00
N610   N     0.06894   0.28446   0.56090   0.00000  Uiso   1.00
N611   N     0.29458   0.10390   0.81079   0.00000  Uiso   1.00
N612   N     0.08075   0.32058   0.81518   0.00000  Uiso   1.00
N613   N     0.18140   0.24413   0.61581   0.00000  Uiso   1.00
O614   O     0.16667   0.16667   0.75000   0.00000  Uiso   1.00
O615   O     0.15693   0.12393   0.66625   0.00000  Uiso   1.00
O616   O     0.12687   0.20646   0.83749   0.00000  Uiso   1.00
O617   O     0.21088   0.17493   0.65877   0.00000  Uiso   1.00
O618   O     0.17198   0.16135   0.83749   0.00000  Uiso   1.00
O619   O     0.17849   0.08101   0.77821   0.00000  Uiso   1.00
O620   O     0.14581   0.26136   0.76767   0.00000  Uiso   1.00
O621   O     0.07452   0.13251   0.73607   0.00000  Uiso   1.00
O622   O     0.26785   0.19179   0.71806   0.00000  Uiso   1.00
O623   O     0.06990   0.18960   0.77820   0.00000  Uiso   1.00
O624   O     0.25440   0.15277   0.76768   0.00000  Uiso   1.00
O625   O     0.13800   0.06903   0.73607   0.00000  Uiso   1.00
O626   O     0.20437   0.25527   0.71806   0.00000  Uiso   1.00
Zn627  Zn    0.19244   0.14090   0.78278   0.00000  Uiso   1.00
Zn628  Zn    0.13459   0.12378   0.72258   0.00000  Uiso   1.00
Zn629  Zn    0.21166   0.19664   0.71188   0.00000  Uiso   1.00
Zn630  Zn    0.12798   0.20535   0.78277   0.00000  Uiso   1.00
Br631  Br    0.57690   0.04338   0.51553   0.00000  Uiso   1.00
Br632  Br    0.58511   0.15376   0.90650   0.00000  Uiso   1.00
C633   C     0.38623   0.16033   0.75815   0.00000  Uiso   1.00
C634   C     0.54706   0.14797   0.95847   0.00000  Uiso   1.00
C635   C     0.55776   0.12011   0.97899   0.00000  Uiso   1.00
C636   C     0.61418   0.17351   0.74152   0.00000  Uiso   1.00
C637   C     0.54359   0.12329   0.52001   0.00000  Uiso   1.00
C638   C     0.52227   0.15824   0.54072   0.00000  Uiso   1.00
C639   C     0.55268   0.09391   0.54086   0.00000  Uiso   1.00
C640   C     0.54274   0.10052   0.58169   0.00000  Uiso   1.00
C641   C     0.52069   0.16826   0.58108   0.00000  Uiso   1.00
C642   C     0.65969   0.17668   0.73966   0.00000  Uiso   1.00
C643   C     0.34102   0.15643   0.76259   0.00000  Uiso   1.00
C644   C     0.45047   0.23414   0.91772   0.00000  Uiso   1.00
C645   C     0.51308   0.32209   0.73938   0.00000  Uiso   1.00
C646   C     0.48364   0.01295   0.76283   0.00000  Uiso   1.00
C647   C     0.48968   0.05633   0.75848   0.00000  Uiso   1.00
C648   C     0.50987   0.27758   0.74159   0.00000  Uiso   1.00
C649   C     0.52134   0.14534   0.64412   0.00000  Uiso   1.00
C650   C     0.47905   0.18813   0.85605   0.00000  Uiso   1.00
C651   C     0.47322   0.20046   0.89831   0.00000  Uiso   1.00
C652   C     0.52850   0.13809   0.60161   0.00000  Uiso   1.00
C653   C     0.44560   0.24560   0.95767   0.00000  Uiso   1.00
C654   C     0.42602   0.26118   0.54259   0.00000  Uiso   1.00
C655   C     0.49232   0.17957   0.91897   0.00000  Uiso   1.00
C656   C     0.64843   0.12729   0.78943   0.00000  Uiso   1.00
C657   C     0.44499   0.33191   0.79192   0.00000  Uiso   1.00
C658   C     0.51728   0.21049   0.60036   0.00000  Uiso   1.00
C659   C     0.49209   0.19353   0.95809   0.00000  Uiso   1.00
C660   C     0.46504   0.22468   0.97860   0.00000  Uiso   1.00
C661   C     0.51467   0.17445   0.97819   0.00000  Uiso   1.00
C662   C     0.50385   0.18129   0.51996   0.00000  Uiso   1.00
C663   C     0.47250   0.20839   0.53985   0.00000  Uiso   1.00
C664   C     0.45572   0.23205   0.51974   0.00000  Uiso   1.00
H665   H     0.34886   0.19638   0.71903   0.00000  Uiso   1.00
H666   H     0.54063   0.00251   0.71786   0.00000  Uiso   1.00
H667   H     0.54857   0.07736   0.59778   0.00000  Uiso   1.00
H668   H     0.57987   0.09792   0.96271   0.00000  Uiso   1.00
H669   H     0.42597   0.27044   0.97209   0.00000  Uiso   1.00
H670   H     0.43557   0.25105   0.90229   0.00000  Uiso   1.00
H671   H     0.50560   0.15115   0.90464   0.00000  Uiso   1.00
H672   H     0.45897   0.21032   0.57132   0.00000  Uiso   1.00
N673   N     0.40227   0.28446   0.56090   0.00000  Uiso   1.00
N674   N     0.62791   0.10390   0.81079   0.00000  Uiso   1.00
N675   N     0.41409   0.32058   0.81518   0.00000  Uiso   1.00
N676   N     0.51474   0.24413   0.61581   0.00000  Uiso   1.00
O677   O     0.50000   0.16667   0.75000   0.00000  Uiso   1.00
O678   O     0.49027   0.12393   0.66625   0.00000  Uiso   1.00
O679   O     0.46020   0.20646   0.83749   0.00000  Uiso   1.00
O680   O     0.54421   0.17493   0.65877   0.00000  Uiso   1.00
O681   O     0.50532   0.16135   0.83749   0.00000  Uiso   1.00
O682   O     0.51182   0.08101   0.77821   0.00000  Uiso   1.00
O683   O     0.47914   0.26136   0.76767   0.00000  Uiso   1.00
O684   O     0.40785   0.13251   0.73607   0.00000  Uiso   1.00
O685   O     0.60119   0.19179   0.71806   0.00000  Uiso   1.00
O686   O     0.40323   0.18960   0.77820   0.00000  Uiso   1.00
O687   O     0.58773   0.15277   0.76768   0.00000  Uiso   1.00
O688   O     0.47133   0.06903   0.73607   0.00000  Uiso   1.00
O689   O     0.53771   0.25527   0.71806   0.00000  Uiso   1.00
Zn690  Zn    0.52577   0.14090   0.78278   0.00000  Uiso   1.00
Zn691  Zn    0.46792   0.12378   0.72258   0.00000  Uiso   1.00
Zn692  Zn    0.54500   0.19664   0.71188   0.00000  Uiso   1.00
Zn693  Zn    0.46131   0.20535   0.78277   0.00000  Uiso   1.00
Br694  Br    0.91023   0.04338   0.51553   0.00000  Uiso   1.00
Br695  Br    0.91844   0.15376   0.90650   0.00000  Uiso   1.00
C696   C     0.71956   0.16033   0.75815   0.00000  Uiso   1.00
C697   C     0.88039   0.14797   0.95847   0.00000  Uiso   1.00
C698   C     0.89109   0.12011   0.97899   0.00000  Uiso   1.00
C699   C     0.94751   0.17351   0.74152   0.00000  Uiso   1.00
C700   C     0.87692   0.12329   0.52001   0.00000  Uiso   1.00
C701   C     0.85561   0.15824   0.54072   0.00000  Uiso   1.00
C702   C     0.88601   0.09391   0.54086   0.00000  Uiso   1.00
C703   C     0.87607   0.10052   0.58169   0.00000  Uiso   1.00
C704   C     0.85402   0.16826   0.58108   0.00000  Uiso   1.00
C705   C     0.99303   0.17668   0.73966   0.00000  Uiso   1.00
C706   C     0.67435   0.15643   0.76259   0.00000  Uiso   1.00
C707   C     0.78381   0.23414   0.91772   0.00000  Uiso   1.00
C708   C     0.84641   0.32209   0.73938   0.00000  Uiso   1.00
C709   C     0.81697   0.01295   0.76283   0.00000  Uiso   1.00
C710   C     0.82301   0.05633   0.75848   0.00000  Uiso   1.00
C711   C     0.84321   0.27758   0.74159   0.00000  Uiso   1.00
C712   C     0.85468   0.14534   0.64412   0.00000  Uiso   1.00
C713   C     0.81238   0.18813   0.85605   0.00000  Uiso   1.00
C714   C     0.80655   0.20046   0.89831   0.00000  Uiso   1.00
C715   C     0.86184   0.13809   0.60161   0.00000  Uiso   1.00
C716   C     0.77893   0.24560   0.95767   0.00000  Uiso   1.00
C717   C     0.75935   0.26118   0.54259   0.00000  Uiso   1.00
C718   C     0.82565   0.17957   0.91897   0.00000  Uiso   1.00
C719   C     0.98176   0.12729   0.78943   0.00000  Uiso   1.00
C720   C     0.77832   0.33191   0.79192   0.00000  Uiso   1.00
C721   C     0.85061   0.21049   0.60036   0.00000  Uiso   1.00
C722   C     0.82542   0.19353   0.95809   0.00000  Uiso   1.00
C723   C     0.79838   0.22468   0.97860   0.00000  Uiso   1.00
C724   C     0.84801   0.17445   0.97819   0.00000  Uiso   1.00
C725   C     0.83718   0.18129   0.51996   0.00000  Uiso   1.00
C726   C     0.80584   0.20839   0.53985   0.00000  Uiso   1.00
C727   C     0.78906   0.23205   0.51974   0.00000  Uiso   1.00
H728   H     0.68219   0.19638   0.71903   0.00000  Uiso   1.00
H729   H     0.87397   0.00251   0.71786   0.00000  Uiso   1.00
H730   H     0.88191   0.07736   0.59778   0.00000  Uiso   1.00
H731   H     0.91321   0.09792   0.96271   0.00000  Uiso   1.00
H732   H     0.75931   0.27044   0.97209   0.00000  Uiso   1.00
H733   H     0.76890   0.25105   0.90229   0.00000  Uiso   1.00
H734   H     0.83893   0.15115   0.90464   0.00000  Uiso   1.00
H735   H     0.79230   0.21032   0.57132   0.00000  Uiso   1.00
N736   N     0.73560   0.28446   0.56090   0.00000  Uiso   1.00
N737   N     0.96125   0.10390   0.81079   0.00000  Uiso   1.00
N738   N     0.74742   0.32058   0.81518   0.00000  Uiso   1.00
N739   N     0.84807   0.24413   0.61581   0.00000  Uiso   1.00
O740   O     0.83333   0.16667   0.75000   0.00000  Uiso   1.00
O741   O     0.82360   0.12393   0.66625   0.00000  Uiso   1.00
O742   O     0.79354   0.20646   0.83749   0.00000  Uiso   1.00
O743   O     0.87755   0.17493   0.65877   0.00000  Uiso   1.00
O744   O     0.83865   0.16135   0.83749   0.00000  Uiso   1.00
O745   O     0.84515   0.08101   0.77821   0.00000  Uiso   1.00
O746   O     0.81247   0.26136   0.76767   0.00000  Uiso   1.00
O747   O     0.74119   0.13251   0.73607   0.00000  Uiso   1.00
O748   O     0.93452   0.19179   0.71806   0.00000  Uiso   1.00
O749   O     0.73656   0.18960   0.77820   0.00000  Uiso   1.00
O750   O     0.92106   0.15277   0.76768   0.00000  Uiso   1.00
O751   O     0.80467   0.06903   0.73607   0.00000  Uiso   1.00
O752   O     0.87104   0.25527   0.71806   0.00000  Uiso   1.00
Zn753  Zn    0.85910   0.14090   0.78278   0.00000  Uiso   1.00
Zn754  Zn    0.80125   0.12378   0.72258   0.00000  Uiso   1.00
Zn755  Zn    0.87833   0.19664   0.71188   0.00000  Uiso   1.00
Zn756  Zn    0.79465   0.20535   0.78277   0.00000  Uiso   1.00
Br757  Br    0.24356   0.37671   0.51553   0.00000  Uiso   1.00
Br758  Br    0.25178   0.48709   0.90650   0.00000  Uiso   1.00
C759   C     0.05289   0.49366   0.75815   0.00000  Uiso   1.00
C760   C     0.21373   0.48130   0.95847   0.00000  Uiso   1.00
C761   C     0.22442   0.45344   0.97899   0.00000  Uiso   1.00
C762   C     0.28084   0.50685   0.74152   0.00000  Uiso   1.00
C763   C     0.21026   0.45663   0.52001   0.00000  Uiso   1.00
C764   C     0.18894   0.49157   0.54072   0.00000  Uiso   1.00
C765   C     0.21934   0.42725   0.54086   0.00000  Uiso   1.00
C766   C     0.20941   0.43386   0.58169   0.00000  Uiso   1.00
C767   C     0.18736   0.50159   0.58108   0.00000  Uiso   1.00
C768   C     0.32636   0.51001   0.73966   0.00000  Uiso   1.00
C769   C     0.00768   0.48976   0.76259   0.00000  Uiso   1.00
C770   C     0.11714   0.56747   0.91772   0.00000  Uiso   1.00
C771   C     0.17974   0.65542   0.73938   0.00000  Uiso   1.00
C772   C     0.15030   0.34629   0.76283   0.00000  Uiso   1.00
C773   C     0.15635   0.38966   0.75848   0.00000  Uiso   1.00
C774   C     0.17654   0.61091   0.74159   0.00000  Uiso   1.00
C775   C     0.18801   0.47868   0.64412   0.00000  Uiso   1.00
C776   C     0.14572   0.52147   0.85605   0.00000  Uiso   1.00
C777   C     0.13989   0.53379   0.89831   0.00000  Uiso   1.00
C778   C     0.19517   0.47142   0.60161   0.00000  Uiso   1.00
C779   C     0.11226   0.57893   0.95767   0.00000  Uiso   1.00
C780   C     0.09268   0.59451   0.54259   0.00000  Uiso   1.00
C781   C     0.15898   0.51291   0.91897   0.00000  Uiso   1.00
C782   C     0.31509   0.46063   0.78943   0.00000  Uiso   1.00
C783   C     0.11166   0.66524   0.79192   0.00000  Uiso   1.00
C784   C     0.18395   0.54382   0.60036   0.00000  Uiso   1.00
C785   C     0.15875   0.52686   0.95809   0.00000  Uiso   1.00
C786   C     0.13171   0.55802   0.97860   0.00000  Uiso   1.00
C787   C     0.18134   0.50779   0.97819   0.00000  Uiso   1.00
C788   C     0.17052   0.51463   0.51996   0.00000  Uiso   1.00
C789   C     0.13917   0.54172   0.53985   0.00000  Uiso   1.00
C790   C     0.12239   0.56538   0.51974   0.00000  Uiso   1.00
H791   H     0.01552   0.52971   0.71903   0.00000  Uiso   1.00
H792   H     0.20730   0.33584   0.71786   0.00000  Uiso   1.00
H793   H     0.21524   0.41070   0.59778   0.00000  Uiso   1.00
H794   H     0.24654   0.43126   0.96271   0.00000  Uiso   1.00
H795   H     0.09264   0.60377   0.97209   0.00000  Uiso   1.00
H796   H     0.10223   0.58438   0.90229   0.00000  Uiso   1.00
H797   H     0.17226   0.48449   0.90464   0.00000  Uiso   1.00
H798   H     0.12563   0.54366   0.57132   0.00000  Uiso   1.00
N799   N     0.06894   0.61780   0.56090   0.00000  Uiso   1.00
N800   N     0.29458   0.43724   0.81079   0.00000  Uiso   1.00
N801   N     0.08075   0.65391   0.81518   0.00000  Uiso   1.00
N802   N     0.18140   0.57746   0.61581   0.00000  Uiso   1.00
O803   O     0.16667   0.50000   0.75000   0.00000  Uiso   1.00
O804   O     0.15693   0.45726   0.66625   0.00000  Uiso   1.00
O805   O     0.12687   0.53979   0.83749   0.00000  Uiso   1.00
O806   O     0.21088   0.50826   0.65877   0.00000  Uiso   1.00
O807   O     0.17198   0.49468   0.83749   0.00000  Uiso   1.00
O808   O     0.17849   0.41434   0.77821   0.00000  Uiso   1.00
O809   O     0.14581   0.59469   0.76767   0.00000  Uiso   1.00
O810   O     0.07452   0.46584   0.73607   0.00000  Uiso   1.00
O811   O     0.26785   0.52512   0.71806   0.00000  Uiso   1.00
O812   O     0.06990   0.52293   0.77820   0.00000  Uiso   1.00
O813   O     0.25440   0.48610   0.76768   0.00000  Uiso   1.00
O814   O     0.13800   0.40236   0.73607   0.00000  Uiso   1.00
O815   O     0.20437   0.58860   0.71806   0.00000  Uiso   1.00
Zn816  Zn    0.19244   0.47423   0.78278   0.00000  Uiso   1.00
Zn817  Zn    0.13459   0.45711   0.72258   0.00000  Uiso   1.00
Zn818  Zn    0.21166   0.52997   0.71188   0.00000  Uiso   1.00
Zn819  Zn    0.12798   0.53868   0.78277   0.00000  Uiso   1.00
Br820  Br    0.57690   0.37671   0.51553   0.00000  Uiso   1.00
Br821  Br    0.58511   0.48709   0.90650   0.00000  Uiso   1.00
C822   C     0.38623   0.49366   0.75815   0.00000  Uiso   1.00
C823   C     0.54706   0.48130   0.95847   0.00000  Uiso   1.00
C824   C     0.55776   0.45344   0.97899   0.00000  Uiso   1.00
C825   C     0.61418   0.50685   0.74152   0.00000  Uiso   1.00
C826   C     0.54359   0.45663   0.52001   0.00000  Uiso   1.00
C827   C     0.52227   0.49157   0.54072   0.00000  Uiso   1.00
C828   C     0.55268   0.42725   0.54086   0.00000  Uiso   1.00
C829   C     0.54274   0.43386   0.58169   0.00000  Uiso   1.00
C830   C     0.52069   0.50159   0.58108   0.00000  Uiso   1.00
C831   C     0.65969   0.51001   0.73966   0.00000  Uiso   1.00
C832   C     0.34102   0.48976   0.76259   0.00000  Uiso   1.00
C833   C     0.45047   0.56747   0.91772   0.00000  Uiso   1.00
C834   C     0.51308   0.65542   0.73938   0.00000  Uiso   1.00
C835   C     0.48364   0.34629   0.76283   0.00000  Uiso   1.00
C836   C     0.48968   0.38966   0.75848   0.00000  Uiso   1.00
C837   C     0.50987   0.61091   0.74159   0.00000  Uiso   1.00
C838   C     0.52134   0.47868   0.64412   0.00000  Uiso   1.00
C839   C     0.47905   0.52147   0.85605   0.00000  Uiso   1.00
C840   C     0.47322   0.53379   0.89831   0.00000  Uiso   1.00
C841   C     0.52850   0.47142   0.60161   0.00000  Uiso   1.00
C842   C     0.44560   0.57893   0.95767   0.00000  Uiso   1.00
C843   C     0.42602   0.59451   0.54259   0.00000  Uiso   1.00
C844   C     0.49232   0.51291   0.91897   0.00000  Uiso   1.00
C845   C     0.64843   0.46063   0.78943   0.00000  Uiso   1.00
C846   C     0.44499   0.66524   0.79192   0.00000  Uiso   1.00
C847   C     0.51728   0.54382   0.60036   0.00000  Uiso   1.00
C848   C     0.49209   0.52686   0.95809   0.00000  Uiso   1.00
C849   C     0.46504   0.55802   0.97860   0.00000  Uiso   1.00
C850   C     0.51467   0.50779   0.97819   0.00000  Uiso   1.00
C851   C     0.50385   0.51463   0.51996   0.00000  Uiso   1.00
C852   C     0.47250   0.54172   0.53985   0.00000  Uiso   1.00
C853   C     0.45572   0.56538   0.51974   0.00000  Uiso   1.00
H854   H     0.34886   0.52971   0.71903   0.00000  Uiso   1.00
H855   H     0.54063   0.33584   0.71786   0.00000  Uiso   1.00
H856   H     0.54857   0.41070   0.59778   0.00000  Uiso   1.00
H857   H     0.57987   0.43126   0.96271   0.00000  Uiso   1.00
H858   H     0.42597   0.60377   0.97209   0.00000  Uiso   1.00
H859   H     0.43557   0.58438   0.90229   0.00000  Uiso   1.00
H860   H     0.50560   0.48449   0.90464   0.00000  Uiso   1.00
H861   H     0.45897   0.54366   0.57132   0.00000  Uiso   1.00
N862   N     0.40227   0.61780   0.56090   0.00000  Uiso   1.00
N863   N     0.62791   0.43724   0.81079   0.00000  Uiso   1.00
N864   N     0.41409   0.65391   0.81518   0.00000  Uiso   1.00
N865   N     0.51474   0.57746   0.61581   0.00000  Uiso   1.00
O866   O     0.50000   0.50000   0.75000   0.00000  Uiso   1.00
O867   O     0.49027   0.45726   0.66625   0.00000  Uiso   1.00
O868   O     0.46020   0.53979   0.83749   0.00000  Uiso   1.00
O869   O     0.54421   0.50826   0.65877   0.00000  Uiso   1.00
O870   O     0.50532   0.49468   0.83749   0.00000  Uiso   1.00
O871   O     0.51182   0.41434   0.77821   0.00000  Uiso   1.00
O872   O     0.47914   0.59469   0.76767   0.00000  Uiso   1.00
O873   O     0.40785   0.46584   0.73607   0.00000  Uiso   1.00
O874   O     0.60119   0.52512   0.71806   0.00000  Uiso   1.00
O875   O     0.40323   0.52293   0.77820   0.00000  Uiso   1.00
O876   O     0.58773   0.48610   0.76768   0.00000  Uiso   1.00
O877   O     0.47133   0.40236   0.73607   0.00000  Uiso   1.00
O878   O     0.53771   0.58860   0.71806   0.00000  Uiso   1.00
Zn879  Zn    0.52577   0.47423   0.78278   0.00000  Uiso   1.00
Zn880  Zn    0.46792   0.45711   0.72258   0.00000  Uiso   1.00
Zn881  Zn    0.54500   0.52997   0.71188   0.00000  Uiso   1.00
Zn882  Zn    0.46131   0.53868   0.78277   0.00000  Uiso   1.00
Br883  Br    0.91023   0.37671   0.51553   0.00000  Uiso   1.00
Br884  Br    0.91844   0.48709   0.90650   0.00000  Uiso   1.00
C885   C     0.71956   0.49366   0.75815   0.00000  Uiso   1.00
C886   C     0.88039   0.48130   0.95847   0.00000  Uiso   1.00
C887   C     0.89109   0.45344   0.97899   0.00000  Uiso   1.00
C888   C     0.94751   0.50685   0.74152   0.00000  Uiso   1.00
C889   C     0.87692   0.45663   0.52001   0.00000  Uiso   1.00
C890   C     0.85561   0.49157   0.54072   0.00000  Uiso   1.00
C891   C     0.88601   0.42725   0.54086   0.00000  Uiso   1.00
C892   C     0.87607   0.43386   0.58169   0.00000  Uiso   1.00
C893   C     0.85402   0.50159   0.58108   0.00000  Uiso   1.00
C894   C     0.99303   0.51001   0.73966   0.00000  Uiso   1.00
C895   C     0.67435   0.48976   0.76259   0.00000  Uiso   1.00
C896   C     0.78381   0.56747   0.91772   0.00000  Uiso   1.00
C897   C     0.84641   0.65542   0.73938   0.00000  Uiso   1.00
C898   C     0.81697   0.34629   0.76283   0.00000  Uiso   1.00
C899   C     0.82301   0.38966   0.75848   0.00000  Uiso   1.00
C900   C     0.84321   0.61091   0.74159   0.00000  Uiso   1.00
C901   C     0.85468   0.47868   0.64412   0.00000  Uiso   1.00
C902   C     0.81238   0.52147   0.85605   0.00000  Uiso   1.00
C903   C     0.80655   0.53379   0.89831   0.00000  Uiso   1.00
C904   C     0.86184   0.47142   0.60161   0.00000  Uiso   1.00
C905   C     0.77893   0.57893   0.95767   0.00000  Uiso   1.00
C906   C     0.75935   0.59451   0.54259   0.00000  Uiso   1.00
C907   C     0.82565   0.51291   0.91897   0.00000  Uiso   1.00
C908   C     0.98176   0.46063   0.78943   0.00000  Uiso   1.00
C909   C     0.77832   0.66524   0.79192   0.00000  Uiso   1.00
C910   C     0.85061   0.54382   0.60036   0.00000  Uiso   1.00
C911   C     0.82542   0.52686   0.95809   0.00000  Uiso   1.00
C912   C     0.79838   0.55802   0.97860   0.00000  Uiso   1.00
C913   C     0.84801   0.50779   0.97819   0.00000  Uiso   1.00
C914   C     0.83718   0.51463   0.51996   0.00000  Uiso   1.00
C915   C     0.80584   0.54172   0.53985   0.00000  Uiso   1.00
C916   C     0.78906   0.56538   0.51974   0.00000  Uiso   1.00
H917   H     0.68219   0.52971   0.71903   0.00000  Uiso   1.00
H918   H     0.87397   0.33584   0.71786   0.00000  Uiso   1.00
H919   H     0.88191   0.41070   0.59778   0.00000  Uiso   1.00
H920   H     0.91321   0.43126   0.96271   0.00000  Uiso   1.00
H921   H     0.75931   0.60377   0.97209   0.00000  Uiso   1.00
H922   H     0.76890   0.58438   0.90229   0.00000  Uiso   1.00
H923   H     0.83893   0.48449   0.90464   0.00000  Uiso   1.00
H924   H     0.79230   0.54366   0.57132   0.00000  Uiso   1.00
N925   N     0.73560   0.61780   0.56090   0.00000  Uiso   1.00
N926   N     0.96125   0.43724   0.81079   0.00000  Uiso   1.00
N927   N     0.74742   0.65391   0.81518   0.00000  Uiso   1.00
N928   N     0.84807   0.57746   0.61581   0.00000  Uiso   1.00
O929   O     0.83333   0.50000   0.75000   0.00000  Uiso   1.00
O930   O     0.82360   0.45726   0.66625   0.00000  Uiso   1.00
O931   O     0.79354   0.53979   0.83749   0.00000  Uiso   1.00
O932   O     0.87755   0.50826   0.65877   0.00000  Uiso   1.00
O933   O     0.83865   0.49468   0.83749   0.00000  Uiso   1.00
O934   O     0.84515   0.41434   0.77821   0.00000  Uiso   1.00
O935   O     0.81247   0.59469   0.76767   0.00000  Uiso   1.00
O936   O     0.74119   0.46584   0.73607   0.00000  Uiso   1.00
O937   O     0.93452   0.52512   0.71806   0.00000  Uiso   1.00
O938   O     0.73656   0.52293   0.77820   0.00000  Uiso   1.00
O939   O     0.92106   0.48610   0.76768   0.00000  Uiso   1.00
O940   O     0.80467   0.40236   0.73607   0.00000  Uiso   1.00
O941   O     0.87104   0.58860   0.71806   0.00000  Uiso   1.00
Zn942  Zn    0.85910   0.47423   0.78278   0.00000  Uiso   1.00
Zn943  Zn    0.80125   0.45711   0.72258   0.00000  Uiso   1.00
Zn944  Zn    0.87833   0.52997   0.71188   0.00000  Uiso   1.00
Zn945  Zn    0.79465   0.53868   0.78277   0.00000  Uiso   1.00
Br946  Br    0.24356   0.71004   0.51553   0.00000  Uiso   1.00
Br947  Br    0.25178   0.82042   0.90650   0.00000  Uiso   1.00
C948   C     0.05289   0.82699   0.75815   0.00000  Uiso   1.00
C949   C     0.21373   0.81463   0.95847   0.00000  Uiso   1.00
C950   C     0.22442   0.78677   0.97899   0.00000  Uiso   1.00
C951   C     0.28084   0.84018   0.74152   0.00000  Uiso   1.00
C952   C     0.21026   0.78996   0.52001   0.00000  Uiso   1.00
C953   C     0.18894   0.82491   0.54072   0.00000  Uiso   1.00
C954   C     0.21934   0.76058   0.54086   0.00000  Uiso   1.00
C955   C     0.20941   0.76719   0.58169   0.00000  Uiso   1.00
C956   C     0.18736   0.83493   0.58108   0.00000  Uiso   1.00
C957   C     0.32636   0.84335   0.73966   0.00000  Uiso   1.00
C958   C     0.00768   0.82309   0.76259   0.00000  Uiso   1.00
C959   C     0.11714   0.90081   0.91772   0.00000  Uiso   1.00
C960   C     0.17974   0.98875   0.73938   0.00000  Uiso   1.00
C961   C     0.15030   0.67962   0.76283   0.00000  Uiso   1.00
C962   C     0.15635   0.72299   0.75848   0.00000  Uiso   1.00
C963   C     0.17654   0.94425   0.74159   0.00000  Uiso   1.00
C964   C     0.18801   0.81201   0.64412   0.00000  Uiso   1.00
C965   C     0.14572   0.85480   0.85605   0.00000  Uiso   1.00
C966   C     0.13989   0.86713   0.89831   0.00000  Uiso   1.00
C967   C     0.19517   0.80475   0.60161   0.00000  Uiso   1.00
C968   C     0.11226   0.91226   0.95767   0.00000  Uiso   1.00
C969   C     0.09268   0.92784   0.54259   0.00000  Uiso   1.00
C970   C     0.15898   0.84624   0.91897   0.00000  Uiso   1.00
C971   C     0.31509   0.79396   0.78943   0.00000  Uiso   1.00
C972   C     0.11166   0.99858   0.79192   0.00000  Uiso   1.00
C973   C     0.18395   0.87716   0.60036   0.00000  Uiso   1.00
C974   C     0.15875   0.86020   0.95809   0.00000  Uiso   1.00
C975   C     0.13171   0.89135   0.97860   0.00000  Uiso   1.00
C976   C     0.18134   0.84112   0.97819   0.00000  Uiso   1.00
C977   C     0.17052   0.84796   0.51996   0.00000  Uiso   1.00
C978   C     0.13917   0.87505   0.53985   0.00000  Uiso   1.00
C979   C     0.12239   0.89872   0.51974   0.00000  Uiso   1.00
H980   H     0.01552   0.86304   0.71903   0.00000  Uiso   1.00
H981   H     0.20730   0.66918   0.71786   0.00000  Uiso   1.00
H982   H     0.21524   0.74403   0.59778   0.00000  Uiso   1.00
H983   H     0.24654   0.76459   0.96271   0.00000  Uiso   1.00
H984   H     0.09264   0.93711   0.97209   0.00000  Uiso   1.00
H985   H     0.10223   0.91772   0.90229   0.00000  Uiso   1.00
H986   H     0.17226   0.81782   0.90464   0.00000  Uiso   1.00
H987   H     0.12563   0.87699   0.57132   0.00000  Uiso   1.00
N988   N     0.06894   0.95113   0.56090   0.00000  Uiso   1.00
N989   N     0.29458   0.77057   0.81079   0.00000  Uiso   1.00
N990   N     0.08075   0.98725   0.81518   0.00000  Uiso   1.00
N991   N     0.18140   0.91080   0.61581   0.00000  Uiso   1.00
O992   O     0.16667   0.83333   0.75000   0.00000  Uiso   1.00
O993   O     0.15693   0.79060   0.66625   0.00000  Uiso   1.00
O994   O     0.12687   0.87313   0.83749   0.00000  Uiso   1.00
O995   O     0.21088   0.84159   0.65877   0.00000  Uiso   1.00
O996   O     0.17198   0.82802   0.83749   0.00000  Uiso   1.00
O997   O     0.17849   0.74768   0.77821   0.00000  Uiso   1.00
O998   O     0.14581   0.92803   0.76767   0.00000  Uiso   1.00
O999   O     0.07452   0.79917   0.73607   0.00000  Uiso   1.00
O1000  O     0.26785   0.85845   0.71806   0.00000  Uiso   1.00
O1001  O     0.06990   0.85627   0.77820   0.00000  Uiso   1.00
O1002  O     0.25440   0.81944   0.76768   0.00000  Uiso   1.00
O1003  O     0.13800   0.73570   0.73607   0.00000  Uiso   1.00
O1004  O     0.20437   0.92193   0.71806   0.00000  Uiso   1.00
Zn1005 Zn    0.19244   0.80756   0.78278   0.00000  Uiso   1.00
Zn1006 Zn    0.13459   0.79044   0.72258   0.00000  Uiso   1.00
Zn1007 Zn    0.21166   0.86331   0.71188   0.00000  Uiso   1.00
Zn1008 Zn    0.12798   0.87202   0.78277   0.00000  Uiso   1.00
Br1009 Br    0.57690   0.71004   0.51553   0.00000  Uiso   1.00
Br1010 Br    0.58511   0.82042   0.90650   0.00000  Uiso   1.00
C1011  C     0.38623   0.82699   0.75815   0.00000  Uiso   1.00
C1012  C     0.54706   0.81463   0.95847   0.00000  Uiso   1.00
C1013  C     0.55776   0.78677   0.97899   0.00000  Uiso   1.00
C1014  C     0.61418   0.84018   0.74152   0.00000  Uiso   1.00
C1015  C     0.54359   0.78996   0.52001   0.00000  Uiso   1.00
C1016  C     0.52227   0.82491   0.54072   0.00000  Uiso   1.00
C1017  C     0.55268   0.76058   0.54086   0.00000  Uiso   1.00
C1018  C     0.54274   0.76719   0.58169   0.00000  Uiso   1.00
C1019  C     0.52069   0.83493   0.58108   0.00000  Uiso   1.00
C1020  C     0.65969   0.84335   0.73966   0.00000  Uiso   1.00
C1021  C     0.34102   0.82309   0.76259   0.00000  Uiso   1.00
C1022  C     0.45047   0.90081   0.91772   0.00000  Uiso   1.00
C1023  C     0.51308   0.98875   0.73938   0.00000  Uiso   1.00
C1024  C     0.48364   0.67962   0.76283   0.00000  Uiso   1.00
C1025  C     0.48968   0.72299   0.75848   0.00000  Uiso   1.00
C1026  C     0.50987   0.94425   0.74159   0.00000  Uiso   1.00
C1027  C     0.52134   0.81201   0.64412   0.00000  Uiso   1.00
C1028  C     0.47905   0.85480   0.85605   0.00000  Uiso   1.00
C1029  C     0.47322   0.86713   0.89831   0.00000  Uiso   1.00
C1030  C     0.52850   0.80475   0.60161   0.00000  Uiso   1.00
C1031  C     0.44560   0.91226   0.95767   0.00000  Uiso   1.00
C1032  C     0.42602   0.92784   0.54259   0.00000  Uiso   1.00
C1033  C     0.49232   0.84624   0.91897   0.00000  Uiso   1.00
C1034  C     0.64843   0.79396   0.78943   0.00000  Uiso   1.00
C1035  C     0.44499   0.99858   0.79192   0.00000  Uiso   1.00
C1036  C     0.51728   0.87716   0.60036   0.00000  Uiso   1.00
C1037  C     0.49209   0.86020   0.95809   0.00000  Uiso   1.00
C1038  C     0.46504   0.89135   0.97860   0.00000  Uiso   1.00
C1039  C     0.51467   0.84112   0.97819   0.00000  Uiso   1.00
C1040  C     0.50385   0.84796   0.51996   0.00000  Uiso   1.00
C1041  C     0.47250   0.87505   0.53985   0.00000  Uiso   1.00
C1042  C     0.45572   0.89872   0.51974   0.00000  Uiso   1.00
H1043  H     0.34886   0.86304   0.71903   0.00000  Uiso   1.00
H1044  H     0.54063   0.66918   0.71786   0.00000  Uiso   1.00
H1045  H     0.54857   0.74403   0.59778   0.00000  Uiso   1.00
H1046  H     0.57987   0.76459   0.96271   0.00000  Uiso   1.00
H1047  H     0.42597   0.93711   0.97209   0.00000  Uiso   1.00
H1048  H     0.43557   0.91772   0.90229   0.00000  Uiso   1.00
H1049  H     0.50560   0.81782   0.90464   0.00000  Uiso   1.00
H1050  H     0.45897   0.87699   0.57132   0.00000  Uiso   1.00
N1051  N     0.40227   0.95113   0.56090   0.00000  Uiso   1.00
N1052  N     0.62791   0.77057   0.81079   0.00000  Uiso   1.00
N1053  N     0.41409   0.98725   0.81518   0.00000  Uiso   1.00
N1054  N     0.51474   0.91080   0.61581   0.00000  Uiso   1.00
O1055  O     0.50000   0.83333   0.75000   0.00000  Uiso   1.00
O1056  O     0.49027   0.79060   0.66625   0.00000  Uiso   1.00
O1057  O     0.46020   0.87313   0.83749   0.00000  Uiso   1.00
O1058  O     0.54421   0.84159   0.65877   0.00000  Uiso   1.00
O1059  O     0.50532   0.82802   0.83749   0.00000  Uiso   1.00
O1060  O     0.51182   0.74768   0.77821   0.00000  Uiso   1.00
O1061  O     0.47914   0.92803   0.76767   0.00000  Uiso   1.00
O1062  O     0.40785   0.79917   0.73607   0.00000  Uiso   1.00
O1063  O     0.60119   0.85845   0.71806   0.00000  Uiso   1.00
O1064  O     0.40323   0.85627   0.77820   0.00000  Uiso   1.00
O1065  O     0.58773   0.81944   0.76768   0.00000  Uiso   1.00
O1066  O     0.47133   0.73570   0.73607   0.00000  Uiso   1.00
O1067  O     0.53771   0.92193   0.71806   0.00000  Uiso   1.00
Zn1068 Zn    0.52577   0.80756   0.78278   0.00000  Uiso   1.00
Zn1069 Zn    0.46792   0.79044   0.72258   0.00000  Uiso   1.00
Zn1070 Zn    0.54500   0.86331   0.71188   0.00000  Uiso   1.00
Zn1071 Zn    0.46131   0.87202   0.78277   0.00000  Uiso   1.00
Br1072 Br    0.91023   0.71004   0.51553   0.00000  Uiso   1.00
Br1073 Br    0.91844   0.82042   0.90650   0.00000  Uiso   1.00
C1074  C     0.71956   0.82699   0.75815   0.00000  Uiso   1.00
C1075  C     0.88039   0.81463   0.95847   0.00000  Uiso   1.00
C1076  C     0.89109   0.78677   0.97899   0.00000  Uiso   1.00
C1077  C     0.94751   0.84018   0.74152   0.00000  Uiso   1.00
C1078  C     0.87692   0.78996   0.52001   0.00000  Uiso   1.00
C1079  C     0.85561   0.82491   0.54072   0.00000  Uiso   1.00
C1080  C     0.88601   0.76058   0.54086   0.00000  Uiso   1.00
C1081  C     0.87607   0.76719   0.58169   0.00000  Uiso   1.00
C1082  C     0.85402   0.83493   0.58108   0.00000  Uiso   1.00
C1083  C     0.99303   0.84335   0.73966   0.00000  Uiso   1.00
C1084  C     0.67435   0.82309   0.76259   0.00000  Uiso   1.00
C1085  C     0.78381   0.90081   0.91772   0.00000  Uiso   1.00
C1086  C     0.84641   0.98875   0.73938   0.00000  Uiso   1.00
C1087  C     0.81697   0.67962   0.76283   0.00000  Uiso   1.00
C1088  C     0.82301   0.72299   0.75848   0.00000  Uiso   1.00
C1089  C     0.84321   0.94425   0.74159   0.00000  Uiso   1.00
C1090  C     0.85468   0.81201   0.64412   0.00000  Uiso   1.00
C1091  C     0.81238   0.85480   0.85605   0.00000  Uiso   1.00
C1092  C     0.80655   0.86713   0.89831   0.00000  Uiso   1.00
C1093  C     0.86184   0.80475   0.60161   0.00000  Uiso   1.00
C1094  C     0.77893   0.91226   0.95767   0.00000  Uiso   1.00
C1095  C     0.75935   0.92784   0.54259   0.00000  Uiso   1.00
C1096  C     0.82565   0.84624   0.91897   0.00000  Uiso   1.00
C1097  C     0.98176   0.79396   0.78943   0.00000  Uiso   1.00
C1098  C     0.77832   0.99858   0.79192   0.00000  Uiso   1.00
C1099  C     0.85061   0.87716   0.60036   0.00000  Uiso   1.00
C1100  C     0.82542   0.86020   0.95809   0.00000  Uiso   1.00
C1101  C     0.79838   0.89135   0.97860   0.00000  Uiso   1.00
C1102  C     0.84801   0.84112   0.97819   0.00000  Uiso   1.00
C1103  C     0.83718   0.84796   0.51996   0.00000  Uiso   1.00
C1104  C     0.80584   0.87505   0.53985   0.00000  Uiso   1.00
C1105  C     0.78906   0.89872   0.51974   0.00000  Uiso   1.00
H1106  H     0.68219   0.86304   0.71903   0.00000  Uiso   1.00
H1107  H     0.87397   0.66918   0.71786   0.00000  Uiso   1.00
H1108  H     0.88191   0.74403   0.59778   0.00000  Uiso   1.00
H1109  H     0.91321   0.76459   0.96271   0.00000  Uiso   1.00
H1110  H     0.75931   0.93711   0.97209   0.00000  Uiso   1.00
H1111  H     0.76890   0.91772   0.90229   0.00000  Uiso   1.00
H1112  H     0.83893   0.81782   0.90464   0.00000  Uiso   1.00
H1113  H     0.79230   0.87699   0.57132   0.00000  Uiso   1.00
N1114  N     0.73560   0.95113   0.56090   0.00000  Uiso   1.00
N1115  N     0.96125   0.77057   0.81079   0.00000  Uiso   1.00
N1116  N     0.74742   0.98725   0.81518   0.00000  Uiso   1.00
N1117  N     0.84807   0.91080   0.61581   0.00000  Uiso   1.00
O1118  O     0.83333   0.83333   0.75000   0.00000  Uiso   1.00
O1119  O     0.82360   0.79060   0.66625   0.00000  Uiso   1.00
O1120  O     0.79354   0.87313   0.83749   0.00000  Uiso   1.00
O1121  O     0.87755   0.84159   0.65877   0.00000  Uiso   1.00
O1122  O     0.83865   0.82802   0.83749   0.00000  Uiso   1.00
O1123  O     0.84515   0.74768   0.77821   0.00000  Uiso   1.00
O1124  O     0.81247   0.92803   0.76767   0.00000  Uiso   1.00
O1125  O     0.74119   0.79917   0.73607   0.00000  Uiso   1.00
O1126  O     0.93452   0.85845   0.71806   0.00000  Uiso   1.00
O1127  O     0.73656   0.85627   0.77820   0.00000  Uiso   1.00
O1128  O     0.92106   0.81944   0.76768   0.00000  Uiso   1.00
O1129  O     0.80467   0.73570   0.73607   0.00000  Uiso   1.00
O1130  O     0.87104   0.92193   0.71806   0.00000  Uiso   1.00
Zn1131 Zn    0.85910   0.80756   0.78278   0.00000  Uiso   1.00
Zn1132 Zn    0.80125   0.79044   0.72258   0.00000  Uiso   1.00
Zn1133 Zn    0.87833   0.86331   0.71188   0.00000  Uiso   1.00
Zn1134 Zn    0.79465   0.87202   0.78277   0.00000  Uiso   1.00
loop_
_geom_bond_atom_site_label_1
_geom_bond_atom_site_label_2
_geom_bond_distance
_geom_bond_site_symmetry_2
_ccdc_geom_bond_type
Br1    C9      1.922   .     S
Br2    C4      1.929   .     S
C3     O54     1.265   .     A
C3     O56     1.270   .     A
C3     C13     1.428   .     S
C4     C31     1.421   .     A
C4     C5      1.389   .     A
C5     H38     1.082   .     S
C5     C574    1.396   .     S
C6     O55     1.293   .     A
C6     C12     1.459   .     S
C6     O57     1.274   .     A
C7     C8      1.421   .     A
C7     C9      1.411   .     A
C7     C572    1.396   1_554 S
C8     C11     1.420   .     A
C8     C32     1.428   .     A
C9     C10     1.391   .     A
C10    C22     1.395   .     A
C10    H37     1.084   .     S
C11    C22     1.405   .     A
C11    C28     1.453   .     S
C12    C76     1.350   .     S
C12    H98     1.088   .     S
C13    C138    1.350   1_455 S
C13    C152    1.450   1_455 S
C14    C23     1.391   .     A
C14    C21     1.399   .     A
C14    H40     1.083   .     S
C15    C18     1.454   .     S
C15    C205    1.346   .     S
C15    H225    1.088   .     S
C16    C17     1.426   .     S
C16    C393    1.346   1_545 S
C16    C405    1.450   1_545 S
C17    O58     1.275   .     A
C17    O52     1.277   .     A
C18    O59     1.278   .     A
C18    O53     1.266   .     A
C19    O50     1.278   .     A
C19    C22     1.458   .     S
C19    O48     1.278   .     A
C20    O49     1.282   .     A
C20    O51     1.288   .     A
C20    C21     1.469   .     S
C21    C25     1.395   .     A
C23    C30     1.410   .     A
C23    H39     1.083   .     S
C24    N43     1.157   .     T
C24    C34     1.447   .     S
C25    C29     1.404   .     A
C25    H41     1.077   .     S
C26    N44     1.158   .     T
C26    C76     1.450   .     S
C27    N45     1.158   .     T
C27    C205    1.450   .     S
C28    N46     1.158   .     T
C29    C31     1.424   .     A
C29    C30     1.421   .     A
C30    C601    1.404   .     S
C31    C599    1.422   .     S
C32    C33     1.412   .     A
C32    C598    1.422   1_554 S
C33    C34     1.391   .     A
C33    H42     1.079   .     S
C34    C597    1.404   1_554 S
H35    C138    1.088   1_455 S
H36    C393    1.088   1_545 S
O47    Zn61    1.946   .     S
O47    Zn62    1.944   .     S
O47    Zn63    1.933   .     S
O47    Zn60    1.967   .     S
O48    Zn61    1.933   .     S
O49    Zn63    1.942   .     S
O50    Zn62    1.933   .     S
O51    Zn60    1.925   .     S
O52    Zn60    1.936   .     S
O53    Zn63    1.942   .     S
O54    Zn61    1.934   .     S
O55    Zn62    1.944   .     S
O56    Zn63    1.941   .     S
O57    Zn60    1.933   .     S
O58    Zn61    1.946   .     S
O59    Zn62    1.937   .     S
Br64   C72     1.922   .     S
Br65   C67     1.929   .     S
C66    O117    1.265   .     A
C66    O119    1.270   .     A
C66    C76     1.428   .     S
C67    C94     1.421   .     A
C67    C68     1.389   .     A
C68    H101    1.082   .     S
C68    C637    1.396   .     S
C69    O118    1.293   .     A
C69    C75     1.459   .     S
C69    O120    1.274   .     A
C70    C71     1.421   .     A
C70    C72     1.411   .     A
C70    C635    1.396   1_554 S
C71    C74     1.420   .     A
C71    C95     1.428   .     A
C72    C73     1.391   .     A
C73    C85     1.395   .     A
C73    H100    1.084   .     S
C74    C85     1.405   .     A
C74    C91     1.453   .     S
C75    C139    1.350   .     S
C75    H161    1.088   .     S
C77    C86     1.391   .     A
C77    C84     1.399   .     A
C77    H103    1.083   .     S
C78    C81     1.454   .     S
C78    C268    1.346   .     S
C78    H288    1.088   .     S
C79    C80     1.426   .     S
C79    C456    1.346   1_545 S
C79    C468    1.450   1_545 S
C80    O121    1.275   .     A
C80    O115    1.277   .     A
C81    O122    1.278   .     A
C81    O116    1.266   .     A
C82    O113    1.278   .     A
C82    C85     1.458   .     S
C82    O111    1.278   .     A
C83    O112    1.282   .     A
C83    O114    1.288   .     A
C83    C84     1.469   .     S
C84    C88     1.395   .     A
C86    C93     1.410   .     A
C86    H102    1.083   .     S
C87    N106    1.157   .     T
C87    C97     1.447   .     S
C88    C92     1.404   .     A
C88    H104    1.077   .     S
C89    N107    1.158   .     T
C89    C139    1.450   .     S
C90    N108    1.158   .     T
C90    C268    1.450   .     S
C91    N109    1.158   .     T
C92    C94     1.424   .     A
C92    C93     1.421   .     A
C93    C664    1.404   .     S
C94    C662    1.422   .     S
C95    C96     1.412   .     A
C95    C661    1.422   1_554 S
C96    C97     1.391   .     A
C96    H105    1.079   .     S
C97    C660    1.404   1_554 S
H99    C456    1.088   1_545 S
O110   Zn124   1.946   .     S
O110   Zn125   1.944   .     S
O110   Zn126   1.933   .     S
O110   Zn123   1.967   .     S
O111   Zn124   1.933   .     S
O112   Zn126   1.942   .     S
O113   Zn125   1.933   .     S
O114   Zn123   1.925   .     S
O115   Zn123   1.936   .     S
O116   Zn126   1.942   .     S
O117   Zn124   1.934   .     S
O118   Zn125   1.944   .     S
O119   Zn126   1.941   .     S
O120   Zn123   1.933   .     S
O121   Zn124   1.946   .     S
O122   Zn125   1.937   .     S
Br127  C135    1.922   .     S
Br128  C130    1.929   .     S
C129   O180    1.265   .     A
C129   O182    1.270   .     A
C129   C139    1.428   .     S
C130   C157    1.421   .     A
C130   C131    1.389   .     A
C131   H164    1.082   .     S
C131   C700    1.396   .     S
C132   O181    1.293   .     A
C132   C138    1.459   .     S
C132   O183    1.274   .     A
C133   C134    1.421   .     A
C133   C135    1.411   .     A
C133   C698    1.396   1_554 S
C134   C137    1.420   .     A
C134   C158    1.428   .     A
C135   C136    1.391   .     A
C136   C148    1.395   .     A
C136   H163    1.084   .     S
C137   C148    1.405   .     A
C137   C154    1.453   .     S
C138   C13     1.350   1_655 S
C138   H35     1.088   1_655 S
C140   C149    1.391   .     A
C140   C147    1.399   .     A
C140   H166    1.083   .     S
C141   C144    1.454   .     S
C141   C331    1.346   .     S
C141   H351    1.088   .     S
C142   C143    1.426   .     S
C142   C519    1.346   1_545 S
C142   C531    1.450   1_545 S
C143   O184    1.275   .     A
C143   O178    1.277   .     A
C144   O185    1.278   .     A
C144   O179    1.266   .     A
C145   O176    1.278   .     A
C145   C148    1.458   .     S
C145   O174    1.278   .     A
C146   O175    1.282   .     A
C146   O177    1.288   .     A
C146   C147    1.469   .     S
C147   C151    1.395   .     A
C149   C156    1.410   .     A
C149   H165    1.083   .     S
C150   N169    1.157   .     T
C150   C160    1.447   .     S
C151   C155    1.404   .     A
C151   H167    1.077   .     S
C152   N170    1.158   .     T
C152   C13     1.450   1_655 S
C153   N171    1.158   .     T
C153   C331    1.450   .     S
C154   N172    1.158   .     T
C155   C157    1.424   .     A
C155   C156    1.421   .     A
C156   C727    1.404   .     S
C157   C725    1.422   .     S
C158   C159    1.412   .     A
C158   C724    1.422   1_554 S
C159   C160    1.391   .     A
C159   H168    1.079   .     S
C160   C723    1.404   1_554 S
H162   C519    1.088   1_545 S
O173   Zn187   1.946   .     S
O173   Zn188   1.944   .     S
O173   Zn189   1.933   .     S
O173   Zn186   1.967   .     S
O174   Zn187   1.933   .     S
O175   Zn189   1.942   .     S
O176   Zn188   1.933   .     S
O177   Zn186   1.925   .     S
O178   Zn186   1.936   .     S
O179   Zn189   1.942   .     S
O180   Zn187   1.934   .     S
O181   Zn188   1.944   .     S
O182   Zn189   1.941   .     S
O183   Zn186   1.933   .     S
O184   Zn187   1.946   .     S
O185   Zn188   1.937   .     S
Br190  C198    1.922   .     S
Br191  C193    1.929   .     S
C192   O243    1.265   .     A
C192   O245    1.270   .     A
C192   C202    1.428   .     S
C193   C220    1.421   .     A
C193   C194    1.389   .     A
C194   H227    1.082   .     S
C194   C763    1.396   .     S
C195   O244    1.293   .     A
C195   C201    1.459   .     S
C195   O246    1.274   .     A
C196   C197    1.421   .     A
C196   C198    1.411   .     A
C196   C761    1.396   1_554 S
C197   C200    1.420   .     A
C197   C221    1.428   .     A
C198   C199    1.391   .     A
C199   C211    1.395   .     A
C199   H226    1.084   .     S
C200   C211    1.405   .     A
C200   C217    1.453   .     S
C201   C265    1.350   .     S
C201   H287    1.088   .     S
C202   C327    1.350   1_455 S
C202   C341    1.450   1_455 S
C203   C212    1.391   .     A
C203   C210    1.399   .     A
C203   H229    1.083   .     S
C204   C207    1.454   .     S
C204   C394    1.346   .     S
C204   H414    1.088   .     S
C205   C206    1.426   .     S
C206   O247    1.275   .     A
C206   O241    1.277   .     A
C207   O248    1.278   .     A
C207   O242    1.266   .     A
C208   O239    1.278   .     A
C208   C211    1.458   .     S
C208   O237    1.278   .     A
C209   O238    1.282   .     A
C209   O240    1.288   .     A
C209   C210    1.469   .     S
C210   C214    1.395   .     A
C212   C219    1.410   .     A
C212   H228    1.083   .     S
C213   N232    1.157   .     T
C213   C223    1.447   .     S
C214   C218    1.404   .     A
C214   H230    1.077   .     S
C215   N233    1.158   .     T
C215   C265    1.450   .     S
C216   N234    1.158   .     T
C216   C394    1.450   .     S
C217   N235    1.158   .     T
C218   C220    1.424   .     A
C218   C219    1.421   .     A
C219   C790    1.404   .     S
C220   C788    1.422   .     S
C221   C222    1.412   .     A
C221   C787    1.422   1_554 S
C222   C223    1.391   .     A
C222   H231    1.079   .     S
C223   C786    1.404   1_554 S
H224   C327    1.088   1_455 S
O236   Zn250   1.946   .     S
O236   Zn251   1.944   .     S
O236   Zn252   1.933   .     S
O236   Zn249   1.967   .     S
O237   Zn250   1.933   .     S
O238   Zn252   1.942   .     S
O239   Zn251   1.933   .     S
O240   Zn249   1.925   .     S
O241   Zn249   1.936   .     S
O242   Zn252   1.942   .     S
O243   Zn250   1.934   .     S
O244   Zn251   1.944   .     S
O245   Zn252   1.941   .     S
O246   Zn249   1.933   .     S
O247   Zn250   1.946   .     S
O248   Zn251   1.937   .     S
Br253  C261    1.922   .     S
Br254  C256    1.929   .     S
C255   O306    1.265   .     A
C255   O308    1.270   .     A
C255   C265    1.428   .     S
C256   C283    1.421   .     A
C256   C257    1.389   .     A
C257   H290    1.082   .     S
C257   C826    1.396   .     S
C258   O307    1.293   .     A
C258   C264    1.459   .     S
C258   O309    1.274   .     A
C259   C260    1.421   .     A
C259   C261    1.411   .     A
C259   C824    1.396   1_554 S
C260   C263    1.420   .     A
C260   C284    1.428   .     A
C261   C262    1.391   .     A
C262   C274    1.395   .     A
C262   H289    1.084   .     S
C263   C274    1.405   .     A
C263   C280    1.453   .     S
C264   C328    1.350   .     S
C264   H350    1.088   .     S
C266   C275    1.391   .     A
C266   C273    1.399   .     A
C266   H292    1.083   .     S
C267   C270    1.454   .     S
C267   C457    1.346   .     S
C267   H477    1.088   .     S
C268   C269    1.426   .     S
C269   O310    1.275   .     A
C269   O304    1.277   .     A
C270   O311    1.278   .     A
C270   O305    1.266   .     A
C271   O302    1.278   .     A
C271   C274    1.458   .     S
C271   O300    1.278   .     A
C272   O301    1.282   .     A
C272   O303    1.288   .     A
C272   C273    1.469   .     S
C273   C277    1.395   .     A
C275   C282    1.410   .     A
C275   H291    1.083   .     S
C276   N295    1.157   .     T
C276   C286    1.447   .     S
C277   C281    1.404   .     A
C277   H293    1.077   .     S
C278   N296    1.158   .     T
C278   C328    1.450   .     S
C279   N297    1.158   .     T
C279   C457    1.450   .     S
C280   N298    1.158   .     T
C281   C283    1.424   .     A
C281   C282    1.421   .     A
C282   C853    1.404   .     S
C283   C851    1.422   .     S
C284   C285    1.412   .     A
C284   C850    1.422   1_554 S
C285   C286    1.391   .     A
C285   H294    1.079   .     S
C286   C849    1.404   1_554 S
O299   Zn313   1.946   .     S
O299   Zn314   1.944   .     S
O299   Zn315   1.933   .     S
O299   Zn312   1.967   .     S
O300   Zn313   1.933   .     S
O301   Zn315   1.942   .     S
O302   Zn314   1.933   .     S
O303   Zn312   1.925   .     S
O304   Zn312   1.936   .     S
O305   Zn315   1.942   .     S
O306   Zn313   1.934   .     S
O307   Zn314   1.944   .     S
O308   Zn315   1.941   .     S
O309   Zn312   1.933   .     S
O310   Zn313   1.946   .     S
O311   Zn314   1.937   .     S
Br316  C324    1.922   .     S
Br317  C319    1.929   .     S
C318   O369    1.265   .     A
C318   O371    1.270   .     A
C318   C328    1.428   .     S
C319   C346    1.421   .     A
C319   C320    1.389   .     A
C320   H353    1.082   .     S
C320   C889    1.396   .     S
C321   O370    1.293   .     A
C321   C327    1.459   .     S
C321   O372    1.274   .     A
C322   C323    1.421   .     A
C322   C324    1.411   .     A
C322   C887    1.396   1_554 S
C323   C326    1.420   .     A
C323   C347    1.428   .     A
C324   C325    1.391   .     A
C325   C337    1.395   .     A
C325   H352    1.084   .     S
C326   C337    1.405   .     A
C326   C343    1.453   .     S
C327   C202    1.350   1_655 S
C327   H224    1.088   1_655 S
C329   C338    1.391   .     A
C329   C336    1.399   .     A
C329   H355    1.083   .     S
C330   C333    1.454   .     S
C330   C520    1.346   .     S
C330   H540    1.088   .     S
C331   C332    1.426   .     S
C332   O373    1.275   .     A
C332   O367    1.277   .     A
C333   O374    1.278   .     A
C333   O368    1.266   .     A
C334   O365    1.278   .     A
C334   C337    1.458   .     S
C334   O363    1.278   .     A
C335   O364    1.282   .     A
C335   O366    1.288   .     A
C335   C336    1.469   .     S
C336   C340    1.395   .     A
C338   C345    1.410   .     A
C338   H354    1.083   .     S
C339   N358    1.157   .     T
C339   C349    1.447   .     S
C340   C344    1.404   .     A
C340   H356    1.077   .     S
C341   N359    1.158   .     T
C341   C202    1.450   1_655 S
C342   N360    1.158   .     T
C342   C520    1.450   .     S
C343   N361    1.158   .     T
C344   C346    1.424   .     A
C344   C345    1.421   .     A
C345   C916    1.404   .     S
C346   C914    1.422   .     S
C347   C348    1.412   .     A
C347   C913    1.422   1_554 S
C348   C349    1.391   .     A
C348   H357    1.079   .     S
C349   C912    1.404   1_554 S
O362   Zn376   1.946   .     S
O362   Zn377   1.944   .     S
O362   Zn378   1.933   .     S
O362   Zn375   1.967   .     S
O363   Zn376   1.933   .     S
O364   Zn378   1.942   .     S
O365   Zn377   1.933   .     S
O366   Zn375   1.925   .     S
O367   Zn375   1.936   .     S
O368   Zn378   1.942   .     S
O369   Zn376   1.934   .     S
O370   Zn377   1.944   .     S
O371   Zn378   1.941   .     S
O372   Zn375   1.933   .     S
O373   Zn376   1.946   .     S
O374   Zn377   1.937   .     S
Br379  C387    1.922   .     S
Br380  C382    1.929   .     S
C381   O432    1.265   .     A
C381   O434    1.270   .     A
C381   C391    1.428   .     S
C382   C409    1.421   .     A
C382   C383    1.389   .     A
C383   H416    1.082   .     S
C383   C952    1.396   .     S
C384   O433    1.293   .     A
C384   C390    1.459   .     S
C384   O435    1.274   .     A
C385   C386    1.421   .     A
C385   C387    1.411   .     A
C385   C950    1.396   1_554 S
C386   C389    1.420   .     A
C386   C410    1.428   .     A
C387   C388    1.391   .     A
C388   C400    1.395   .     A
C388   H415    1.084   .     S
C389   C400    1.405   .     A
C389   C406    1.453   .     S
C390   C454    1.350   .     S
C390   H476    1.088   .     S
C391   C516    1.350   1_455 S
C391   C530    1.450   1_455 S
C392   C401    1.391   .     A
C392   C399    1.399   .     A
C392   H418    1.083   .     S
C393   C396    1.454   .     S
C393   C16     1.346   1_565 S
C393   H36     1.088   1_565 S
C394   C395    1.426   .     S
C395   O436    1.275   .     A
C395   O430    1.277   .     A
C396   O437    1.278   .     A
C396   O431    1.266   .     A
C397   O428    1.278   .     A
C397   C400    1.458   .     S
C397   O426    1.278   .     A
C398   O427    1.282   .     A
C398   O429    1.288   .     A
C398   C399    1.469   .     S
C399   C403    1.395   .     A
C401   C408    1.410   .     A
C401   H417    1.083   .     S
C402   N421    1.157   .     T
C402   C412    1.447   .     S
C403   C407    1.404   .     A
C403   H419    1.077   .     S
C404   N422    1.158   .     T
C404   C454    1.450   .     S
C405   N423    1.158   .     T
C405   C16     1.450   1_565 S
C406   N424    1.158   .     T
C407   C409    1.424   .     A
C407   C408    1.421   .     A
C408   C979    1.404   .     S
C409   C977    1.422   .     S
C410   C411    1.412   .     A
C410   C976    1.422   1_554 S
C411   C412    1.391   .     A
C411   H420    1.079   .     S
C412   C975    1.404   1_554 S
H413   C516    1.088   1_455 S
O425   Zn439   1.946   .     S
O425   Zn440   1.944   .     S
O425   Zn441   1.933   .     S
O425   Zn438   1.967   .     S
O426   Zn439   1.933   .     S
O427   Zn441   1.942   .     S
O428   Zn440   1.933   .     S
O429   Zn438   1.925   .     S
O430   Zn438   1.936   .     S
O431   Zn441   1.942   .     S
O432   Zn439   1.934   .     S
O433   Zn440   1.944   .     S
O434   Zn441   1.941   .     S
O435   Zn438   1.933   .     S
O436   Zn439   1.946   .     S
O437   Zn440   1.937   .     S
Br442  C450    1.922   .     S
Br443  C445    1.929   .     S
C444   O495    1.265   .     A
C444   O497    1.270   .     A
C444   C454    1.428   .     S
C445   C472    1.421   .     A
C445   C446    1.389   .     A
C446   H479    1.082   .     S
C446   C1015   1.396   .     S
C447   O496    1.293   .     A
C447   C453    1.459   .     S
C447   O498    1.274   .     A
C448   C449    1.421   .     A
C448   C450    1.411   .     A
C448   C1013   1.396   1_554 S
C449   C452    1.420   .     A
C449   C473    1.428   .     A
C450   C451    1.391   .     A
C451   C463    1.395   .     A
C451   H478    1.084   .     S
C452   C463    1.405   .     A
C452   C469    1.453   .     S
C453   C517    1.350   .     S
C453   H539    1.088   .     S
C455   C464    1.391   .     A
C455   C462    1.399   .     A
C455   H481    1.083   .     S
C456   C459    1.454   .     S
C456   C79     1.346   1_565 S
C456   H99     1.088   1_565 S
C457   C458    1.426   .     S
C458   O499    1.275   .     A
C458   O493    1.277   .     A
C459   O500    1.278   .     A
C459   O494    1.266   .     A
C460   O491    1.278   .     A
C460   C463    1.458   .     S
C460   O489    1.278   .     A
C461   O490    1.282   .     A
C461   O492    1.288   .     A
C461   C462    1.469   .     S
C462   C466    1.395   .     A
C464   C471    1.410   .     A
C464   H480    1.083   .     S
C465   N484    1.157   .     T
C465   C475    1.447   .     S
C466   C470    1.404   .     A
C466   H482    1.077   .     S
C467   N485    1.158   .     T
C467   C517    1.450   .     S
C468   N486    1.158   .     T
C468   C79     1.450   1_565 S
C469   N487    1.158   .     T
C470   C472    1.424   .     A
C470   C471    1.421   .     A
C471   C1042   1.404   .     S
C472   C1040   1.422   .     S
C473   C474    1.412   .     A
C473   C1039   1.422   1_554 S
C474   C475    1.391   .     A
C474   H483    1.079   .     S
C475   C1038   1.404   1_554 S
O488   Zn502   1.946   .     S
O488   Zn503   1.944   .     S
O488   Zn504   1.933   .     S
O488   Zn501   1.967   .     S
O489   Zn502   1.933   .     S
O490   Zn504   1.942   .     S
O491   Zn503   1.933   .     S
O492   Zn501   1.925   .     S
O493   Zn501   1.936   .     S
O494   Zn504   1.942   .     S
O495   Zn502   1.934   .     S
O496   Zn503   1.944   .     S
O497   Zn504   1.941   .     S
O498   Zn501   1.933   .     S
O499   Zn502   1.946   .     S
O500   Zn503   1.937   .     S
Br505  C513    1.922   .     S
Br506  C508    1.929   .     S
C507   O558    1.265   .     A
C507   O560    1.270   .     A
C507   C517    1.428   .     S
C508   C535    1.421   .     A
C508   C509    1.389   .     A
C509   H542    1.082   .     S
C509   C1078   1.396   .     S
C510   O559    1.293   .     A
C510   C516    1.459   .     S
C510   O561    1.274   .     A
C511   C512    1.421   .     A
C511   C513    1.411   .     A
C511   C1076   1.396   1_554 S
C512   C515    1.420   .     A
C512   C536    1.428   .     A
C513   C514    1.391   .     A
C514   C526    1.395   .     A
C514   H541    1.084   .     S
C515   C526    1.405   .     A
C515   C532    1.453   .     S
C516   C391    1.350   1_655 S
C516   H413    1.088   1_655 S
C518   C527    1.391   .     A
C518   C525    1.399   .     A
C518   H544    1.083   .     S
C519   C522    1.454   .     S
C519   C142    1.346   1_565 S
C519   H162    1.088   1_565 S
C520   C521    1.426   .     S
C521   O562    1.275   .     A
C521   O556    1.277   .     A
C522   O563    1.278   .     A
C522   O557    1.266   .     A
C523   O554    1.278   .     A
C523   C526    1.458   .     S
C523   O552    1.278   .     A
C524   O553    1.282   .     A
C524   O555    1.288   .     A
C524   C525    1.469   .     S
C525   C529    1.395   .     A
C527   C534    1.410   .     A
C527   H543    1.083   .     S
C528   N547    1.157   .     T
C528   C538    1.447   .     S
C529   C533    1.404   .     A
C529   H545    1.077   .     S
C530   N548    1.158   .     T
C530   C391    1.450   1_655 S
C531   N549    1.158   .     T
C531   C142    1.450   1_565 S
C532   N550    1.158   .     T
C533   C535    1.424   .     A
C533   C534    1.421   .     A
C534   C1105   1.404   .     S
C535   C1103   1.422   .     S
C536   C537    1.412   .     A
C536   C1102   1.422   1_554 S
C537   C538    1.391   .     A
C537   H546    1.079   .     S
C538   C1101   1.404   1_554 S
O551   Zn565   1.946   .     S
O551   Zn566   1.944   .     S
O551   Zn567   1.933   .     S
O551   Zn564   1.967   .     S
O552   Zn565   1.933   .     S
O553   Zn567   1.942   .     S
O554   Zn566   1.933   .     S
O555   Zn564   1.925   .     S
O556   Zn564   1.936   .     S
O557   Zn567   1.942   .     S
O558   Zn565   1.934   .     S
O559   Zn566   1.944   .     S
O560   Zn567   1.941   .     S
O561   Zn564   1.933   .     S
O562   Zn565   1.946   .     S
O563   Zn566   1.937   .     S
Br568  C576    1.922   .     S
Br569  C571    1.929   .     S
C570   O621    1.265   .     A
C570   O623    1.270   .     A
C570   C580    1.428   .     S
C571   C598    1.421   .     A
C571   C572    1.389   .     A
C572   H605    1.082   .     S
C572   C7      1.396   1_556 S
C573   O622    1.293   .     A
C573   C579    1.459   .     S
C573   O624    1.274   .     A
C574   C575    1.421   .     A
C574   C576    1.411   .     A
C575   C578    1.420   .     A
C575   C599    1.428   .     A
C576   C577    1.391   .     A
C577   C589    1.395   .     A
C577   H604    1.084   .     S
C578   C589    1.405   .     A
C578   C595    1.453   .     S
C579   C643    1.350   .     S
C579   H665    1.088   .     S
C580   C705    1.350   1_455 S
C580   C719    1.450   1_455 S
C581   C590    1.391   .     A
C581   C588    1.399   .     A
C581   H607    1.083   .     S
C582   C585    1.454   .     S
C582   C772    1.346   .     S
C582   H792    1.088   .     S
C583   C584    1.426   .     S
C583   C960    1.346   1_545 S
C583   C972    1.450   1_545 S
C584   O625    1.275   .     A
C584   O619    1.277   .     A
C585   O626    1.278   .     A
C585   O620    1.266   .     A
C586   O617    1.278   .     A
C586   C589    1.458   .     S
C586   O615    1.278   .     A
C587   O616    1.282   .     A
C587   O618    1.288   .     A
C587   C588    1.469   .     S
C588   C592    1.395   .     A
C590   C597    1.410   .     A
C590   H606    1.083   .     S
C591   N610    1.157   .     T
C591   C601    1.447   .     S
C592   C596    1.404   .     A
C592   H608    1.077   .     S
C593   N611    1.158   .     T
C593   C643    1.450   .     S
C594   N612    1.158   .     T
C594   C772    1.450   .     S
C595   N613    1.158   .     T
C596   C598    1.424   .     A
C596   C597    1.421   .     A
C597   C34     1.404   1_556 S
C598   C32     1.422   1_556 S
C599   C600    1.412   .     A
C600   C601    1.391   .     A
C600   H609    1.079   .     S
H602   C705    1.088   1_455 S
H603   C960    1.088   1_545 S
O614   Zn628   1.946   .     S
O614   Zn629   1.944   .     S
O614   Zn630   1.933   .     S
O614   Zn627   1.967   .     S
O615   Zn628   1.933   .     S
O616   Zn630   1.942   .     S
O617   Zn629   1.933   .     S
O618   Zn627   1.925   .     S
O619   Zn627   1.936   .     S
O620   Zn630   1.942   .     S
O621   Zn628   1.934   .     S
O622   Zn629   1.944   .     S
O623   Zn630   1.941   .     S
O624   Zn627   1.933   .     S
O625   Zn628   1.946   .     S
O626   Zn629   1.937   .     S
Br631  C639    1.922   .     S
Br632  C634    1.929   .     S
C633   O684    1.265   .     A
C633   O686    1.270   .     A
C633   C643    1.428   .     S
C634   C661    1.421   .     A
C634   C635    1.389   .     A
C635   H668    1.082   .     S
C635   C70     1.396   1_556 S
C636   O685    1.293   .     A
C636   C642    1.459   .     S
C636   O687    1.274   .     A
C637   C638    1.421   .     A
C637   C639    1.411   .     A
C638   C641    1.420   .     A
C638   C662    1.428   .     A
C639   C640    1.391   .     A
C640   C652    1.395   .     A
C640   H667    1.084   .     S
C641   C652    1.405   .     A
C641   C658    1.453   .     S
C642   C706    1.350   .     S
C642   H728    1.088   .     S
C644   C653    1.391   .     A
C644   C651    1.399   .     A
C644   H670    1.083   .     S
C645   C648    1.454   .     S
C645   C835    1.346   .     S
C645   H855    1.088   .     S
C646   C647    1.426   .     S
C646   C1023   1.346   1_545 S
C646   C1035   1.450   1_545 S
C647   O688    1.275   .     A
C647   O682    1.277   .     A
C648   O689    1.278   .     A
C648   O683    1.266   .     A
C649   O680    1.278   .     A
C649   C652    1.458   .     S
C649   O678    1.278   .     A
C650   O679    1.282   .     A
C650   O681    1.288   .     A
C650   C651    1.469   .     S
C651   C655    1.395   .     A
C653   C660    1.410   .     A
C653   H669    1.083   .     S
C654   N673    1.157   .     T
C654   C664    1.447   .     S
C655   C659    1.404   .     A
C655   H671    1.077   .     S
C656   N674    1.158   .     T
C656   C706    1.450   .     S
C657   N675    1.158   .     T
C657   C835    1.450   .     S
C658   N676    1.158   .     T
C659   C661    1.424   .     A
C659   C660    1.421   .     A
C660   C97     1.404   1_556 S
C661   C95     1.422   1_556 S
C662   C663    1.412   .     A
C663   C664    1.391   .     A
C663   H672    1.079   .     S
H666   C1023   1.088   1_545 S
O677   Zn691   1.946   .     S
O677   Zn692   1.944   .     S
O677   Zn693   1.933   .     S
O677   Zn690   1.967   .     S
O678   Zn691   1.933   .     S
O679   Zn693   1.942   .     S
O680   Zn692   1.933   .     S
O681   Zn690   1.925   .     S
O682   Zn690   1.936   .     S
O683   Zn693   1.942   .     S
O684   Zn691   1.934   .     S
O685   Zn692   1.944   .     S
O686   Zn693   1.941   .     S
O687   Zn690   1.933   .     S
O688   Zn691   1.946   .     S
O689   Zn692   1.937   .     S
Br694  C702    1.922   .     S
Br695  C697    1.929   .     S
C696   O747    1.265   .     A
C696   O749    1.270   .     A
C696   C706    1.428   .     S
C697   C724    1.421   .     A
C697   C698    1.389   .     A
C698   H731    1.082   .     S
C698   C133    1.396   1_556 S
C699   O748    1.293   .     A
C699   C705    1.459   .     S
C699   O750    1.274   .     A
C700   C701    1.421   .     A
C700   C702    1.411   .     A
C701   C704    1.420   .     A
C701   C725    1.428   .     A
C702   C703    1.391   .     A
C703   C715    1.395   .     A
C703   H730    1.084   .     S
C704   C715    1.405   .     A
C704   C721    1.453   .     S
C705   C580    1.350   1_655 S
C705   H602    1.088   1_655 S
C707   C716    1.391   .     A
C707   C714    1.399   .     A
C707   H733    1.083   .     S
C708   C711    1.454   .     S
C708   C898    1.346   .     S
C708   H918    1.088   .     S
C709   C710    1.426   .     S
C709   C1086   1.346   1_545 S
C709   C1098   1.450   1_545 S
C710   O751    1.275   .     A
C710   O745    1.277   .     A
C711   O752    1.278   .     A
C711   O746    1.266   .     A
C712   O743    1.278   .     A
C712   C715    1.458   .     S
C712   O741    1.278   .     A
C713   O742    1.282   .     A
C713   O744    1.288   .     A
C713   C714    1.469   .     S
C714   C718    1.395   .     A
C716   C723    1.410   .     A
C716   H732    1.083   .     S
C717   N736    1.157   .     T
C717   C727    1.447   .     S
C718   C722    1.404   .     A
C718   H734    1.077   .     S
C719   N737    1.158   .     T
C719   C580    1.450   1_655 S
C720   N738    1.158   .     T
C720   C898    1.450   .     S
C721   N739    1.158   .     T
C722   C724    1.424   .     A
C722   C723    1.421   .     A
C723   C160    1.404   1_556 S
C724   C158    1.422   1_556 S
C725   C726    1.412   .     A
C726   C727    1.391   .     A
C726   H735    1.079   .     S
H729   C1086   1.088   1_545 S
O740   Zn754   1.946   .     S
O740   Zn755   1.944   .     S
O740   Zn756   1.933   .     S
O740   Zn753   1.967   .     S
O741   Zn754   1.933   .     S
O742   Zn756   1.942   .     S
O743   Zn755   1.933   .     S
O744   Zn753   1.925   .     S
O745   Zn753   1.936   .     S
O746   Zn756   1.942   .     S
O747   Zn754   1.934   .     S
O748   Zn755   1.944   .     S
O749   Zn756   1.941   .     S
O750   Zn753   1.933   .     S
O751   Zn754   1.946   .     S
O752   Zn755   1.937   .     S
Br757  C765    1.922   .     S
Br758  C760    1.929   .     S
C759   O810    1.265   .     A
C759   O812    1.270   .     A
C759   C769    1.428   .     S
C760   C787    1.421   .     A
C760   C761    1.389   .     A
C761   H794    1.082   .     S
C761   C196    1.396   1_556 S
C762   O811    1.293   .     A
C762   C768    1.459   .     S
C762   O813    1.274   .     A
C763   C764    1.421   .     A
C763   C765    1.411   .     A
C764   C767    1.420   .     A
C764   C788    1.428   .     A
C765   C766    1.391   .     A
C766   C778    1.395   .     A
C766   H793    1.084   .     S
C767   C778    1.405   .     A
C767   C784    1.453   .     S
C768   C832    1.350   .     S
C768   H854    1.088   .     S
C769   C894    1.350   1_455 S
C769   C908    1.450   1_455 S
C770   C779    1.391   .     A
C770   C777    1.399   .     A
C770   H796    1.083   .     S
C771   C774    1.454   .     S
C771   C961    1.346   .     S
C771   H981    1.088   .     S
C772   C773    1.426   .     S
C773   O814    1.275   .     A
C773   O808    1.277   .     A
C774   O815    1.278   .     A
C774   O809    1.266   .     A
C775   O806    1.278   .     A
C775   C778    1.458   .     S
C775   O804    1.278   .     A
C776   O805    1.282   .     A
C776   O807    1.288   .     A
C776   C777    1.469   .     S
C777   C781    1.395   .     A
C779   C786    1.410   .     A
C779   H795    1.083   .     S
C780   N799    1.157   .     T
C780   C790    1.447   .     S
C781   C785    1.404   .     A
C781   H797    1.077   .     S
C782   N800    1.158   .     T
C782   C832    1.450   .     S
C783   N801    1.158   .     T
C783   C961    1.450   .     S
C784   N802    1.158   .     T
C785   C787    1.424   .     A
C785   C786    1.421   .     A
C786   C223    1.404   1_556 S
C787   C221    1.422   1_556 S
C788   C789    1.412   .     A
C789   C790    1.391   .     A
C789   H798    1.079   .     S
H791   C894    1.088   1_455 S
O803   Zn817   1.946   .     S
O803   Zn818   1.944   .     S
O803   Zn819   1.933   .     S
O803   Zn816   1.967   .     S
O804   Zn817   1.933   .     S
O805   Zn819   1.942   .     S
O806   Zn818   1.933   .     S
O807   Zn816   1.925   .     S
O808   Zn816   1.936   .     S
O809   Zn819   1.942   .     S
O810   Zn817   1.934   .     S
O811   Zn818   1.944   .     S
O812   Zn819   1.941   .     S
O813   Zn816   1.933   .     S
O814   Zn817   1.946   .     S
O815   Zn818   1.937   .     S
Br820  C828    1.922   .     S
Br821  C823    1.929   .     S
C822   O873    1.265   .     A
C822   O875    1.270   .     A
C822   C832    1.428   .     S
C823   C850    1.421   .     A
C823   C824    1.389   .     A
C824   H857    1.082   .     S
C824   C259    1.396   1_556 S
C825   O874    1.293   .     A
C825   C831    1.459   .     S
C825   O876    1.274   .     A
C826   C827    1.421   .     A
C826   C828    1.411   .     A
C827   C830    1.420   .     A
C827   C851    1.428   .     A
C828   C829    1.391   .     A
C829   C841    1.395   .     A
C829   H856    1.084   .     S
C830   C841    1.405   .     A
C830   C847    1.453   .     S
C831   C895    1.350   .     S
C831   H917    1.088   .     S
C833   C842    1.391   .     A
C833   C840    1.399   .     A
C833   H859    1.083   .     S
C834   C837    1.454   .     S
C834   C1024   1.346   .     S
C834   H1044   1.088   .     S
C835   C836    1.426   .     S
C836   O877    1.275   .     A
C836   O871    1.277   .     A
C837   O878    1.278   .     A
C837   O872    1.266   .     A
C838   O869    1.278   .     A
C838   C841    1.458   .     S
C838   O867    1.278   .     A
C839   O868    1.282   .     A
C839   O870    1.288   .     A
C839   C840    1.469   .     S
C840   C844    1.395   .     A
C842   C849    1.410   .     A
C842   H858    1.083   .     S
C843   N862    1.157   .     T
C843   C853    1.447   .     S
C844   C848    1.404   .     A
C844   H860    1.077   .     S
C845   N863    1.158   .     T
C845   C895    1.450   .     S
C846   N864    1.158   .     T
C846   C1024   1.450   .     S
C847   N865    1.158   .     T
C848   C850    1.424   .     A
C848   C849    1.421   .     A
C849   C286    1.404   1_556 S
C850   C284    1.422   1_556 S
C851   C852    1.412   .     A
C852   C853    1.391   .     A
C852   H861    1.079   .     S
O866   Zn880   1.946   .     S
O866   Zn881   1.944   .     S
O866   Zn882   1.933   .     S
O866   Zn879   1.967   .     S
O867   Zn880   1.933   .     S
O868   Zn882   1.942   .     S
O869   Zn881   1.933   .     S
O870   Zn879   1.925   .     S
O871   Zn879   1.936   .     S
O872   Zn882   1.942   .     S
O873   Zn880   1.934   .     S
O874   Zn881   1.944   .     S
O875   Zn882   1.941   .     S
O876   Zn879   1.933   .     S
O877   Zn880   1.946   .     S
O878   Zn881   1.937   .     S
Br883  C891    1.922   .     S
Br884  C886    1.929   .     S
C885   O936    1.265   .     A
C885   O938    1.270   .     A
C885   C895    1.428   .     S
C886   C913    1.421   .     A
C886   C887    1.389   .     A
C887   H920    1.082   .     S
C887   C322    1.396   1_556 S
C888   O937    1.293   .     A
C888   C894    1.459   .     S
C888   O939    1.274   .     A
C889   C890    1.421   .     A
C889   C891    1.411   .     A
C890   C893    1.420   .     A
C890   C914    1.428   .     A
C891   C892    1.391   .     A
C892   C904    1.395   .     A
C892   H919    1.084   .     S
C893   C904    1.405   .     A
C893   C910    1.453   .     S
C894   C769    1.350   1_655 S
C894   H791    1.088   1_655 S
C896   C905    1.391   .     A
C896   C903    1.399   .     A
C896   H922    1.083   .     S
C897   C900    1.454   .     S
C897   C1087   1.346   .     S
C897   H1107   1.088   .     S
C898   C899    1.426   .     S
C899   O940    1.275   .     A
C899   O934    1.277   .     A
C900   O941    1.278   .     A
C900   O935    1.266   .     A
C901   O932    1.278   .     A
C901   C904    1.458   .     S
C901   O930    1.278   .     A
C902   O931    1.282   .     A
C902   O933    1.288   .     A
C902   C903    1.469   .     S
C903   C907    1.395   .     A
C905   C912    1.410   .     A
C905   H921    1.083   .     S
C906   N925    1.157   .     T
C906   C916    1.447   .     S
C907   C911    1.404   .     A
C907   H923    1.077   .     S
C908   N926    1.158   .     T
C908   C769    1.450   1_655 S
C909   N927    1.158   .     T
C909   C1087   1.450   .     S
C910   N928    1.158   .     T
C911   C913    1.424   .     A
C911   C912    1.421   .     A
C912   C349    1.404   1_556 S
C913   C347    1.422   1_556 S
C914   C915    1.412   .     A
C915   C916    1.391   .     A
C915   H924    1.079   .     S
O929   Zn943   1.946   .     S
O929   Zn944   1.944   .     S
O929   Zn945   1.933   .     S
O929   Zn942   1.967   .     S
O930   Zn943   1.933   .     S
O931   Zn945   1.942   .     S
O932   Zn944   1.933   .     S
O933   Zn942   1.925   .     S
O934   Zn942   1.936   .     S
O935   Zn945   1.942   .     S
O936   Zn943   1.934   .     S
O937   Zn944   1.944   .     S
O938   Zn945   1.941   .     S
O939   Zn942   1.933   .     S
O940   Zn943   1.946   .     S
O941   Zn944   1.937   .     S
Br946  C954    1.922   .     S
Br947  C949    1.929   .     S
C948   O999    1.265   .     A
C948   O1001   1.270   .     A
C948   C958    1.428   .     S
C949   C976    1.421   .     A
C949   C950    1.389   .     A
C950   H983    1.082   .     S
C950   C385    1.396   1_556 S
C951   O1000   1.293   .     A
C951   C957    1.459   .     S
C951   O1002   1.274   .     A
C952   C953    1.421   .     A
C952   C954    1.411   .     A
C953   C956    1.420   .     A
C953   C977    1.428   .     A
C954   C955    1.391   .     A
C955   C967    1.395   .     A
C955   H982    1.084   .     S
C956   C967    1.405   .     A
C956   C973    1.453   .     S
C957   C1021   1.350   .     S
C957   H1043   1.088   .     S
C958   C1083   1.350   1_455 S
C958   C1097   1.450   1_455 S
C959   C968    1.391   .     A
C959   C966    1.399   .     A
C959   H985    1.083   .     S
C960   C963    1.454   .     S
C960   C583    1.346   1_565 S
C960   H603    1.088   1_565 S
C961   C962    1.426   .     S
C962   O1003   1.275   .     A
C962   O997    1.277   .     A
C963   O1004   1.278   .     A
C963   O998    1.266   .     A
C964   O995    1.278   .     A
C964   C967    1.458   .     S
C964   O993    1.278   .     A
C965   O994    1.282   .     A
C965   O996    1.288   .     A
C965   C966    1.469   .     S
C966   C970    1.395   .     A
C968   C975    1.410   .     A
C968   H984    1.083   .     S
C969   N988    1.157   .     T
C969   C979    1.447   .     S
C970   C974    1.404   .     A
C970   H986    1.077   .     S
C971   N989    1.158   .     T
C971   C1021   1.450   .     S
C972   N990    1.158   .     T
C972   C583    1.450   1_565 S
C973   N991    1.158   .     T
C974   C976    1.424   .     A
C974   C975    1.421   .     A
C975   C412    1.404   1_556 S
C976   C410    1.422   1_556 S
C977   C978    1.412   .     A
C978   C979    1.391   .     A
C978   H987    1.079   .     S
H980   C1083   1.088   1_455 S
O992   Zn1006  1.946   .     S
O992   Zn1007  1.944   .     S
O992   Zn1008  1.933   .     S
O992   Zn1005  1.967   .     S
O993   Zn1006  1.933   .     S
O994   Zn1008  1.942   .     S
O995   Zn1007  1.933   .     S
O996   Zn1005  1.925   .     S
O997   Zn1005  1.936   .     S
O998   Zn1008  1.942   .     S
O999   Zn1006  1.934   .     S
O1000  Zn1007  1.944   .     S
O1001  Zn1008  1.941   .     S
O1002  Zn1005  1.933   .     S
O1003  Zn1006  1.946   .     S
O1004  Zn1007  1.937   .     S
Br1009 C1017   1.922   .     S
Br1010 C1012   1.929   .     S
C1011  O1062   1.265   .     A
C1011  O1064   1.270   .     A
C1011  C1021   1.428   .     S
C1012  C1039   1.421   .     A
C1012  C1013   1.389   .     A
C1013  H1046   1.082   .     S
C1013  C448    1.396   1_556 S
C1014  O1063   1.293   .     A
C1014  C1020   1.459   .     S
C1014  O1065   1.274   .     A
C1015  C1016   1.421   .     A
C1015  C1017   1.411   .     A
C1016  C1019   1.420   .     A
C1016  C1040   1.428   .     A
C1017  C1018   1.391   .     A
C1018  C1030   1.395   .     A
C1018  H1045   1.084   .     S
C1019  C1030   1.405   .     A
C1019  C1036   1.453   .     S
C1020  C1084   1.350   .     S
C1020  H1106   1.088   .     S
C1022  C1031   1.391   .     A
C1022  C1029   1.399   .     A
C1022  H1048   1.083   .     S
C1023  C1026   1.454   .     S
C1023  C646    1.346   1_565 S
C1023  H666    1.088   1_565 S
C1024  C1025   1.426   .     S
C1025  O1066   1.275   .     A
C1025  O1060   1.277   .     A
C1026  O1067   1.278   .     A
C1026  O1061   1.266   .     A
C1027  O1058   1.278   .     A
C1027  C1030   1.458   .     S
C1027  O1056   1.278   .     A
C1028  O1057   1.282   .     A
C1028  O1059   1.288   .     A
C1028  C1029   1.469   .     S
C1029  C1033   1.395   .     A
C1031  C1038   1.410   .     A
C1031  H1047   1.083   .     S
C1032  N1051   1.157   .     T
C1032  C1042   1.447   .     S
C1033  C1037   1.404   .     A
C1033  H1049   1.077   .     S
C1034  N1052   1.158   .     T
C1034  C1084   1.450   .     S
C1035  N1053   1.158   .     T
C1035  C646    1.450   1_565 S
C1036  N1054   1.158   .     T
C1037  C1039   1.424   .     A
C1037  C1038   1.421   .     A
C1038  C475    1.404   1_556 S
C1039  C473    1.422   1_556 S
C1040  C1041   1.412   .     A
C1041  C1042   1.391   .     A
C1041  H1050   1.079   .     S
O1055  Zn1069  1.946   .     S
O1055  Zn1070  1.944   .     S
O1055  Zn1071  1.933   .     S
O1055  Zn1068  1.967   .     S
O1056  Zn1069  1.933   .     S
O1057  Zn1071  1.942   .     S
O1058  Zn1070  1.933   .     S
O1059  Zn1068  1.925   .     S
O1060  Zn1068  1.936   .     S
O1061  Zn1071  1.942   .     S
O1062  Zn1069  1.934   .     S
O1063  Zn1070  1.944   .     S
O1064  Zn1071  1.941   .     S
O1065  Zn1068  1.933   .     S
O1066  Zn1069  1.946   .     S
O1067  Zn1070  1.937   .     S
Br1072 C1080   1.922   .     S
Br1073 C1075   1.929   .     S
C1074  O1125   1.265   .     A
C1074  O1127   1.270   .     A
C1074  C1084   1.428   .     S
C1075  C1102   1.421   .     A
C1075  C1076   1.389   .     A
C1076  H1109   1.082   .     S
C1076  C511    1.396   1_556 S
C1077  O1126   1.293   .     A
C1077  C1083   1.459   .     S
C1077  O1128   1.274   .     A
C1078  C1079   1.421   .     A
C1078  C1080   1.411   .     A
C1079  C1082   1.420   .     A
C1079  C1103   1.428   .     A
C1080  C1081   1.391   .     A
C1081  C1093   1.395   .     A
C1081  H1108   1.084   .     S
C1082  C1093   1.405   .     A
C1082  C1099   1.453   .     S
C1083  C958    1.350   1_655 S
C1083  H980    1.088   1_655 S
C1085  C1094   1.391   .     A
C1085  C1092   1.399   .     A
C1085  H1111   1.083   .     S
C1086  C1089   1.454   .     S
C1086  C709    1.346   1_565 S
C1086  H729    1.088   1_565 S
C1087  C1088   1.426   .     S
C1088  O1129   1.275   .     A
C1088  O1123   1.277   .     A
C1089  O1130   1.278   .     A
C1089  O1124   1.266   .     A
C1090  O1121   1.278   .     A
C1090  C1093   1.458   .     S
C1090  O1119   1.278   .     A
C1091  O1120   1.282   .     A
C1091  O1122   1.288   .     A
C1091  C1092   1.469   .     S
C1092  C1096   1.395   .     A
C1094  C1101   1.410   .     A
C1094  H1110   1.083   .     S
C1095  N1114   1.157   .     T
C1095  C1105   1.447   .     S
C1096  C1100   1.404   .     A
C1096  H1112   1.077   .     S
C1097  N1115   1.158   .     T
C1097  C958    1.450   1_655 S
C1098  N1116   1.158   .     T
C1098  C709    1.450   1_565 S
C1099  N1117   1.158   .     T
C1100  C1102   1.424   .     A
C1100  C1101   1.421   .     A
C1101  C538    1.404   1_556 S
C1102  C536    1.422   1_556 S
C1103  C1104   1.412   .     A
C1104  C1105   1.391   .     A
C1104  H1113   1.079   .     S
O1118  Zn1132  1.946   .     S
O1118  Zn1133  1.944   .     S
O1118  Zn1134  1.933   .     S
O1118  Zn1131  1.967   .     S
O1119  Zn1132  1.933   .     S
O1120  Zn1134  1.942   .     S
O1121  Zn1133  1.933   .     S
O1122  Zn1131  1.925   .     S
O1123  Zn1131  1.936   .     S
O1124  Zn1134  1.942   .     S
O1125  Zn1132  1.934   .     S
O1126  Zn1133  1.944   .     S
O1127  Zn1134  1.941   .     S
O1128  Zn1131  1.933   .     S
O1129  Zn1132  1.946   .     S
O1130  Zn1133  1.937   .     S
