data_str_m3_o1_o1_pcu_sym.72
_audit_creation_date              2020-01-03
_audit_creation_method            'Materials Studio'
_symmetry_space_group_name_H-M    'P1'
_symmetry_Int_Tables_number       1
_symmetry_cell_setting            triclinic
loop_
_symmetry_equiv_pos_as_xyz
  x,y,z
_cell_length_a                    31.0139
_cell_length_b                    31.1609
_cell_length_c                    30.0195
_cell_angle_alpha                 89.9746
_cell_angle_beta                  90.6407
_cell_angle_gamma                 90.3346
loop_
_atom_site_label
_atom_site_type_symbol
_atom_site_fract_x
_atom_site_fract_y
_atom_site_fract_z
_atom_site_U_iso_or_equiv
_atom_site_adp_type
_atom_site_occupancy
O1     O     0.04580   0.20419   0.20487   0.00000  Uiso   1.00
O2     O     0.45419   0.29581   0.12846   0.00000  Uiso   1.00
O3     O     0.45419   0.29581   0.20487   0.00000  Uiso   1.00
O4     O     0.04580   0.20419   0.12846   0.00000  Uiso   1.00
O5     O     0.45419   0.20419   0.12846   0.00000  Uiso   1.00
O6     O     0.04580   0.29581   0.20487   0.00000  Uiso   1.00
O7     O     0.04580   0.29581   0.12846   0.00000  Uiso   1.00
O8     O     0.45419   0.20419   0.20487   0.00000  Uiso   1.00
O9     O     0.29580   0.45419   0.20487   0.00000  Uiso   1.00
O10    O     0.20419   0.04581   0.12846   0.00000  Uiso   1.00
O11    O     0.20419   0.04581   0.20487   0.00000  Uiso   1.00
O12    O     0.29580   0.45419   0.12846   0.00000  Uiso   1.00
O13    O     0.20419   0.45419   0.12846   0.00000  Uiso   1.00
O14    O     0.29580   0.04581   0.20487   0.00000  Uiso   1.00
O15    O     0.29580   0.04581   0.12846   0.00000  Uiso   1.00
O16    O     0.20419   0.45419   0.20487   0.00000  Uiso   1.00
C17    C     0.05985   0.18986   0.16677   0.00000  Uiso   1.00
C18    C     0.43852   0.30846   0.16640   0.00000  Uiso   1.00
C19    C     0.44032   0.18999   0.16635   0.00000  Uiso   1.00
C20    C     0.06205   0.30810   0.16676   0.00000  Uiso   1.00
C21    C     0.30984   0.43985   0.16676   0.00000  Uiso   1.00
C22    C     0.18854   0.05848   0.16640   0.00000  Uiso   1.00
C23    C     0.19028   0.44003   0.16635   0.00000  Uiso   1.00
C24    C     0.31207   0.05808   0.16675   0.00000  Uiso   1.00
N25    N     0.00000   0.25000   0.28573   0.00000  Uiso   1.00
N26    N    -0.00000   0.25000   0.04760   0.00000  Uiso   1.00
N27    N     0.25000   0.00000   0.28573   0.00000  Uiso   1.00
N28    N     0.25000   0.00000   0.04760   0.00000  Uiso   1.00
Zn29   Zn   -0.00000   0.25000   0.21771   0.00000  Uiso   1.00
Zn30   Zn    0.00000   0.25000   0.11563   0.00000  Uiso   1.00
Zn31   Zn    0.25000   0.00000   0.21771   0.00000  Uiso   1.00
Zn32   Zn    0.25000   0.00000   0.11563   0.00000  Uiso   1.00
C33    C     0.00974   0.28615   0.02380   0.00000  Uiso   1.00
C34    C     0.48842   0.21433   0.30953   0.00000  Uiso   1.00
C35    C     0.48696   0.21481   0.02371   0.00000  Uiso   1.00
C36    C     0.00667   0.28683   0.30970   0.00000  Uiso   1.00
C37    C     0.25973   0.03616   0.02380   0.00000  Uiso   1.00
C38    C     0.23839   0.46434   0.30953   0.00000  Uiso   1.00
C39    C     0.23694   0.46482   0.02371   0.00000  Uiso   1.00
C40    C     0.25667   0.03683   0.30970   0.00000  Uiso   1.00
C41    C     0.38411   0.14668   0.12764   0.00000  Uiso   1.00
C42    C     0.12727   0.34427   0.20284   0.00000  Uiso   1.00
C43    C     0.10869   0.35995   0.12617   0.00000  Uiso   1.00
C44    C     0.41150   0.12330   0.19923   0.00000  Uiso   1.00
C45    C     0.10914   0.13932   0.20681   0.00000  Uiso   1.00
C46    C     0.38559   0.35525   0.12538   0.00000  Uiso   1.00
C47    C     0.38418   0.35232   0.20666   0.00000  Uiso   1.00
C48    C     0.10303   0.13576   0.12615   0.00000  Uiso   1.00
C49    C     0.13391   0.39688   0.12773   0.00000  Uiso   1.00
C50    C     0.37733   0.09421   0.20283   0.00000  Uiso   1.00
C51    C     0.35888   0.10976   0.12610   0.00000  Uiso   1.00
C52    C     0.16142   0.37337   0.19924   0.00000  Uiso   1.00
C53    C     0.35913   0.38930   0.20679   0.00000  Uiso   1.00
C54    C     0.13571   0.10536   0.12540   0.00000  Uiso   1.00
C55    C     0.13422   0.10236   0.20668   0.00000  Uiso   1.00
C56    C     0.35290   0.38566   0.12614   0.00000  Uiso   1.00
C57    C     0.09921   0.33794   0.16592   0.00000  Uiso   1.00
C58    C     0.41031   0.15407   0.16516   0.00000  Uiso   1.00
C59    C     0.40204   0.33845   0.16593   0.00000  Uiso   1.00
C60    C     0.09129   0.15487   0.16664   0.00000  Uiso   1.00
C61    C     0.34930   0.08785   0.16590   0.00000  Uiso   1.00
C62    C     0.16021   0.40418   0.16520   0.00000  Uiso   1.00
C63    C     0.15210   0.08851   0.16595   0.00000  Uiso   1.00
C64    C     0.34124   0.40482   0.16662   0.00000  Uiso   1.00
F65    F     0.01995   0.32266   0.04579   0.00000  Uiso   1.00
F66    F     0.47629   0.17841   0.28766   0.00000  Uiso   1.00
F67    F     0.47205   0.17989   0.04550   0.00000  Uiso   1.00
F68    F     0.00661   0.32499   0.28833   0.00000  Uiso   1.00
F69    F     0.26994   0.07266   0.04579   0.00000  Uiso   1.00
F70    F     0.22622   0.42843   0.28766   0.00000  Uiso   1.00
F71    F     0.22200   0.42991   0.04550   0.00000  Uiso   1.00
F72    F     0.25663   0.07499   0.28834   0.00000  Uiso   1.00
O73    O     0.38732   0.17134   0.08952   0.00000  Uiso   1.00
C74    C     0.36469   0.21024   0.09497   0.00000  Uiso   1.00
H75    H     0.37104   0.23011   0.06494   0.00000  Uiso   1.00
H76    H     0.37673   0.22937   0.12384   0.00000  Uiso   1.00
C77    C     0.31607   0.20268   0.09961   0.00000  Uiso   1.00
H78    H     0.30597   0.17430   0.07985   0.00000  Uiso   1.00
H79    H     0.30856   0.19619   0.13513   0.00000  Uiso   1.00
C80    C     0.29112   0.24165   0.08393   0.00000  Uiso   1.00
H81    H     0.30737   0.27092   0.09631   0.00000  Uiso   1.00
H82    H     0.25781   0.24026   0.09695   0.00000  Uiso   1.00
H83    H     0.29011   0.24270   0.04706   0.00000  Uiso   1.00
O84    O     0.12448   0.31995   0.24104   0.00000  Uiso   1.00
C85    C     0.09657   0.34086   0.27073   0.00000  Uiso   1.00
H86    H     0.08652   0.31658   0.29555   0.00000  Uiso   1.00
H87    H     0.06730   0.35346   0.25349   0.00000  Uiso   1.00
C88    C     0.11783   0.37817   0.29575   0.00000  Uiso   1.00
H89    H     0.14618   0.36659   0.31487   0.00000  Uiso   1.00
H90    H     0.12862   0.40349   0.27238   0.00000  Uiso   1.00
C91    C     0.08509   0.39834   0.32654   0.00000  Uiso   1.00
H92    H     0.05803   0.41220   0.30693   0.00000  Uiso   1.00
H93    H     0.10096   0.42388   0.01294   0.00000  Uiso   1.00
H94    H     0.07124   0.37415   0.01560   0.00000  Uiso   1.00
O95    O     0.09469   0.34577   0.08500   0.00000  Uiso   1.00
C96    C     0.11826   0.30888   0.07231   0.00000  Uiso   1.00
H97    H     0.10486   0.29793   0.03977   0.00000  Uiso   1.00
H98    H     0.11396   0.28169   0.09586   0.00000  Uiso   1.00
C99    C     0.16663   0.31761   0.06733   0.00000  Uiso   1.00
H100   H     0.17182   0.34773   0.04860   0.00000  Uiso   1.00
H101   H     0.18211   0.32118   0.10074   0.00000  Uiso   1.00
C102   C     0.18755   0.28028   0.04360   0.00000  Uiso   1.00
H103   H     0.18057   0.25014   0.06185   0.00000  Uiso   1.00
H104   H     0.22275   0.28499   0.04331   0.00000  Uiso   1.00
H105   H     0.17532   0.27781   0.00876   0.00000  Uiso   1.00
O106   O     0.44531   0.12161   0.22972   0.00000  Uiso   1.00
C107   C     0.48369   0.10991   0.20754   0.00000  Uiso   1.00
H108   H     0.01164   0.12445   0.22529   0.00000  Uiso   1.00
H109   H     0.48600   0.12210   0.17276   0.00000  Uiso   1.00
C110   C     0.48839   0.06140   0.20725   0.00000  Uiso   1.00
H111   H     0.49475   0.04996   0.24168   0.00000  Uiso   1.00
H112   H     0.45798   0.04662   0.19457   0.00000  Uiso   1.00
C113   C     0.02484   0.04814   0.17692   0.00000  Uiso   1.00
H114   H     0.01771   0.05972   0.14272   0.00000  Uiso   1.00
H115   H     0.02770   0.01271   0.17664   0.00000  Uiso   1.00
H116   H     0.05583   0.06223   0.18838   0.00000  Uiso   1.00
O117   O     0.10567   0.16173   0.24640   0.00000  Uiso   1.00
C118   C     0.13687   0.19534   0.24699   0.00000  Uiso   1.00
H119   H     0.13112   0.21504   0.27717   0.00000  Uiso   1.00
H120   H     0.13297   0.21720   0.21785   0.00000  Uiso   1.00
C121   C     0.18328   0.17808   0.24928   0.00000  Uiso   1.00
H122   H     0.18633   0.15599   0.27793   0.00000  Uiso   1.00
H123   H     0.19122   0.15993   0.21874   0.00000  Uiso   1.00
C124   C     0.21658   0.21361   0.25258   0.00000  Uiso   1.00
H125   H     0.22092   0.22758   0.21907   0.00000  Uiso   1.00
H126   H     0.24758   0.19939   0.26349   0.00000  Uiso   1.00
H127   H     0.20691   0.23892   0.27638   0.00000  Uiso   1.00
O128   O     0.39658   0.33870   0.08431   0.00000  Uiso   1.00
C129   C     0.43359   0.35968   0.06778   0.00000  Uiso   1.00
H130   H     0.44617   0.33822   0.04185   0.00000  Uiso   1.00
H131   H     0.45913   0.36458   0.09375   0.00000  Uiso   1.00
C132   C     0.42431   0.40244   0.04495   0.00000  Uiso   1.00
H133   H     0.40121   0.39785   0.01691   0.00000  Uiso   1.00
H134   H     0.41097   0.42558   0.06912   0.00000  Uiso   1.00
C135   C     0.46629   0.42101   0.02747   0.00000  Uiso   1.00
H136   H     0.48796   0.42770   0.05589   0.00000  Uiso   1.00
H137   H     0.46010   0.45130   0.00959   0.00000  Uiso   1.00
H138   H     0.48239   0.39814   0.00480   0.00000  Uiso   1.00
O139   O     0.39711   0.33574   0.24757   0.00000  Uiso   1.00
C140   C     0.38162   0.29317   0.25251   0.00000  Uiso   1.00
H141   H     0.40698   0.27416   0.26986   0.00000  Uiso   1.00
H142   H     0.37452   0.27640   0.22032   0.00000  Uiso   1.00
C143   C     0.34190   0.29263   0.28121   0.00000  Uiso   1.00
H144   H     0.35131   0.30091   0.31594   0.00000  Uiso   1.00
H145   H     0.31855   0.31617   0.26788   0.00000  Uiso   1.00
C146   C     0.32168   0.24833   0.28091   0.00000  Uiso   1.00
H147   H     0.31089   0.23950   0.24677   0.00000  Uiso   1.00
H148   H     0.29372   0.24742   0.30351   0.00000  Uiso   1.00
H149   H     0.34630   0.22521   0.29217   0.00000  Uiso   1.00
O150   O     0.08710   0.15086   0.08602   0.00000  Uiso   1.00
C151   C     0.05605   0.12189   0.06903   0.00000  Uiso   1.00
H152   H     0.02427   0.12890   0.08408   0.00000  Uiso   1.00
H153   H     0.06407   0.08786   0.07578   0.00000  Uiso   1.00
C154   C     0.05385   0.12732   0.01874   0.00000  Uiso   1.00
H155   H     0.04978   0.16151   0.01007   0.00000  Uiso   1.00
H156   H     0.08476   0.11737   0.00406   0.00000  Uiso   1.00
C157   C     0.01735   0.10059   0.33220   0.00000  Uiso   1.00
H158   H     0.02412   0.06608   0.00369   0.00000  Uiso   1.00
H159   H     0.01461   0.10713   0.29632   0.00000  Uiso   1.00
H160   H     0.48625   0.10867   0.01418   0.00000  Uiso   1.00
O161   O     0.13711   0.42158   0.08964   0.00000  Uiso   1.00
C162   C     0.11442   0.46044   0.09512   0.00000  Uiso   1.00
H163   H     0.12081   0.48036   0.06514   0.00000  Uiso   1.00
H164   H     0.12641   0.47951   0.12406   0.00000  Uiso   1.00
C165   C     0.06579   0.45280   0.09963   0.00000  Uiso   1.00
H166   H     0.05582   0.42431   0.07997   0.00000  Uiso   1.00
H167   H     0.05819   0.44644   0.13515   0.00000  Uiso   1.00
C168   C     0.04077   0.49162   0.08366   0.00000  Uiso   1.00
H169   H     0.05692   0.02100   0.09588   0.00000  Uiso   1.00
H170   H     0.00743   0.49025   0.09662   0.00000  Uiso   1.00
H171   H     0.03982   0.49245   0.04679   0.00000  Uiso   1.00
O172   O     0.37450   0.06993   0.24105   0.00000  Uiso   1.00
C173   C     0.34658   0.09089   0.27070   0.00000  Uiso   1.00
H174   H     0.33659   0.06667   0.29561   0.00000  Uiso   1.00
H175   H     0.31729   0.10341   0.25344   0.00000  Uiso   1.00
C176   C     0.36779   0.12832   0.29555   0.00000  Uiso   1.00
H177   H     0.39631   0.11693   0.31450   0.00000  Uiso   1.00
H178   H     0.37832   0.15367   0.27208   0.00000  Uiso   1.00
C179   C     0.33512   0.14836   0.32650   0.00000  Uiso   1.00
H180   H     0.30794   0.16217   0.30702   0.00000  Uiso   1.00
H181   H     0.35100   0.17393   0.01285   0.00000  Uiso   1.00
H182   H     0.32144   0.12411   0.01561   0.00000  Uiso   1.00
O183   O     0.34478   0.09560   0.08496   0.00000  Uiso   1.00
C184   C     0.36816   0.05858   0.07230   0.00000  Uiso   1.00
H185   H     0.35444   0.04745   0.03997   0.00000  Uiso   1.00
H186   H     0.36405   0.03154   0.09609   0.00000  Uiso   1.00
C187   C     0.41648   0.06721   0.06680   0.00000  Uiso   1.00
H188   H     0.42153   0.09728   0.04794   0.00000  Uiso   1.00
H189   H     0.43229   0.07084   0.10004   0.00000  Uiso   1.00
C190   C     0.43706   0.02977   0.04291   0.00000  Uiso   1.00
H191   H     0.43030   0.49971   0.06141   0.00000  Uiso   1.00
H192   H     0.47226   0.03442   0.04206   0.00000  Uiso   1.00
H193   H     0.42434   0.02715   0.00825   0.00000  Uiso   1.00
O194   O     0.19526   0.37165   0.22968   0.00000  Uiso   1.00
C195   C     0.23360   0.35990   0.20746   0.00000  Uiso   1.00
H196   H     0.26157   0.37449   0.22513   0.00000  Uiso   1.00
H197   H     0.23585   0.37201   0.17264   0.00000  Uiso   1.00
C198   C     0.23830   0.31140   0.20729   0.00000  Uiso   1.00
H199   H     0.24466   0.30003   0.24175   0.00000  Uiso   1.00
H200   H     0.20788   0.29659   0.19465   0.00000  Uiso   1.00
C201   C     0.27474   0.29807   0.17700   0.00000  Uiso   1.00
H202   H     0.26761   0.30958   0.14277   0.00000  Uiso   1.00
H203   H     0.27761   0.26264   0.17679   0.00000  Uiso   1.00
H204   H     0.30573   0.31218   0.18842   0.00000  Uiso   1.00
O205   O     0.35576   0.41177   0.24635   0.00000  Uiso   1.00
C206   C     0.38701   0.44533   0.24684   0.00000  Uiso   1.00
H207   H     0.38140   0.46503   0.27705   0.00000  Uiso   1.00
H208   H     0.38305   0.46720   0.21772   0.00000  Uiso   1.00
C209   C     0.43341   0.42801   0.24897   0.00000  Uiso   1.00
H210   H     0.43652   0.40586   0.27755   0.00000  Uiso   1.00
H211   H     0.44125   0.40992   0.21835   0.00000  Uiso   1.00
C212   C     0.46677   0.46348   0.25225   0.00000  Uiso   1.00
H213   H     0.47104   0.47754   0.21878   0.00000  Uiso   1.00
H214   H     0.49778   0.44919   0.26303   0.00000  Uiso   1.00
H215   H     0.45721   0.48875   0.27616   0.00000  Uiso   1.00
O216   O     0.14673   0.08884   0.08433   0.00000  Uiso   1.00
C217   C     0.18372   0.10988   0.06782   0.00000  Uiso   1.00
H218   H     0.19624   0.08853   0.04174   0.00000  Uiso   1.00
H219   H     0.20932   0.11462   0.09376   0.00000  Uiso   1.00
C220   C     0.17442   0.15276   0.04524   0.00000  Uiso   1.00
H221   H     0.15122   0.14833   0.01725   0.00000  Uiso   1.00
H222   H     0.16119   0.17581   0.06957   0.00000  Uiso   1.00
C223   C     0.21636   0.17137   0.02772   0.00000  Uiso   1.00
H224   H     0.23808   0.17798   0.05613   0.00000  Uiso   1.00
H225   H     0.21014   0.20172   0.00995   0.00000  Uiso   1.00
H226   H     0.23243   0.14857   0.00497   0.00000  Uiso   1.00
O227   O     0.14713   0.08576   0.24758   0.00000  Uiso   1.00
C228   C     0.13164   0.04319   0.25250   0.00000  Uiso   1.00
H229   H     0.15698   0.02418   0.26987   0.00000  Uiso   1.00
H230   H     0.12456   0.02643   0.22030   0.00000  Uiso   1.00
C231   C     0.09189   0.04264   0.28117   0.00000  Uiso   1.00
H232   H     0.10128   0.05092   0.31591   0.00000  Uiso   1.00
H233   H     0.06856   0.06619   0.26784   0.00000  Uiso   1.00
C234   C     0.07168   0.49834   0.28084   0.00000  Uiso   1.00
H235   H     0.06101   0.48948   0.24666   0.00000  Uiso   1.00
H236   H     0.04364   0.49745   0.30333   0.00000  Uiso   1.00
H237   H     0.09626   0.47523   0.29222   0.00000  Uiso   1.00
O238   O     0.33697   0.40076   0.08601   0.00000  Uiso   1.00
C239   C     0.30593   0.37180   0.06898   0.00000  Uiso   1.00
H240   H     0.27414   0.37881   0.08402   0.00000  Uiso   1.00
H241   H     0.31393   0.33776   0.07571   0.00000  Uiso   1.00
C242   C     0.30376   0.37730   0.01869   0.00000  Uiso   1.00
H243   H     0.29976   0.41150   0.01006   0.00000  Uiso   1.00
H244   H     0.33467   0.36732   0.00402   0.00000  Uiso   1.00
C245   C     0.26725   0.35065   0.33204   0.00000  Uiso   1.00
H246   H     0.27393   0.31612   0.00349   0.00000  Uiso   1.00
H247   H     0.26461   0.35724   0.29617   0.00000  Uiso   1.00
H248   H     0.23613   0.35879   0.01396   0.00000  Uiso   1.00
O249   O     0.54580   0.20419   0.20487   0.00000  Uiso   1.00
O250   O     0.95419   0.29581   0.12846   0.00000  Uiso   1.00
O251   O     0.95419   0.29581   0.20487   0.00000  Uiso   1.00
O252   O     0.54580   0.20419   0.12846   0.00000  Uiso   1.00
O253   O     0.95419   0.20419   0.12846   0.00000  Uiso   1.00
O254   O     0.54580   0.29581   0.20487   0.00000  Uiso   1.00
O255   O     0.54580   0.29581   0.12846   0.00000  Uiso   1.00
O256   O     0.95419   0.20419   0.20487   0.00000  Uiso   1.00
O257   O     0.79580   0.45419   0.20487   0.00000  Uiso   1.00
O258   O     0.70419   0.04581   0.12846   0.00000  Uiso   1.00
O259   O     0.70419   0.04581   0.20487   0.00000  Uiso   1.00
O260   O     0.79580   0.45419   0.12846   0.00000  Uiso   1.00
O261   O     0.70419   0.45419   0.12846   0.00000  Uiso   1.00
O262   O     0.79580   0.04581   0.20487   0.00000  Uiso   1.00
O263   O     0.79580   0.04581   0.12846   0.00000  Uiso   1.00
O264   O     0.70419   0.45419   0.20487   0.00000  Uiso   1.00
C265   C     0.55985   0.18986   0.16677   0.00000  Uiso   1.00
C266   C     0.93852   0.30846   0.16640   0.00000  Uiso   1.00
C267   C     0.94032   0.18999   0.16635   0.00000  Uiso   1.00
C268   C     0.56205   0.30810   0.16676   0.00000  Uiso   1.00
C269   C     0.80984   0.43985   0.16676   0.00000  Uiso   1.00
C270   C     0.68854   0.05848   0.16640   0.00000  Uiso   1.00
C271   C     0.69028   0.44003   0.16635   0.00000  Uiso   1.00
C272   C     0.81207   0.05808   0.16675   0.00000  Uiso   1.00
N273   N     0.50000   0.25000   0.28573   0.00000  Uiso   1.00
N274   N     0.50000   0.25000   0.04760   0.00000  Uiso   1.00
N275   N     0.75000   0.00000   0.28573   0.00000  Uiso   1.00
N276   N     0.75000   0.00000   0.04760   0.00000  Uiso   1.00
Zn277  Zn    0.50000   0.25000   0.21771   0.00000  Uiso   1.00
Zn278  Zn    0.50000   0.25000   0.11563   0.00000  Uiso   1.00
Zn279  Zn    0.75000   0.00000   0.21771   0.00000  Uiso   1.00
Zn280  Zn    0.75000   0.00000   0.11563   0.00000  Uiso   1.00
C281   C     0.50974   0.28615   0.02380   0.00000  Uiso   1.00
C282   C     0.98842   0.21433   0.30953   0.00000  Uiso   1.00
C283   C     0.98696   0.21481   0.02371   0.00000  Uiso   1.00
C284   C     0.50667   0.28683   0.30970   0.00000  Uiso   1.00
C285   C     0.75973   0.03616   0.02380   0.00000  Uiso   1.00
C286   C     0.73839   0.46434   0.30953   0.00000  Uiso   1.00
C287   C     0.73694   0.46482   0.02371   0.00000  Uiso   1.00
C288   C     0.75667   0.03683   0.30970   0.00000  Uiso   1.00
C289   C     0.88411   0.14668   0.12764   0.00000  Uiso   1.00
C290   C     0.62727   0.34427   0.20284   0.00000  Uiso   1.00
C291   C     0.60869   0.35995   0.12617   0.00000  Uiso   1.00
C292   C     0.91150   0.12330   0.19923   0.00000  Uiso   1.00
C293   C     0.60914   0.13932   0.20681   0.00000  Uiso   1.00
C294   C     0.88559   0.35525   0.12538   0.00000  Uiso   1.00
C295   C     0.88418   0.35232   0.20666   0.00000  Uiso   1.00
C296   C     0.60303   0.13576   0.12615   0.00000  Uiso   1.00
C297   C     0.63391   0.39688   0.12773   0.00000  Uiso   1.00
C298   C     0.87733   0.09421   0.20283   0.00000  Uiso   1.00
C299   C     0.85888   0.10976   0.12610   0.00000  Uiso   1.00
C300   C     0.66142   0.37337   0.19924   0.00000  Uiso   1.00
C301   C     0.85913   0.38930   0.20679   0.00000  Uiso   1.00
C302   C     0.63571   0.10536   0.12540   0.00000  Uiso   1.00
C303   C     0.63422   0.10236   0.20668   0.00000  Uiso   1.00
C304   C     0.85290   0.38566   0.12614   0.00000  Uiso   1.00
C305   C     0.59921   0.33794   0.16592   0.00000  Uiso   1.00
C306   C     0.91031   0.15407   0.16516   0.00000  Uiso   1.00
C307   C     0.90204   0.33845   0.16593   0.00000  Uiso   1.00
C308   C     0.59129   0.15487   0.16664   0.00000  Uiso   1.00
C309   C     0.84930   0.08785   0.16590   0.00000  Uiso   1.00
C310   C     0.66021   0.40418   0.16520   0.00000  Uiso   1.00
C311   C     0.65210   0.08851   0.16595   0.00000  Uiso   1.00
C312   C     0.84124   0.40482   0.16662   0.00000  Uiso   1.00
F313   F     0.51995   0.32266   0.04579   0.00000  Uiso   1.00
F314   F     0.97629   0.17841   0.28766   0.00000  Uiso   1.00
F315   F     0.97205   0.17989   0.04550   0.00000  Uiso   1.00
F316   F     0.50661   0.32499   0.28833   0.00000  Uiso   1.00
F317   F     0.76994   0.07266   0.04579   0.00000  Uiso   1.00
F318   F     0.72622   0.42843   0.28766   0.00000  Uiso   1.00
F319   F     0.72200   0.42991   0.04550   0.00000  Uiso   1.00
F320   F     0.75663   0.07499   0.28834   0.00000  Uiso   1.00
O321   O     0.88732   0.17134   0.08952   0.00000  Uiso   1.00
C322   C     0.86469   0.21024   0.09497   0.00000  Uiso   1.00
H323   H     0.87104   0.23011   0.06494   0.00000  Uiso   1.00
H324   H     0.87673   0.22937   0.12384   0.00000  Uiso   1.00
C325   C     0.81607   0.20268   0.09961   0.00000  Uiso   1.00
H326   H     0.80597   0.17430   0.07985   0.00000  Uiso   1.00
H327   H     0.80856   0.19619   0.13513   0.00000  Uiso   1.00
C328   C     0.79112   0.24165   0.08393   0.00000  Uiso   1.00
H329   H     0.80737   0.27092   0.09631   0.00000  Uiso   1.00
H330   H     0.75781   0.24026   0.09695   0.00000  Uiso   1.00
H331   H     0.79011   0.24270   0.04706   0.00000  Uiso   1.00
O332   O     0.62448   0.31995   0.24104   0.00000  Uiso   1.00
C333   C     0.59657   0.34086   0.27073   0.00000  Uiso   1.00
H334   H     0.58652   0.31658   0.29555   0.00000  Uiso   1.00
H335   H     0.56730   0.35346   0.25349   0.00000  Uiso   1.00
C336   C     0.61783   0.37817   0.29575   0.00000  Uiso   1.00
H337   H     0.64618   0.36659   0.31487   0.00000  Uiso   1.00
H338   H     0.62862   0.40349   0.27238   0.00000  Uiso   1.00
C339   C     0.58509   0.39834   0.32654   0.00000  Uiso   1.00
H340   H     0.55803   0.41220   0.30693   0.00000  Uiso   1.00
H341   H     0.60096   0.42388   0.01294   0.00000  Uiso   1.00
H342   H     0.57124   0.37415   0.01560   0.00000  Uiso   1.00
O343   O     0.59469   0.34577   0.08500   0.00000  Uiso   1.00
C344   C     0.61826   0.30888   0.07231   0.00000  Uiso   1.00
H345   H     0.60486   0.29793   0.03977   0.00000  Uiso   1.00
H346   H     0.61396   0.28169   0.09586   0.00000  Uiso   1.00
C347   C     0.66663   0.31761   0.06733   0.00000  Uiso   1.00
H348   H     0.67182   0.34773   0.04860   0.00000  Uiso   1.00
H349   H     0.68211   0.32118   0.10074   0.00000  Uiso   1.00
C350   C     0.68755   0.28028   0.04360   0.00000  Uiso   1.00
H351   H     0.68057   0.25014   0.06185   0.00000  Uiso   1.00
H352   H     0.72275   0.28499   0.04331   0.00000  Uiso   1.00
H353   H     0.67532   0.27781   0.00876   0.00000  Uiso   1.00
O354   O     0.94531   0.12161   0.22972   0.00000  Uiso   1.00
C355   C     0.98369   0.10991   0.20754   0.00000  Uiso   1.00
H356   H     0.51164   0.12445   0.22529   0.00000  Uiso   1.00
H357   H     0.98600   0.12210   0.17276   0.00000  Uiso   1.00
C358   C     0.98839   0.06140   0.20725   0.00000  Uiso   1.00
H359   H     0.99475   0.04996   0.24168   0.00000  Uiso   1.00
H360   H     0.95798   0.04662   0.19457   0.00000  Uiso   1.00
C361   C     0.52484   0.04814   0.17692   0.00000  Uiso   1.00
H362   H     0.51771   0.05972   0.14272   0.00000  Uiso   1.00
H363   H     0.52770   0.01271   0.17664   0.00000  Uiso   1.00
H364   H     0.55583   0.06223   0.18838   0.00000  Uiso   1.00
O365   O     0.60567   0.16173   0.24640   0.00000  Uiso   1.00
C366   C     0.63687   0.19534   0.24699   0.00000  Uiso   1.00
H367   H     0.63112   0.21504   0.27717   0.00000  Uiso   1.00
H368   H     0.63297   0.21720   0.21785   0.00000  Uiso   1.00
C369   C     0.68328   0.17808   0.24928   0.00000  Uiso   1.00
H370   H     0.68633   0.15599   0.27793   0.00000  Uiso   1.00
H371   H     0.69122   0.15993   0.21874   0.00000  Uiso   1.00
C372   C     0.71658   0.21361   0.25258   0.00000  Uiso   1.00
H373   H     0.72092   0.22758   0.21907   0.00000  Uiso   1.00
H374   H     0.74758   0.19939   0.26349   0.00000  Uiso   1.00
H375   H     0.70691   0.23892   0.27638   0.00000  Uiso   1.00
O376   O     0.89658   0.33870   0.08431   0.00000  Uiso   1.00
C377   C     0.93359   0.35968   0.06778   0.00000  Uiso   1.00
H378   H     0.94617   0.33822   0.04185   0.00000  Uiso   1.00
H379   H     0.95913   0.36458   0.09375   0.00000  Uiso   1.00
C380   C     0.92431   0.40244   0.04495   0.00000  Uiso   1.00
H381   H     0.90121   0.39785   0.01691   0.00000  Uiso   1.00
H382   H     0.91097   0.42558   0.06912   0.00000  Uiso   1.00
C383   C     0.96629   0.42101   0.02747   0.00000  Uiso   1.00
H384   H     0.98796   0.42770   0.05589   0.00000  Uiso   1.00
H385   H     0.96010   0.45130   0.00959   0.00000  Uiso   1.00
H386   H     0.98239   0.39814   0.00480   0.00000  Uiso   1.00
O387   O     0.89711   0.33574   0.24757   0.00000  Uiso   1.00
C388   C     0.88162   0.29317   0.25251   0.00000  Uiso   1.00
H389   H     0.90698   0.27416   0.26986   0.00000  Uiso   1.00
H390   H     0.87452   0.27640   0.22032   0.00000  Uiso   1.00
C391   C     0.84190   0.29263   0.28121   0.00000  Uiso   1.00
H392   H     0.85131   0.30091   0.31594   0.00000  Uiso   1.00
H393   H     0.81855   0.31617   0.26788   0.00000  Uiso   1.00
C394   C     0.82168   0.24833   0.28091   0.00000  Uiso   1.00
H395   H     0.81089   0.23950   0.24677   0.00000  Uiso   1.00
H396   H     0.79372   0.24742   0.30351   0.00000  Uiso   1.00
H397   H     0.84630   0.22521   0.29217   0.00000  Uiso   1.00
O398   O     0.58710   0.15086   0.08602   0.00000  Uiso   1.00
C399   C     0.55605   0.12189   0.06903   0.00000  Uiso   1.00
H400   H     0.52427   0.12890   0.08408   0.00000  Uiso   1.00
H401   H     0.56407   0.08786   0.07578   0.00000  Uiso   1.00
C402   C     0.55385   0.12732   0.01874   0.00000  Uiso   1.00
H403   H     0.54978   0.16151   0.01007   0.00000  Uiso   1.00
H404   H     0.58476   0.11737   0.00406   0.00000  Uiso   1.00
C405   C     0.51735   0.10059   0.33220   0.00000  Uiso   1.00
H406   H     0.52412   0.06608   0.00369   0.00000  Uiso   1.00
H407   H     0.51461   0.10713   0.29632   0.00000  Uiso   1.00
H408   H     0.98625   0.10867   0.01418   0.00000  Uiso   1.00
O409   O     0.63711   0.42158   0.08964   0.00000  Uiso   1.00
C410   C     0.61442   0.46044   0.09512   0.00000  Uiso   1.00
H411   H     0.62081   0.48036   0.06514   0.00000  Uiso   1.00
H412   H     0.62641   0.47951   0.12406   0.00000  Uiso   1.00
C413   C     0.56579   0.45280   0.09963   0.00000  Uiso   1.00
H414   H     0.55582   0.42431   0.07997   0.00000  Uiso   1.00
H415   H     0.55819   0.44644   0.13515   0.00000  Uiso   1.00
C416   C     0.54077   0.49162   0.08366   0.00000  Uiso   1.00
H417   H     0.55692   0.02100   0.09588   0.00000  Uiso   1.00
H418   H     0.50743   0.49025   0.09662   0.00000  Uiso   1.00
H419   H     0.53982   0.49245   0.04679   0.00000  Uiso   1.00
O420   O     0.87450   0.06993   0.24105   0.00000  Uiso   1.00
C421   C     0.84658   0.09089   0.27070   0.00000  Uiso   1.00
H422   H     0.83659   0.06667   0.29561   0.00000  Uiso   1.00
H423   H     0.81729   0.10341   0.25344   0.00000  Uiso   1.00
C424   C     0.86779   0.12832   0.29555   0.00000  Uiso   1.00
H425   H     0.89631   0.11693   0.31450   0.00000  Uiso   1.00
H426   H     0.87832   0.15367   0.27208   0.00000  Uiso   1.00
C427   C     0.83512   0.14836   0.32650   0.00000  Uiso   1.00
H428   H     0.80794   0.16217   0.30702   0.00000  Uiso   1.00
H429   H     0.85100   0.17393   0.01285   0.00000  Uiso   1.00
H430   H     0.82144   0.12411   0.01561   0.00000  Uiso   1.00
O431   O     0.84478   0.09560   0.08496   0.00000  Uiso   1.00
C432   C     0.86816   0.05858   0.07230   0.00000  Uiso   1.00
H433   H     0.85444   0.04745   0.03997   0.00000  Uiso   1.00
H434   H     0.86405   0.03154   0.09609   0.00000  Uiso   1.00
C435   C     0.91648   0.06721   0.06680   0.00000  Uiso   1.00
H436   H     0.92153   0.09728   0.04794   0.00000  Uiso   1.00
H437   H     0.93229   0.07084   0.10004   0.00000  Uiso   1.00
C438   C     0.93706   0.02977   0.04291   0.00000  Uiso   1.00
H439   H     0.93030   0.49971   0.06141   0.00000  Uiso   1.00
H440   H     0.97226   0.03442   0.04206   0.00000  Uiso   1.00
H441   H     0.92434   0.02715   0.00825   0.00000  Uiso   1.00
O442   O     0.69526   0.37165   0.22968   0.00000  Uiso   1.00
C443   C     0.73360   0.35990   0.20746   0.00000  Uiso   1.00
H444   H     0.76157   0.37449   0.22513   0.00000  Uiso   1.00
H445   H     0.73585   0.37201   0.17264   0.00000  Uiso   1.00
C446   C     0.73830   0.31140   0.20729   0.00000  Uiso   1.00
H447   H     0.74466   0.30003   0.24175   0.00000  Uiso   1.00
H448   H     0.70788   0.29659   0.19465   0.00000  Uiso   1.00
C449   C     0.77474   0.29807   0.17700   0.00000  Uiso   1.00
H450   H     0.76761   0.30958   0.14277   0.00000  Uiso   1.00
H451   H     0.77761   0.26264   0.17679   0.00000  Uiso   1.00
H452   H     0.80573   0.31218   0.18842   0.00000  Uiso   1.00
O453   O     0.85576   0.41177   0.24635   0.00000  Uiso   1.00
C454   C     0.88701   0.44533   0.24684   0.00000  Uiso   1.00
H455   H     0.88140   0.46503   0.27705   0.00000  Uiso   1.00
H456   H     0.88305   0.46720   0.21772   0.00000  Uiso   1.00
C457   C     0.93341   0.42801   0.24897   0.00000  Uiso   1.00
H458   H     0.93652   0.40586   0.27755   0.00000  Uiso   1.00
H459   H     0.94125   0.40992   0.21835   0.00000  Uiso   1.00
C460   C     0.96677   0.46348   0.25225   0.00000  Uiso   1.00
H461   H     0.97104   0.47754   0.21878   0.00000  Uiso   1.00
H462   H     0.99778   0.44919   0.26303   0.00000  Uiso   1.00
H463   H     0.95721   0.48875   0.27616   0.00000  Uiso   1.00
O464   O     0.64673   0.08884   0.08433   0.00000  Uiso   1.00
C465   C     0.68372   0.10988   0.06782   0.00000  Uiso   1.00
H466   H     0.69624   0.08853   0.04174   0.00000  Uiso   1.00
H467   H     0.70932   0.11462   0.09376   0.00000  Uiso   1.00
C468   C     0.67442   0.15276   0.04524   0.00000  Uiso   1.00
H469   H     0.65122   0.14833   0.01725   0.00000  Uiso   1.00
H470   H     0.66119   0.17581   0.06957   0.00000  Uiso   1.00
C471   C     0.71636   0.17137   0.02772   0.00000  Uiso   1.00
H472   H     0.73808   0.17798   0.05613   0.00000  Uiso   1.00
H473   H     0.71014   0.20172   0.00995   0.00000  Uiso   1.00
H474   H     0.73243   0.14857   0.00497   0.00000  Uiso   1.00
O475   O     0.64713   0.08576   0.24758   0.00000  Uiso   1.00
C476   C     0.63164   0.04319   0.25250   0.00000  Uiso   1.00
H477   H     0.65698   0.02418   0.26987   0.00000  Uiso   1.00
H478   H     0.62456   0.02643   0.22030   0.00000  Uiso   1.00
C479   C     0.59189   0.04264   0.28117   0.00000  Uiso   1.00
H480   H     0.60128   0.05092   0.31591   0.00000  Uiso   1.00
H481   H     0.56856   0.06619   0.26784   0.00000  Uiso   1.00
C482   C     0.57168   0.49834   0.28084   0.00000  Uiso   1.00
H483   H     0.56101   0.48948   0.24666   0.00000  Uiso   1.00
H484   H     0.54364   0.49745   0.30333   0.00000  Uiso   1.00
H485   H     0.59626   0.47523   0.29222   0.00000  Uiso   1.00
O486   O     0.83697   0.40076   0.08601   0.00000  Uiso   1.00
C487   C     0.80593   0.37180   0.06898   0.00000  Uiso   1.00
H488   H     0.77414   0.37881   0.08402   0.00000  Uiso   1.00
H489   H     0.81393   0.33776   0.07571   0.00000  Uiso   1.00
C490   C     0.80376   0.37730   0.01869   0.00000  Uiso   1.00
H491   H     0.79976   0.41150   0.01006   0.00000  Uiso   1.00
H492   H     0.83467   0.36732   0.00402   0.00000  Uiso   1.00
C493   C     0.76725   0.35065   0.33204   0.00000  Uiso   1.00
H494   H     0.77393   0.31612   0.00349   0.00000  Uiso   1.00
H495   H     0.76461   0.35724   0.29617   0.00000  Uiso   1.00
H496   H     0.73613   0.35879   0.01396   0.00000  Uiso   1.00
O497   O     0.04580   0.70419   0.20487   0.00000  Uiso   1.00
O498   O     0.45419   0.79581   0.12846   0.00000  Uiso   1.00
O499   O     0.45419   0.79581   0.20487   0.00000  Uiso   1.00
O500   O     0.04580   0.70419   0.12846   0.00000  Uiso   1.00
O501   O     0.45419   0.70419   0.12846   0.00000  Uiso   1.00
O502   O     0.04580   0.79581   0.20487   0.00000  Uiso   1.00
O503   O     0.04580   0.79581   0.12846   0.00000  Uiso   1.00
O504   O     0.45419   0.70419   0.20487   0.00000  Uiso   1.00
O505   O     0.29580   0.95419   0.20487   0.00000  Uiso   1.00
O506   O     0.20419   0.54581   0.12846   0.00000  Uiso   1.00
O507   O     0.20419   0.54581   0.20487   0.00000  Uiso   1.00
O508   O     0.29580   0.95419   0.12846   0.00000  Uiso   1.00
O509   O     0.20419   0.95419   0.12846   0.00000  Uiso   1.00
O510   O     0.29580   0.54581   0.20487   0.00000  Uiso   1.00
O511   O     0.29580   0.54581   0.12846   0.00000  Uiso   1.00
O512   O     0.20419   0.95419   0.20487   0.00000  Uiso   1.00
C513   C     0.05985   0.68986   0.16677   0.00000  Uiso   1.00
C514   C     0.43852   0.80846   0.16640   0.00000  Uiso   1.00
C515   C     0.44032   0.68999   0.16635   0.00000  Uiso   1.00
C516   C     0.06205   0.80810   0.16676   0.00000  Uiso   1.00
C517   C     0.30984   0.93985   0.16676   0.00000  Uiso   1.00
C518   C     0.18854   0.55848   0.16640   0.00000  Uiso   1.00
C519   C     0.19028   0.94003   0.16635   0.00000  Uiso   1.00
C520   C     0.31207   0.55808   0.16675   0.00000  Uiso   1.00
N521   N     0.00000   0.75000   0.28573   0.00000  Uiso   1.00
N522   N    -0.00000   0.75000   0.04760   0.00000  Uiso   1.00
N523   N     0.25000   0.50000   0.28573   0.00000  Uiso   1.00
N524   N     0.25000   0.50000   0.04760   0.00000  Uiso   1.00
Zn525  Zn   -0.00000   0.75000   0.21771   0.00000  Uiso   1.00
Zn526  Zn    0.00000   0.75000   0.11563   0.00000  Uiso   1.00
Zn527  Zn    0.25000   0.50000   0.21771   0.00000  Uiso   1.00
Zn528  Zn    0.25000   0.50000   0.11563   0.00000  Uiso   1.00
C529   C     0.00974   0.78615   0.02380   0.00000  Uiso   1.00
C530   C     0.48842   0.71433   0.30953   0.00000  Uiso   1.00
C531   C     0.48696   0.71481   0.02371   0.00000  Uiso   1.00
C532   C     0.00667   0.78683   0.30970   0.00000  Uiso   1.00
C533   C     0.25973   0.53616   0.02380   0.00000  Uiso   1.00
C534   C     0.23839   0.96434   0.30953   0.00000  Uiso   1.00
C535   C     0.23694   0.96482   0.02371   0.00000  Uiso   1.00
C536   C     0.25667   0.53683   0.30970   0.00000  Uiso   1.00
C537   C     0.38411   0.64668   0.12764   0.00000  Uiso   1.00
C538   C     0.12727   0.84427   0.20284   0.00000  Uiso   1.00
C539   C     0.10869   0.85995   0.12617   0.00000  Uiso   1.00
C540   C     0.41150   0.62330   0.19923   0.00000  Uiso   1.00
C541   C     0.10914   0.63932   0.20681   0.00000  Uiso   1.00
C542   C     0.38559   0.85525   0.12538   0.00000  Uiso   1.00
C543   C     0.38418   0.85232   0.20666   0.00000  Uiso   1.00
C544   C     0.10303   0.63576   0.12615   0.00000  Uiso   1.00
C545   C     0.13391   0.89688   0.12773   0.00000  Uiso   1.00
C546   C     0.37733   0.59421   0.20283   0.00000  Uiso   1.00
C547   C     0.35888   0.60976   0.12610   0.00000  Uiso   1.00
C548   C     0.16142   0.87337   0.19924   0.00000  Uiso   1.00
C549   C     0.35913   0.88930   0.20679   0.00000  Uiso   1.00
C550   C     0.13571   0.60536   0.12540   0.00000  Uiso   1.00
C551   C     0.13422   0.60236   0.20668   0.00000  Uiso   1.00
C552   C     0.35290   0.88566   0.12614   0.00000  Uiso   1.00
C553   C     0.09921   0.83794   0.16592   0.00000  Uiso   1.00
C554   C     0.41031   0.65407   0.16516   0.00000  Uiso   1.00
C555   C     0.40204   0.83845   0.16593   0.00000  Uiso   1.00
C556   C     0.09129   0.65487   0.16664   0.00000  Uiso   1.00
C557   C     0.34930   0.58785   0.16590   0.00000  Uiso   1.00
C558   C     0.16021   0.90418   0.16520   0.00000  Uiso   1.00
C559   C     0.15210   0.58851   0.16595   0.00000  Uiso   1.00
C560   C     0.34124   0.90482   0.16662   0.00000  Uiso   1.00
F561   F     0.01995   0.82266   0.04579   0.00000  Uiso   1.00
F562   F     0.47629   0.67841   0.28766   0.00000  Uiso   1.00
F563   F     0.47205   0.67989   0.04550   0.00000  Uiso   1.00
F564   F     0.00661   0.82499   0.28833   0.00000  Uiso   1.00
F565   F     0.26994   0.57266   0.04579   0.00000  Uiso   1.00
F566   F     0.22622   0.92843   0.28766   0.00000  Uiso   1.00
F567   F     0.22200   0.92991   0.04550   0.00000  Uiso   1.00
F568   F     0.25663   0.57499   0.28834   0.00000  Uiso   1.00
O569   O     0.38732   0.67134   0.08952   0.00000  Uiso   1.00
C570   C     0.36469   0.71024   0.09497   0.00000  Uiso   1.00
H571   H     0.37104   0.73011   0.06494   0.00000  Uiso   1.00
H572   H     0.37673   0.72937   0.12384   0.00000  Uiso   1.00
C573   C     0.31607   0.70268   0.09961   0.00000  Uiso   1.00
H574   H     0.30597   0.67430   0.07985   0.00000  Uiso   1.00
H575   H     0.30856   0.69619   0.13513   0.00000  Uiso   1.00
C576   C     0.29112   0.74165   0.08393   0.00000  Uiso   1.00
H577   H     0.30737   0.77092   0.09631   0.00000  Uiso   1.00
H578   H     0.25781   0.74026   0.09695   0.00000  Uiso   1.00
H579   H     0.29011   0.74270   0.04706   0.00000  Uiso   1.00
O580   O     0.12448   0.81995   0.24104   0.00000  Uiso   1.00
C581   C     0.09657   0.84086   0.27073   0.00000  Uiso   1.00
H582   H     0.08652   0.81658   0.29555   0.00000  Uiso   1.00
H583   H     0.06730   0.85346   0.25349   0.00000  Uiso   1.00
C584   C     0.11783   0.87817   0.29575   0.00000  Uiso   1.00
H585   H     0.14618   0.86659   0.31487   0.00000  Uiso   1.00
H586   H     0.12862   0.90349   0.27238   0.00000  Uiso   1.00
C587   C     0.08509   0.89834   0.32654   0.00000  Uiso   1.00
H588   H     0.05803   0.91220   0.30693   0.00000  Uiso   1.00
H589   H     0.10096   0.92388   0.01294   0.00000  Uiso   1.00
H590   H     0.07124   0.87415   0.01560   0.00000  Uiso   1.00
O591   O     0.09469   0.84577   0.08500   0.00000  Uiso   1.00
C592   C     0.11826   0.80888   0.07231   0.00000  Uiso   1.00
H593   H     0.10486   0.79793   0.03977   0.00000  Uiso   1.00
H594   H     0.11396   0.78169   0.09586   0.00000  Uiso   1.00
C595   C     0.16663   0.81761   0.06733   0.00000  Uiso   1.00
H596   H     0.17182   0.84773   0.04860   0.00000  Uiso   1.00
H597   H     0.18211   0.82118   0.10074   0.00000  Uiso   1.00
C598   C     0.18755   0.78028   0.04360   0.00000  Uiso   1.00
H599   H     0.18057   0.75014   0.06185   0.00000  Uiso   1.00
H600   H     0.22275   0.78499   0.04331   0.00000  Uiso   1.00
H601   H     0.17532   0.77781   0.00876   0.00000  Uiso   1.00
O602   O     0.44531   0.62161   0.22972   0.00000  Uiso   1.00
C603   C     0.48369   0.60991   0.20754   0.00000  Uiso   1.00
H604   H     0.01164   0.62445   0.22529   0.00000  Uiso   1.00
H605   H     0.48600   0.62210   0.17276   0.00000  Uiso   1.00
C606   C     0.48839   0.56140   0.20725   0.00000  Uiso   1.00
H607   H     0.49475   0.54996   0.24168   0.00000  Uiso   1.00
H608   H     0.45798   0.54662   0.19457   0.00000  Uiso   1.00
C609   C     0.02484   0.54814   0.17692   0.00000  Uiso   1.00
H610   H     0.01771   0.55972   0.14272   0.00000  Uiso   1.00
H611   H     0.02770   0.51271   0.17664   0.00000  Uiso   1.00
H612   H     0.05583   0.56223   0.18838   0.00000  Uiso   1.00
O613   O     0.10567   0.66173   0.24640   0.00000  Uiso   1.00
C614   C     0.13687   0.69534   0.24699   0.00000  Uiso   1.00
H615   H     0.13112   0.71504   0.27717   0.00000  Uiso   1.00
H616   H     0.13297   0.71720   0.21785   0.00000  Uiso   1.00
C617   C     0.18328   0.67808   0.24928   0.00000  Uiso   1.00
H618   H     0.18633   0.65599   0.27793   0.00000  Uiso   1.00
H619   H     0.19122   0.65993   0.21874   0.00000  Uiso   1.00
C620   C     0.21658   0.71361   0.25258   0.00000  Uiso   1.00
H621   H     0.22092   0.72758   0.21907   0.00000  Uiso   1.00
H622   H     0.24758   0.69939   0.26349   0.00000  Uiso   1.00
H623   H     0.20691   0.73892   0.27638   0.00000  Uiso   1.00
O624   O     0.39658   0.83870   0.08431   0.00000  Uiso   1.00
C625   C     0.43359   0.85968   0.06778   0.00000  Uiso   1.00
H626   H     0.44617   0.83822   0.04185   0.00000  Uiso   1.00
H627   H     0.45913   0.86458   0.09375   0.00000  Uiso   1.00
C628   C     0.42431   0.90244   0.04495   0.00000  Uiso   1.00
H629   H     0.40121   0.89785   0.01691   0.00000  Uiso   1.00
H630   H     0.41097   0.92558   0.06912   0.00000  Uiso   1.00
C631   C     0.46629   0.92101   0.02747   0.00000  Uiso   1.00
H632   H     0.48796   0.92770   0.05589   0.00000  Uiso   1.00
H633   H     0.46010   0.95130   0.00959   0.00000  Uiso   1.00
H634   H     0.48239   0.89814   0.00480   0.00000  Uiso   1.00
O635   O     0.39711   0.83574   0.24757   0.00000  Uiso   1.00
C636   C     0.38162   0.79317   0.25251   0.00000  Uiso   1.00
H637   H     0.40698   0.77416   0.26986   0.00000  Uiso   1.00
H638   H     0.37452   0.77640   0.22032   0.00000  Uiso   1.00
C639   C     0.34190   0.79263   0.28121   0.00000  Uiso   1.00
H640   H     0.35131   0.80091   0.31594   0.00000  Uiso   1.00
H641   H     0.31855   0.81617   0.26788   0.00000  Uiso   1.00
C642   C     0.32168   0.74833   0.28091   0.00000  Uiso   1.00
H643   H     0.31089   0.73950   0.24677   0.00000  Uiso   1.00
H644   H     0.29372   0.74742   0.30351   0.00000  Uiso   1.00
H645   H     0.34630   0.72521   0.29217   0.00000  Uiso   1.00
O646   O     0.08710   0.65086   0.08602   0.00000  Uiso   1.00
C647   C     0.05605   0.62189   0.06903   0.00000  Uiso   1.00
H648   H     0.02427   0.62890   0.08408   0.00000  Uiso   1.00
H649   H     0.06407   0.58786   0.07578   0.00000  Uiso   1.00
C650   C     0.05385   0.62732   0.01874   0.00000  Uiso   1.00
H651   H     0.04978   0.66151   0.01007   0.00000  Uiso   1.00
H652   H     0.08476   0.61737   0.00406   0.00000  Uiso   1.00
C653   C     0.01735   0.60059   0.33220   0.00000  Uiso   1.00
H654   H     0.02412   0.56608   0.00369   0.00000  Uiso   1.00
H655   H     0.01461   0.60713   0.29632   0.00000  Uiso   1.00
H656   H     0.48625   0.60867   0.01418   0.00000  Uiso   1.00
O657   O     0.13711   0.92158   0.08964   0.00000  Uiso   1.00
C658   C     0.11442   0.96044   0.09512   0.00000  Uiso   1.00
H659   H     0.12081   0.98036   0.06514   0.00000  Uiso   1.00
H660   H     0.12641   0.97951   0.12406   0.00000  Uiso   1.00
C661   C     0.06579   0.95280   0.09963   0.00000  Uiso   1.00
H662   H     0.05582   0.92431   0.07997   0.00000  Uiso   1.00
H663   H     0.05819   0.94644   0.13515   0.00000  Uiso   1.00
C664   C     0.04077   0.99162   0.08366   0.00000  Uiso   1.00
H665   H     0.05692   0.52100   0.09588   0.00000  Uiso   1.00
H666   H     0.00743   0.99025   0.09662   0.00000  Uiso   1.00
H667   H     0.03982   0.99245   0.04679   0.00000  Uiso   1.00
O668   O     0.37450   0.56993   0.24105   0.00000  Uiso   1.00
C669   C     0.34658   0.59089   0.27070   0.00000  Uiso   1.00
H670   H     0.33659   0.56667   0.29561   0.00000  Uiso   1.00
H671   H     0.31729   0.60341   0.25344   0.00000  Uiso   1.00
C672   C     0.36779   0.62832   0.29555   0.00000  Uiso   1.00
H673   H     0.39631   0.61693   0.31450   0.00000  Uiso   1.00
H674   H     0.37832   0.65367   0.27208   0.00000  Uiso   1.00
C675   C     0.33512   0.64836   0.32650   0.00000  Uiso   1.00
H676   H     0.30794   0.66217   0.30702   0.00000  Uiso   1.00
H677   H     0.35100   0.67393   0.01285   0.00000  Uiso   1.00
H678   H     0.32144   0.62411   0.01561   0.00000  Uiso   1.00
O679   O     0.34478   0.59560   0.08496   0.00000  Uiso   1.00
C680   C     0.36816   0.55858   0.07230   0.00000  Uiso   1.00
H681   H     0.35444   0.54745   0.03997   0.00000  Uiso   1.00
H682   H     0.36405   0.53154   0.09609   0.00000  Uiso   1.00
C683   C     0.41648   0.56721   0.06680   0.00000  Uiso   1.00
H684   H     0.42153   0.59728   0.04794   0.00000  Uiso   1.00
H685   H     0.43229   0.57084   0.10004   0.00000  Uiso   1.00
C686   C     0.43706   0.52977   0.04291   0.00000  Uiso   1.00
H687   H     0.43030   0.99971   0.06141   0.00000  Uiso   1.00
H688   H     0.47226   0.53442   0.04206   0.00000  Uiso   1.00
H689   H     0.42434   0.52715   0.00825   0.00000  Uiso   1.00
O690   O     0.19526   0.87165   0.22968   0.00000  Uiso   1.00
C691   C     0.23360   0.85990   0.20746   0.00000  Uiso   1.00
H692   H     0.26157   0.87449   0.22513   0.00000  Uiso   1.00
H693   H     0.23585   0.87201   0.17264   0.00000  Uiso   1.00
C694   C     0.23830   0.81140   0.20729   0.00000  Uiso   1.00
H695   H     0.24466   0.80003   0.24175   0.00000  Uiso   1.00
H696   H     0.20788   0.79659   0.19465   0.00000  Uiso   1.00
C697   C     0.27474   0.79807   0.17700   0.00000  Uiso   1.00
H698   H     0.26761   0.80958   0.14277   0.00000  Uiso   1.00
H699   H     0.27761   0.76264   0.17679   0.00000  Uiso   1.00
H700   H     0.30573   0.81218   0.18842   0.00000  Uiso   1.00
O701   O     0.35576   0.91177   0.24635   0.00000  Uiso   1.00
C702   C     0.38701   0.94533   0.24684   0.00000  Uiso   1.00
H703   H     0.38140   0.96503   0.27705   0.00000  Uiso   1.00
H704   H     0.38305   0.96720   0.21772   0.00000  Uiso   1.00
C705   C     0.43341   0.92801   0.24897   0.00000  Uiso   1.00
H706   H     0.43652   0.90586   0.27755   0.00000  Uiso   1.00
H707   H     0.44125   0.90992   0.21835   0.00000  Uiso   1.00
C708   C     0.46677   0.96348   0.25225   0.00000  Uiso   1.00
H709   H     0.47104   0.97754   0.21878   0.00000  Uiso   1.00
H710   H     0.49778   0.94919   0.26303   0.00000  Uiso   1.00
H711   H     0.45721   0.98875   0.27616   0.00000  Uiso   1.00
O712   O     0.14673   0.58884   0.08433   0.00000  Uiso   1.00
C713   C     0.18372   0.60988   0.06782   0.00000  Uiso   1.00
H714   H     0.19624   0.58853   0.04174   0.00000  Uiso   1.00
H715   H     0.20932   0.61462   0.09376   0.00000  Uiso   1.00
C716   C     0.17442   0.65276   0.04524   0.00000  Uiso   1.00
H717   H     0.15122   0.64833   0.01725   0.00000  Uiso   1.00
H718   H     0.16119   0.67581   0.06957   0.00000  Uiso   1.00
C719   C     0.21636   0.67137   0.02772   0.00000  Uiso   1.00
H720   H     0.23808   0.67798   0.05613   0.00000  Uiso   1.00
H721   H     0.21014   0.70172   0.00995   0.00000  Uiso   1.00
H722   H     0.23243   0.64857   0.00497   0.00000  Uiso   1.00
O723   O     0.14713   0.58576   0.24758   0.00000  Uiso   1.00
C724   C     0.13164   0.54319   0.25250   0.00000  Uiso   1.00
H725   H     0.15698   0.52418   0.26987   0.00000  Uiso   1.00
H726   H     0.12456   0.52643   0.22030   0.00000  Uiso   1.00
C727   C     0.09189   0.54264   0.28117   0.00000  Uiso   1.00
H728   H     0.10128   0.55092   0.31591   0.00000  Uiso   1.00
H729   H     0.06856   0.56619   0.26784   0.00000  Uiso   1.00
C730   C     0.07168   0.99834   0.28084   0.00000  Uiso   1.00
H731   H     0.06101   0.98948   0.24666   0.00000  Uiso   1.00
H732   H     0.04364   0.99745   0.30333   0.00000  Uiso   1.00
H733   H     0.09626   0.97523   0.29222   0.00000  Uiso   1.00
O734   O     0.33697   0.90076   0.08601   0.00000  Uiso   1.00
C735   C     0.30593   0.87180   0.06898   0.00000  Uiso   1.00
H736   H     0.27414   0.87881   0.08402   0.00000  Uiso   1.00
H737   H     0.31393   0.83776   0.07571   0.00000  Uiso   1.00
C738   C     0.30376   0.87730   0.01869   0.00000  Uiso   1.00
H739   H     0.29976   0.91150   0.01006   0.00000  Uiso   1.00
H740   H     0.33467   0.86732   0.00402   0.00000  Uiso   1.00
C741   C     0.26725   0.85065   0.33204   0.00000  Uiso   1.00
H742   H     0.27393   0.81612   0.00349   0.00000  Uiso   1.00
H743   H     0.26461   0.85724   0.29617   0.00000  Uiso   1.00
H744   H     0.23613   0.85879   0.01396   0.00000  Uiso   1.00
O745   O     0.54580   0.70419   0.20487   0.00000  Uiso   1.00
O746   O     0.95419   0.79581   0.12846   0.00000  Uiso   1.00
O747   O     0.95419   0.79581   0.20487   0.00000  Uiso   1.00
O748   O     0.54580   0.70419   0.12846   0.00000  Uiso   1.00
O749   O     0.95419   0.70419   0.12846   0.00000  Uiso   1.00
O750   O     0.54580   0.79581   0.20487   0.00000  Uiso   1.00
O751   O     0.54580   0.79581   0.12846   0.00000  Uiso   1.00
O752   O     0.95419   0.70419   0.20487   0.00000  Uiso   1.00
O753   O     0.79580   0.95419   0.20487   0.00000  Uiso   1.00
O754   O     0.70419   0.54581   0.12846   0.00000  Uiso   1.00
O755   O     0.70419   0.54581   0.20487   0.00000  Uiso   1.00
O756   O     0.79580   0.95419   0.12846   0.00000  Uiso   1.00
O757   O     0.70419   0.95419   0.12846   0.00000  Uiso   1.00
O758   O     0.79580   0.54581   0.20487   0.00000  Uiso   1.00
O759   O     0.79580   0.54581   0.12846   0.00000  Uiso   1.00
O760   O     0.70419   0.95419   0.20487   0.00000  Uiso   1.00
C761   C     0.55985   0.68986   0.16677   0.00000  Uiso   1.00
C762   C     0.93852   0.80846   0.16640   0.00000  Uiso   1.00
C763   C     0.94032   0.68999   0.16635   0.00000  Uiso   1.00
C764   C     0.56205   0.80810   0.16676   0.00000  Uiso   1.00
C765   C     0.80984   0.93985   0.16676   0.00000  Uiso   1.00
C766   C     0.68854   0.55848   0.16640   0.00000  Uiso   1.00
C767   C     0.69028   0.94003   0.16635   0.00000  Uiso   1.00
C768   C     0.81207   0.55808   0.16675   0.00000  Uiso   1.00
N769   N     0.50000   0.75000   0.28573   0.00000  Uiso   1.00
N770   N     0.50000   0.75000   0.04760   0.00000  Uiso   1.00
N771   N     0.75000   0.50000   0.28573   0.00000  Uiso   1.00
N772   N     0.75000   0.50000   0.04760   0.00000  Uiso   1.00
Zn773  Zn    0.50000   0.75000   0.21771   0.00000  Uiso   1.00
Zn774  Zn    0.50000   0.75000   0.11563   0.00000  Uiso   1.00
Zn775  Zn    0.75000   0.50000   0.21771   0.00000  Uiso   1.00
Zn776  Zn    0.75000   0.50000   0.11563   0.00000  Uiso   1.00
C777   C     0.50974   0.78615   0.02380   0.00000  Uiso   1.00
C778   C     0.98842   0.71433   0.30953   0.00000  Uiso   1.00
C779   C     0.98696   0.71481   0.02371   0.00000  Uiso   1.00
C780   C     0.50667   0.78683   0.30970   0.00000  Uiso   1.00
C781   C     0.75973   0.53616   0.02380   0.00000  Uiso   1.00
C782   C     0.73839   0.96434   0.30953   0.00000  Uiso   1.00
C783   C     0.73694   0.96482   0.02371   0.00000  Uiso   1.00
C784   C     0.75667   0.53683   0.30970   0.00000  Uiso   1.00
C785   C     0.88411   0.64668   0.12764   0.00000  Uiso   1.00
C786   C     0.62727   0.84427   0.20284   0.00000  Uiso   1.00
C787   C     0.60869   0.85995   0.12617   0.00000  Uiso   1.00
C788   C     0.91150   0.62330   0.19923   0.00000  Uiso   1.00
C789   C     0.60914   0.63932   0.20681   0.00000  Uiso   1.00
C790   C     0.88559   0.85525   0.12538   0.00000  Uiso   1.00
C791   C     0.88418   0.85232   0.20666   0.00000  Uiso   1.00
C792   C     0.60303   0.63576   0.12615   0.00000  Uiso   1.00
C793   C     0.63391   0.89688   0.12773   0.00000  Uiso   1.00
C794   C     0.87733   0.59421   0.20283   0.00000  Uiso   1.00
C795   C     0.85888   0.60976   0.12610   0.00000  Uiso   1.00
C796   C     0.66142   0.87337   0.19924   0.00000  Uiso   1.00
C797   C     0.85913   0.88930   0.20679   0.00000  Uiso   1.00
C798   C     0.63571   0.60536   0.12540   0.00000  Uiso   1.00
C799   C     0.63422   0.60236   0.20668   0.00000  Uiso   1.00
C800   C     0.85290   0.88566   0.12614   0.00000  Uiso   1.00
C801   C     0.59921   0.83794   0.16592   0.00000  Uiso   1.00
C802   C     0.91031   0.65407   0.16516   0.00000  Uiso   1.00
C803   C     0.90204   0.83845   0.16593   0.00000  Uiso   1.00
C804   C     0.59129   0.65487   0.16664   0.00000  Uiso   1.00
C805   C     0.84930   0.58785   0.16590   0.00000  Uiso   1.00
C806   C     0.66021   0.90418   0.16520   0.00000  Uiso   1.00
C807   C     0.65210   0.58851   0.16595   0.00000  Uiso   1.00
C808   C     0.84124   0.90482   0.16662   0.00000  Uiso   1.00
F809   F     0.51995   0.82266   0.04579   0.00000  Uiso   1.00
F810   F     0.97629   0.67841   0.28766   0.00000  Uiso   1.00
F811   F     0.97205   0.67989   0.04550   0.00000  Uiso   1.00
F812   F     0.50661   0.82499   0.28833   0.00000  Uiso   1.00
F813   F     0.76994   0.57266   0.04579   0.00000  Uiso   1.00
F814   F     0.72622   0.92843   0.28766   0.00000  Uiso   1.00
F815   F     0.72200   0.92991   0.04550   0.00000  Uiso   1.00
F816   F     0.75663   0.57499   0.28834   0.00000  Uiso   1.00
O817   O     0.88732   0.67134   0.08952   0.00000  Uiso   1.00
C818   C     0.86469   0.71024   0.09497   0.00000  Uiso   1.00
H819   H     0.87104   0.73011   0.06494   0.00000  Uiso   1.00
H820   H     0.87673   0.72937   0.12384   0.00000  Uiso   1.00
C821   C     0.81607   0.70268   0.09961   0.00000  Uiso   1.00
H822   H     0.80597   0.67430   0.07985   0.00000  Uiso   1.00
H823   H     0.80856   0.69619   0.13513   0.00000  Uiso   1.00
C824   C     0.79112   0.74165   0.08393   0.00000  Uiso   1.00
H825   H     0.80737   0.77092   0.09631   0.00000  Uiso   1.00
H826   H     0.75781   0.74026   0.09695   0.00000  Uiso   1.00
H827   H     0.79011   0.74270   0.04706   0.00000  Uiso   1.00
O828   O     0.62448   0.81995   0.24104   0.00000  Uiso   1.00
C829   C     0.59657   0.84086   0.27073   0.00000  Uiso   1.00
H830   H     0.58652   0.81658   0.29555   0.00000  Uiso   1.00
H831   H     0.56730   0.85346   0.25349   0.00000  Uiso   1.00
C832   C     0.61783   0.87817   0.29575   0.00000  Uiso   1.00
H833   H     0.64618   0.86659   0.31487   0.00000  Uiso   1.00
H834   H     0.62862   0.90349   0.27238   0.00000  Uiso   1.00
C835   C     0.58509   0.89834   0.32654   0.00000  Uiso   1.00
H836   H     0.55803   0.91220   0.30693   0.00000  Uiso   1.00
H837   H     0.60096   0.92388   0.01294   0.00000  Uiso   1.00
H838   H     0.57124   0.87415   0.01560   0.00000  Uiso   1.00
O839   O     0.59469   0.84577   0.08500   0.00000  Uiso   1.00
C840   C     0.61826   0.80888   0.07231   0.00000  Uiso   1.00
H841   H     0.60486   0.79793   0.03977   0.00000  Uiso   1.00
H842   H     0.61396   0.78169   0.09586   0.00000  Uiso   1.00
C843   C     0.66663   0.81761   0.06733   0.00000  Uiso   1.00
H844   H     0.67182   0.84773   0.04860   0.00000  Uiso   1.00
H845   H     0.68211   0.82118   0.10074   0.00000  Uiso   1.00
C846   C     0.68755   0.78028   0.04360   0.00000  Uiso   1.00
H847   H     0.68057   0.75014   0.06185   0.00000  Uiso   1.00
H848   H     0.72275   0.78499   0.04331   0.00000  Uiso   1.00
H849   H     0.67532   0.77781   0.00876   0.00000  Uiso   1.00
O850   O     0.94531   0.62161   0.22972   0.00000  Uiso   1.00
C851   C     0.98369   0.60991   0.20754   0.00000  Uiso   1.00
H852   H     0.51164   0.62445   0.22529   0.00000  Uiso   1.00
H853   H     0.98600   0.62210   0.17276   0.00000  Uiso   1.00
C854   C     0.98839   0.56140   0.20725   0.00000  Uiso   1.00
H855   H     0.99475   0.54996   0.24168   0.00000  Uiso   1.00
H856   H     0.95798   0.54662   0.19457   0.00000  Uiso   1.00
C857   C     0.52484   0.54814   0.17692   0.00000  Uiso   1.00
H858   H     0.51771   0.55972   0.14272   0.00000  Uiso   1.00
H859   H     0.52770   0.51271   0.17664   0.00000  Uiso   1.00
H860   H     0.55583   0.56223   0.18838   0.00000  Uiso   1.00
O861   O     0.60567   0.66173   0.24640   0.00000  Uiso   1.00
C862   C     0.63687   0.69534   0.24699   0.00000  Uiso   1.00
H863   H     0.63112   0.71504   0.27717   0.00000  Uiso   1.00
H864   H     0.63297   0.71720   0.21785   0.00000  Uiso   1.00
C865   C     0.68328   0.67808   0.24928   0.00000  Uiso   1.00
H866   H     0.68633   0.65599   0.27793   0.00000  Uiso   1.00
H867   H     0.69122   0.65993   0.21874   0.00000  Uiso   1.00
C868   C     0.71658   0.71361   0.25258   0.00000  Uiso   1.00
H869   H     0.72092   0.72758   0.21907   0.00000  Uiso   1.00
H870   H     0.74758   0.69939   0.26349   0.00000  Uiso   1.00
H871   H     0.70691   0.73892   0.27638   0.00000  Uiso   1.00
O872   O     0.89658   0.83870   0.08431   0.00000  Uiso   1.00
C873   C     0.93359   0.85968   0.06778   0.00000  Uiso   1.00
H874   H     0.94617   0.83822   0.04185   0.00000  Uiso   1.00
H875   H     0.95913   0.86458   0.09375   0.00000  Uiso   1.00
C876   C     0.92431   0.90244   0.04495   0.00000  Uiso   1.00
H877   H     0.90121   0.89785   0.01691   0.00000  Uiso   1.00
H878   H     0.91097   0.92558   0.06912   0.00000  Uiso   1.00
C879   C     0.96629   0.92101   0.02747   0.00000  Uiso   1.00
H880   H     0.98796   0.92770   0.05589   0.00000  Uiso   1.00
H881   H     0.96010   0.95130   0.00959   0.00000  Uiso   1.00
H882   H     0.98239   0.89814   0.00480   0.00000  Uiso   1.00
O883   O     0.89711   0.83574   0.24757   0.00000  Uiso   1.00
C884   C     0.88162   0.79317   0.25251   0.00000  Uiso   1.00
H885   H     0.90698   0.77416   0.26986   0.00000  Uiso   1.00
H886   H     0.87452   0.77640   0.22032   0.00000  Uiso   1.00
C887   C     0.84190   0.79263   0.28121   0.00000  Uiso   1.00
H888   H     0.85131   0.80091   0.31594   0.00000  Uiso   1.00
H889   H     0.81855   0.81617   0.26788   0.00000  Uiso   1.00
C890   C     0.82168   0.74833   0.28091   0.00000  Uiso   1.00
H891   H     0.81089   0.73950   0.24677   0.00000  Uiso   1.00
H892   H     0.79372   0.74742   0.30351   0.00000  Uiso   1.00
H893   H     0.84630   0.72521   0.29217   0.00000  Uiso   1.00
O894   O     0.58710   0.65086   0.08602   0.00000  Uiso   1.00
C895   C     0.55605   0.62189   0.06903   0.00000  Uiso   1.00
H896   H     0.52427   0.62890   0.08408   0.00000  Uiso   1.00
H897   H     0.56407   0.58786   0.07578   0.00000  Uiso   1.00
C898   C     0.55385   0.62732   0.01874   0.00000  Uiso   1.00
H899   H     0.54978   0.66151   0.01007   0.00000  Uiso   1.00
H900   H     0.58476   0.61737   0.00406   0.00000  Uiso   1.00
C901   C     0.51735   0.60059   0.33220   0.00000  Uiso   1.00
H902   H     0.52412   0.56608   0.00369   0.00000  Uiso   1.00
H903   H     0.51461   0.60713   0.29632   0.00000  Uiso   1.00
H904   H     0.98625   0.60867   0.01418   0.00000  Uiso   1.00
O905   O     0.63711   0.92158   0.08964   0.00000  Uiso   1.00
C906   C     0.61442   0.96044   0.09512   0.00000  Uiso   1.00
H907   H     0.62081   0.98036   0.06514   0.00000  Uiso   1.00
H908   H     0.62641   0.97951   0.12406   0.00000  Uiso   1.00
C909   C     0.56579   0.95280   0.09963   0.00000  Uiso   1.00
H910   H     0.55582   0.92431   0.07997   0.00000  Uiso   1.00
H911   H     0.55819   0.94644   0.13515   0.00000  Uiso   1.00
C912   C     0.54077   0.99162   0.08366   0.00000  Uiso   1.00
H913   H     0.55692   0.52100   0.09588   0.00000  Uiso   1.00
H914   H     0.50743   0.99025   0.09662   0.00000  Uiso   1.00
H915   H     0.53982   0.99245   0.04679   0.00000  Uiso   1.00
O916   O     0.87450   0.56993   0.24105   0.00000  Uiso   1.00
C917   C     0.84658   0.59089   0.27070   0.00000  Uiso   1.00
H918   H     0.83659   0.56667   0.29561   0.00000  Uiso   1.00
H919   H     0.81729   0.60341   0.25344   0.00000  Uiso   1.00
C920   C     0.86779   0.62832   0.29555   0.00000  Uiso   1.00
H921   H     0.89631   0.61693   0.31450   0.00000  Uiso   1.00
H922   H     0.87832   0.65367   0.27208   0.00000  Uiso   1.00
C923   C     0.83512   0.64836   0.32650   0.00000  Uiso   1.00
H924   H     0.80794   0.66217   0.30702   0.00000  Uiso   1.00
H925   H     0.85100   0.67393   0.01285   0.00000  Uiso   1.00
H926   H     0.82144   0.62411   0.01561   0.00000  Uiso   1.00
O927   O     0.84478   0.59560   0.08496   0.00000  Uiso   1.00
C928   C     0.86816   0.55858   0.07230   0.00000  Uiso   1.00
H929   H     0.85444   0.54745   0.03997   0.00000  Uiso   1.00
H930   H     0.86405   0.53154   0.09609   0.00000  Uiso   1.00
C931   C     0.91648   0.56721   0.06680   0.00000  Uiso   1.00
H932   H     0.92153   0.59728   0.04794   0.00000  Uiso   1.00
H933   H     0.93229   0.57084   0.10004   0.00000  Uiso   1.00
C934   C     0.93706   0.52977   0.04291   0.00000  Uiso   1.00
H935   H     0.93030   0.99971   0.06141   0.00000  Uiso   1.00
H936   H     0.97226   0.53442   0.04206   0.00000  Uiso   1.00
H937   H     0.92434   0.52715   0.00825   0.00000  Uiso   1.00
O938   O     0.69526   0.87165   0.22968   0.00000  Uiso   1.00
C939   C     0.73360   0.85990   0.20746   0.00000  Uiso   1.00
H940   H     0.76157   0.87449   0.22513   0.00000  Uiso   1.00
H941   H     0.73585   0.87201   0.17264   0.00000  Uiso   1.00
C942   C     0.73830   0.81140   0.20729   0.00000  Uiso   1.00
H943   H     0.74466   0.80003   0.24175   0.00000  Uiso   1.00
H944   H     0.70788   0.79659   0.19465   0.00000  Uiso   1.00
C945   C     0.77474   0.79807   0.17700   0.00000  Uiso   1.00
H946   H     0.76761   0.80958   0.14277   0.00000  Uiso   1.00
H947   H     0.77761   0.76264   0.17679   0.00000  Uiso   1.00
H948   H     0.80573   0.81218   0.18842   0.00000  Uiso   1.00
O949   O     0.85576   0.91177   0.24635   0.00000  Uiso   1.00
C950   C     0.88701   0.94533   0.24684   0.00000  Uiso   1.00
H951   H     0.88140   0.96503   0.27705   0.00000  Uiso   1.00
H952   H     0.88305   0.96720   0.21772   0.00000  Uiso   1.00
C953   C     0.93341   0.92801   0.24897   0.00000  Uiso   1.00
H954   H     0.93652   0.90586   0.27755   0.00000  Uiso   1.00
H955   H     0.94125   0.90992   0.21835   0.00000  Uiso   1.00
C956   C     0.96677   0.96348   0.25225   0.00000  Uiso   1.00
H957   H     0.97104   0.97754   0.21878   0.00000  Uiso   1.00
H958   H     0.99778   0.94919   0.26303   0.00000  Uiso   1.00
H959   H     0.95721   0.98875   0.27616   0.00000  Uiso   1.00
O960   O     0.64673   0.58884   0.08433   0.00000  Uiso   1.00
C961   C     0.68372   0.60988   0.06782   0.00000  Uiso   1.00
H962   H     0.69624   0.58853   0.04174   0.00000  Uiso   1.00
H963   H     0.70932   0.61462   0.09376   0.00000  Uiso   1.00
C964   C     0.67442   0.65276   0.04524   0.00000  Uiso   1.00
H965   H     0.65122   0.64833   0.01725   0.00000  Uiso   1.00
H966   H     0.66119   0.67581   0.06957   0.00000  Uiso   1.00
C967   C     0.71636   0.67137   0.02772   0.00000  Uiso   1.00
H968   H     0.73808   0.67798   0.05613   0.00000  Uiso   1.00
H969   H     0.71014   0.70172   0.00995   0.00000  Uiso   1.00
H970   H     0.73243   0.64857   0.00497   0.00000  Uiso   1.00
O971   O     0.64713   0.58576   0.24758   0.00000  Uiso   1.00
C972   C     0.63164   0.54319   0.25250   0.00000  Uiso   1.00
H973   H     0.65698   0.52418   0.26987   0.00000  Uiso   1.00
H974   H     0.62456   0.52643   0.22030   0.00000  Uiso   1.00
C975   C     0.59189   0.54264   0.28117   0.00000  Uiso   1.00
H976   H     0.60128   0.55092   0.31591   0.00000  Uiso   1.00
H977   H     0.56856   0.56619   0.26784   0.00000  Uiso   1.00
C978   C     0.57168   0.99834   0.28084   0.00000  Uiso   1.00
H979   H     0.56101   0.98948   0.24666   0.00000  Uiso   1.00
H980   H     0.54364   0.99745   0.30333   0.00000  Uiso   1.00
H981   H     0.59626   0.97523   0.29222   0.00000  Uiso   1.00
O982   O     0.83697   0.90076   0.08601   0.00000  Uiso   1.00
C983   C     0.80593   0.87180   0.06898   0.00000  Uiso   1.00
H984   H     0.77414   0.87881   0.08402   0.00000  Uiso   1.00
H985   H     0.81393   0.83776   0.07571   0.00000  Uiso   1.00
C986   C     0.80376   0.87730   0.01869   0.00000  Uiso   1.00
H987   H     0.79976   0.91150   0.01006   0.00000  Uiso   1.00
H988   H     0.83467   0.86732   0.00402   0.00000  Uiso   1.00
C989   C     0.76725   0.85065   0.33204   0.00000  Uiso   1.00
H990   H     0.77393   0.81612   0.00349   0.00000  Uiso   1.00
H991   H     0.76461   0.85724   0.29617   0.00000  Uiso   1.00
H992   H     0.73613   0.85879   0.01396   0.00000  Uiso   1.00
O993   O     0.04580   0.20419   0.53821   0.00000  Uiso   1.00
O994   O     0.45419   0.29581   0.46179   0.00000  Uiso   1.00
O995   O     0.45419   0.29581   0.53821   0.00000  Uiso   1.00
O996   O     0.04580   0.20419   0.46179   0.00000  Uiso   1.00
O997   O     0.45419   0.20419   0.46179   0.00000  Uiso   1.00
O998   O     0.04580   0.29581   0.53821   0.00000  Uiso   1.00
O999   O     0.04580   0.29581   0.46179   0.00000  Uiso   1.00
O1000  O     0.45419   0.20419   0.53821   0.00000  Uiso   1.00
O1001  O     0.29580   0.45419   0.53821   0.00000  Uiso   1.00
O1002  O     0.20419   0.04581   0.46179   0.00000  Uiso   1.00
O1003  O     0.20419   0.04581   0.53821   0.00000  Uiso   1.00
O1004  O     0.29580   0.45419   0.46179   0.00000  Uiso   1.00
O1005  O     0.20419   0.45419   0.46179   0.00000  Uiso   1.00
O1006  O     0.29580   0.04581   0.53821   0.00000  Uiso   1.00
O1007  O     0.29580   0.04581   0.46179   0.00000  Uiso   1.00
O1008  O     0.20419   0.45419   0.53821   0.00000  Uiso   1.00
C1009  C     0.05985   0.18986   0.50010   0.00000  Uiso   1.00
C1010  C     0.43852   0.30846   0.49973   0.00000  Uiso   1.00
C1011  C     0.44032   0.18999   0.49968   0.00000  Uiso   1.00
C1012  C     0.06205   0.30810   0.50009   0.00000  Uiso   1.00
C1013  C     0.30984   0.43985   0.50010   0.00000  Uiso   1.00
C1014  C     0.18854   0.05848   0.49973   0.00000  Uiso   1.00
C1015  C     0.19028   0.44003   0.49968   0.00000  Uiso   1.00
C1016  C     0.31207   0.05808   0.50009   0.00000  Uiso   1.00
N1017  N     0.00000   0.25000   0.61907   0.00000  Uiso   1.00
N1018  N    -0.00000   0.25000   0.38093   0.00000  Uiso   1.00
N1019  N     0.25000   0.00000   0.61907   0.00000  Uiso   1.00
N1020  N     0.25000   0.00000   0.38093   0.00000  Uiso   1.00
Zn1021 Zn   -0.00000   0.25000   0.55104   0.00000  Uiso   1.00
Zn1022 Zn    0.00000   0.25000   0.44896   0.00000  Uiso   1.00
Zn1023 Zn    0.25000   0.00000   0.55104   0.00000  Uiso   1.00
Zn1024 Zn    0.25000   0.00000   0.44896   0.00000  Uiso   1.00
C1025  C     0.00974   0.28615   0.35713   0.00000  Uiso   1.00
C1026  C     0.48842   0.21433   0.64287   0.00000  Uiso   1.00
C1027  C     0.48696   0.21481   0.35704   0.00000  Uiso   1.00
C1028  C     0.00667   0.28683   0.64303   0.00000  Uiso   1.00
C1029  C     0.25973   0.03616   0.35713   0.00000  Uiso   1.00
C1030  C     0.23839   0.46434   0.64287   0.00000  Uiso   1.00
C1031  C     0.23694   0.46482   0.35704   0.00000  Uiso   1.00
C1032  C     0.25667   0.03683   0.64303   0.00000  Uiso   1.00
C1033  C     0.38411   0.14668   0.46097   0.00000  Uiso   1.00
C1034  C     0.12727   0.34427   0.53618   0.00000  Uiso   1.00
C1035  C     0.10869   0.35995   0.45950   0.00000  Uiso   1.00
C1036  C     0.41150   0.12330   0.53256   0.00000  Uiso   1.00
C1037  C     0.10914   0.13932   0.54014   0.00000  Uiso   1.00
C1038  C     0.38559   0.35525   0.45871   0.00000  Uiso   1.00
C1039  C     0.38418   0.35232   0.54000   0.00000  Uiso   1.00
C1040  C     0.10303   0.13576   0.45949   0.00000  Uiso   1.00
C1041  C     0.13391   0.39688   0.46107   0.00000  Uiso   1.00
C1042  C     0.37733   0.09421   0.53617   0.00000  Uiso   1.00
C1043  C     0.35888   0.10976   0.45944   0.00000  Uiso   1.00
C1044  C     0.16142   0.37337   0.53257   0.00000  Uiso   1.00
C1045  C     0.35913   0.38930   0.54013   0.00000  Uiso   1.00
C1046  C     0.13571   0.10536   0.45873   0.00000  Uiso   1.00
C1047  C     0.13422   0.10236   0.54001   0.00000  Uiso   1.00
C1048  C     0.35290   0.38566   0.45947   0.00000  Uiso   1.00
C1049  C     0.09921   0.33794   0.49926   0.00000  Uiso   1.00
C1050  C     0.41031   0.15407   0.49849   0.00000  Uiso   1.00
C1051  C     0.40204   0.33845   0.49927   0.00000  Uiso   1.00
C1052  C     0.09129   0.15487   0.49997   0.00000  Uiso   1.00
C1053  C     0.34930   0.08785   0.49923   0.00000  Uiso   1.00
C1054  C     0.16021   0.40418   0.49853   0.00000  Uiso   1.00
C1055  C     0.15210   0.08851   0.49928   0.00000  Uiso   1.00
C1056  C     0.34124   0.40482   0.49996   0.00000  Uiso   1.00
F1057  F     0.01995   0.32266   0.37913   0.00000  Uiso   1.00
F1058  F     0.47629   0.17841   0.62100   0.00000  Uiso   1.00
F1059  F     0.47205   0.17989   0.37883   0.00000  Uiso   1.00
F1060  F     0.00661   0.32499   0.62167   0.00000  Uiso   1.00
F1061  F     0.26994   0.07266   0.37912   0.00000  Uiso   1.00
F1062  F     0.22622   0.42843   0.62099   0.00000  Uiso   1.00
F1063  F     0.22200   0.42991   0.37884   0.00000  Uiso   1.00
F1064  F     0.25663   0.07499   0.62167   0.00000  Uiso   1.00
O1065  O     0.38732   0.17134   0.42286   0.00000  Uiso   1.00
C1066  C     0.36469   0.21024   0.42830   0.00000  Uiso   1.00
H1067  H     0.37104   0.23011   0.39827   0.00000  Uiso   1.00
H1068  H     0.37673   0.22937   0.45717   0.00000  Uiso   1.00
C1069  C     0.31607   0.20268   0.43295   0.00000  Uiso   1.00
H1070  H     0.30597   0.17430   0.41318   0.00000  Uiso   1.00
H1071  H     0.30856   0.19619   0.46846   0.00000  Uiso   1.00
C1072  C     0.29112   0.24165   0.41727   0.00000  Uiso   1.00
H1073  H     0.30737   0.27092   0.42964   0.00000  Uiso   1.00
H1074  H     0.25781   0.24026   0.43028   0.00000  Uiso   1.00
H1075  H     0.29011   0.24270   0.38040   0.00000  Uiso   1.00
O1076  O     0.12448   0.31995   0.57437   0.00000  Uiso   1.00
C1077  C     0.09657   0.34086   0.60407   0.00000  Uiso   1.00
H1078  H     0.08652   0.31658   0.62888   0.00000  Uiso   1.00
H1079  H     0.06730   0.35346   0.58683   0.00000  Uiso   1.00
C1080  C     0.11783   0.37817   0.62908   0.00000  Uiso   1.00
H1081  H     0.14618   0.36659   0.64820   0.00000  Uiso   1.00
H1082  H     0.12862   0.40349   0.60572   0.00000  Uiso   1.00
C1083  C     0.08509   0.39834   0.65987   0.00000  Uiso   1.00
H1084  H     0.05803   0.41220   0.64026   0.00000  Uiso   1.00
H1085  H     0.10096   0.42388   0.34627   0.00000  Uiso   1.00
H1086  H     0.07124   0.37415   0.34893   0.00000  Uiso   1.00
O1087  O     0.09469   0.34577   0.41833   0.00000  Uiso   1.00
C1088  C     0.11826   0.30888   0.40564   0.00000  Uiso   1.00
H1089  H     0.10486   0.29793   0.37311   0.00000  Uiso   1.00
H1090  H     0.11396   0.28169   0.42920   0.00000  Uiso   1.00
C1091  C     0.16663   0.31761   0.40066   0.00000  Uiso   1.00
H1092  H     0.17182   0.34773   0.38193   0.00000  Uiso   1.00
H1093  H     0.18211   0.32118   0.43407   0.00000  Uiso   1.00
C1094  C     0.18755   0.28028   0.37693   0.00000  Uiso   1.00
H1095  H     0.18057   0.25014   0.39519   0.00000  Uiso   1.00
H1096  H     0.22275   0.28499   0.37665   0.00000  Uiso   1.00
H1097  H     0.17532   0.27781   0.34209   0.00000  Uiso   1.00
O1098  O     0.44531   0.12161   0.56305   0.00000  Uiso   1.00
C1099  C     0.48369   0.10991   0.54087   0.00000  Uiso   1.00
H1100  H     0.01164   0.12445   0.55862   0.00000  Uiso   1.00
H1101  H     0.48600   0.12210   0.50610   0.00000  Uiso   1.00
C1102  C     0.48839   0.06140   0.54059   0.00000  Uiso   1.00
H1103  H     0.49475   0.04996   0.57501   0.00000  Uiso   1.00
H1104  H     0.45798   0.04662   0.52790   0.00000  Uiso   1.00
C1105  C     0.02484   0.04814   0.51026   0.00000  Uiso   1.00
H1106  H     0.01771   0.05972   0.47605   0.00000  Uiso   1.00
H1107  H     0.02770   0.01271   0.50997   0.00000  Uiso   1.00
H1108  H     0.05583   0.06223   0.52171   0.00000  Uiso   1.00
O1109  O     0.10567   0.16173   0.57973   0.00000  Uiso   1.00
C1110  C     0.13687   0.19534   0.58032   0.00000  Uiso   1.00
H1111  H     0.13112   0.21504   0.61051   0.00000  Uiso   1.00
H1112  H     0.13297   0.21720   0.55118   0.00000  Uiso   1.00
C1113  C     0.18328   0.17808   0.58262   0.00000  Uiso   1.00
H1114  H     0.18633   0.15599   0.61126   0.00000  Uiso   1.00
H1115  H     0.19122   0.15993   0.55207   0.00000  Uiso   1.00
C1116  C     0.21658   0.21361   0.58591   0.00000  Uiso   1.00
H1117  H     0.22092   0.22758   0.55241   0.00000  Uiso   1.00
H1118  H     0.24758   0.19939   0.59682   0.00000  Uiso   1.00
H1119  H     0.20691   0.23892   0.60972   0.00000  Uiso   1.00
O1120  O     0.39658   0.33870   0.41765   0.00000  Uiso   1.00
C1121  C     0.43359   0.35968   0.40112   0.00000  Uiso   1.00
H1122  H     0.44617   0.33822   0.37518   0.00000  Uiso   1.00
H1123  H     0.45913   0.36458   0.42708   0.00000  Uiso   1.00
C1124  C     0.42431   0.40244   0.37829   0.00000  Uiso   1.00
H1125  H     0.40121   0.39785   0.35024   0.00000  Uiso   1.00
H1126  H     0.41097   0.42558   0.40246   0.00000  Uiso   1.00
C1127  C     0.46629   0.42101   0.36080   0.00000  Uiso   1.00
H1128  H     0.48796   0.42770   0.38922   0.00000  Uiso   1.00
H1129  H     0.46010   0.45130   0.34292   0.00000  Uiso   1.00
H1130  H     0.48239   0.39814   0.33814   0.00000  Uiso   1.00
O1131  O     0.39711   0.33574   0.58091   0.00000  Uiso   1.00
C1132  C     0.38162   0.29317   0.58585   0.00000  Uiso   1.00
H1133  H     0.40698   0.27416   0.60319   0.00000  Uiso   1.00
H1134  H     0.37452   0.27640   0.55365   0.00000  Uiso   1.00
C1135  C     0.34190   0.29263   0.61455   0.00000  Uiso   1.00
H1136  H     0.35131   0.30091   0.64927   0.00000  Uiso   1.00
H1137  H     0.31855   0.31617   0.60122   0.00000  Uiso   1.00
C1138  C     0.32168   0.24833   0.61425   0.00000  Uiso   1.00
H1139  H     0.31089   0.23950   0.58010   0.00000  Uiso   1.00
H1140  H     0.29372   0.24742   0.63685   0.00000  Uiso   1.00
H1141  H     0.34630   0.22521   0.62551   0.00000  Uiso   1.00
O1142  O     0.08710   0.15086   0.41935   0.00000  Uiso   1.00
C1143  C     0.05605   0.12189   0.40236   0.00000  Uiso   1.00
H1144  H     0.02427   0.12890   0.41741   0.00000  Uiso   1.00
H1145  H     0.06407   0.08786   0.40911   0.00000  Uiso   1.00
C1146  C     0.05385   0.12732   0.35207   0.00000  Uiso   1.00
H1147  H     0.04978   0.16151   0.34340   0.00000  Uiso   1.00
H1148  H     0.08476   0.11737   0.33739   0.00000  Uiso   1.00
C1149  C     0.01735   0.10059   0.66553   0.00000  Uiso   1.00
H1150  H     0.02412   0.06608   0.33702   0.00000  Uiso   1.00
H1151  H     0.01461   0.10713   0.62965   0.00000  Uiso   1.00
H1152  H     0.48625   0.10867   0.34752   0.00000  Uiso   1.00
O1153  O     0.13711   0.42158   0.42298   0.00000  Uiso   1.00
C1154  C     0.11442   0.46044   0.42845   0.00000  Uiso   1.00
H1155  H     0.12081   0.48036   0.39847   0.00000  Uiso   1.00
H1156  H     0.12641   0.47951   0.45739   0.00000  Uiso   1.00
C1157  C     0.06579   0.45280   0.43297   0.00000  Uiso   1.00
H1158  H     0.05582   0.42431   0.41330   0.00000  Uiso   1.00
H1159  H     0.05819   0.44644   0.46849   0.00000  Uiso   1.00
C1160  C     0.04077   0.49162   0.41700   0.00000  Uiso   1.00
H1161  H     0.05692   0.02100   0.42921   0.00000  Uiso   1.00
H1162  H     0.00743   0.49025   0.42996   0.00000  Uiso   1.00
H1163  H     0.03982   0.49245   0.38012   0.00000  Uiso   1.00
O1164  O     0.37450   0.06993   0.57438   0.00000  Uiso   1.00
C1165  C     0.34658   0.09089   0.60403   0.00000  Uiso   1.00
H1166  H     0.33659   0.06667   0.62894   0.00000  Uiso   1.00
H1167  H     0.31729   0.10341   0.58678   0.00000  Uiso   1.00
C1168  C     0.36779   0.12832   0.62888   0.00000  Uiso   1.00
H1169  H     0.39631   0.11693   0.64784   0.00000  Uiso   1.00
H1170  H     0.37832   0.15367   0.60541   0.00000  Uiso   1.00
C1171  C     0.33512   0.14836   0.65983   0.00000  Uiso   1.00
H1172  H     0.30794   0.16217   0.64035   0.00000  Uiso   1.00
H1173  H     0.35100   0.17393   0.34619   0.00000  Uiso   1.00
H1174  H     0.32144   0.12411   0.34894   0.00000  Uiso   1.00
O1175  O     0.34478   0.09560   0.41829   0.00000  Uiso   1.00
C1176  C     0.36816   0.05858   0.40564   0.00000  Uiso   1.00
H1177  H     0.35444   0.04745   0.37330   0.00000  Uiso   1.00
H1178  H     0.36405   0.03154   0.42942   0.00000  Uiso   1.00
C1179  C     0.41648   0.06721   0.40013   0.00000  Uiso   1.00
H1180  H     0.42153   0.09728   0.38127   0.00000  Uiso   1.00
H1181  H     0.43229   0.07084   0.43338   0.00000  Uiso   1.00
C1182  C     0.43706   0.02977   0.37625   0.00000  Uiso   1.00
H1183  H     0.43030   0.49971   0.39474   0.00000  Uiso   1.00
H1184  H     0.47226   0.03442   0.37539   0.00000  Uiso   1.00
H1185  H     0.42434   0.02715   0.34158   0.00000  Uiso   1.00
O1186  O     0.19526   0.37165   0.56302   0.00000  Uiso   1.00
C1187  C     0.23360   0.35990   0.54079   0.00000  Uiso   1.00
H1188  H     0.26157   0.37449   0.55846   0.00000  Uiso   1.00
H1189  H     0.23585   0.37201   0.50598   0.00000  Uiso   1.00
C1190  C     0.23830   0.31140   0.54063   0.00000  Uiso   1.00
H1191  H     0.24466   0.30003   0.57508   0.00000  Uiso   1.00
H1192  H     0.20788   0.29659   0.52798   0.00000  Uiso   1.00
C1193  C     0.27474   0.29807   0.51033   0.00000  Uiso   1.00
H1194  H     0.26761   0.30958   0.47610   0.00000  Uiso   1.00
H1195  H     0.27761   0.26264   0.51013   0.00000  Uiso   1.00
H1196  H     0.30573   0.31218   0.52175   0.00000  Uiso   1.00
O1197  O     0.35576   0.41177   0.57969   0.00000  Uiso   1.00
C1198  C     0.38701   0.44533   0.58018   0.00000  Uiso   1.00
H1199  H     0.38140   0.46503   0.61038   0.00000  Uiso   1.00
H1200  H     0.38305   0.46720   0.55105   0.00000  Uiso   1.00
C1201  C     0.43341   0.42801   0.58230   0.00000  Uiso   1.00
H1202  H     0.43652   0.40586   0.61088   0.00000  Uiso   1.00
H1203  H     0.44125   0.40992   0.55168   0.00000  Uiso   1.00
C1204  C     0.46677   0.46348   0.58559   0.00000  Uiso   1.00
H1205  H     0.47104   0.47754   0.55211   0.00000  Uiso   1.00
H1206  H     0.49778   0.44919   0.59636   0.00000  Uiso   1.00
H1207  H     0.45721   0.48875   0.60950   0.00000  Uiso   1.00
O1208  O     0.14673   0.08884   0.41766   0.00000  Uiso   1.00
C1209  C     0.18372   0.10988   0.40115   0.00000  Uiso   1.00
H1210  H     0.19624   0.08853   0.37507   0.00000  Uiso   1.00
H1211  H     0.20932   0.11462   0.42709   0.00000  Uiso   1.00
C1212  C     0.17442   0.15276   0.37858   0.00000  Uiso   1.00
H1213  H     0.15122   0.14833   0.35059   0.00000  Uiso   1.00
H1214  H     0.16119   0.17581   0.40290   0.00000  Uiso   1.00
C1215  C     0.21636   0.17137   0.36105   0.00000  Uiso   1.00
H1216  H     0.23808   0.17798   0.38946   0.00000  Uiso   1.00
H1217  H     0.21014   0.20172   0.34328   0.00000  Uiso   1.00
H1218  H     0.23243   0.14857   0.33830   0.00000  Uiso   1.00
O1219  O     0.14713   0.08576   0.58092   0.00000  Uiso   1.00
C1220  C     0.13164   0.04319   0.58584   0.00000  Uiso   1.00
H1221  H     0.15698   0.02418   0.60320   0.00000  Uiso   1.00
H1222  H     0.12456   0.02643   0.55363   0.00000  Uiso   1.00
C1223  C     0.09189   0.04264   0.61451   0.00000  Uiso   1.00
H1224  H     0.10128   0.05092   0.64924   0.00000  Uiso   1.00
H1225  H     0.06856   0.06619   0.60117   0.00000  Uiso   1.00
C1226  C     0.07168   0.49834   0.61417   0.00000  Uiso   1.00
H1227  H     0.06101   0.48948   0.57999   0.00000  Uiso   1.00
H1228  H     0.04364   0.49745   0.63666   0.00000  Uiso   1.00
H1229  H     0.09626   0.47523   0.62555   0.00000  Uiso   1.00
O1230  O     0.33697   0.40076   0.41934   0.00000  Uiso   1.00
C1231  C     0.30593   0.37180   0.40231   0.00000  Uiso   1.00
H1232  H     0.27414   0.37881   0.41735   0.00000  Uiso   1.00
H1233  H     0.31393   0.33776   0.40904   0.00000  Uiso   1.00
C1234  C     0.30376   0.37730   0.35202   0.00000  Uiso   1.00
H1235  H     0.29976   0.41150   0.34340   0.00000  Uiso   1.00
H1236  H     0.33467   0.36732   0.33736   0.00000  Uiso   1.00
C1237  C     0.26725   0.35065   0.66538   0.00000  Uiso   1.00
H1238  H     0.27393   0.31612   0.33683   0.00000  Uiso   1.00
H1239  H     0.26461   0.35724   0.62951   0.00000  Uiso   1.00
H1240  H     0.23613   0.35879   0.34729   0.00000  Uiso   1.00
O1241  O     0.54580   0.20419   0.53821   0.00000  Uiso   1.00
O1242  O     0.95419   0.29581   0.46179   0.00000  Uiso   1.00
O1243  O     0.95419   0.29581   0.53821   0.00000  Uiso   1.00
O1244  O     0.54580   0.20419   0.46179   0.00000  Uiso   1.00
O1245  O     0.95419   0.20419   0.46179   0.00000  Uiso   1.00
O1246  O     0.54580   0.29581   0.53821   0.00000  Uiso   1.00
O1247  O     0.54580   0.29581   0.46179   0.00000  Uiso   1.00
O1248  O     0.95419   0.20419   0.53821   0.00000  Uiso   1.00
O1249  O     0.79580   0.45419   0.53821   0.00000  Uiso   1.00
O1250  O     0.70419   0.04581   0.46179   0.00000  Uiso   1.00
O1251  O     0.70419   0.04581   0.53821   0.00000  Uiso   1.00
O1252  O     0.79580   0.45419   0.46179   0.00000  Uiso   1.00
O1253  O     0.70419   0.45419   0.46179   0.00000  Uiso   1.00
O1254  O     0.79580   0.04581   0.53821   0.00000  Uiso   1.00
O1255  O     0.79580   0.04581   0.46179   0.00000  Uiso   1.00
O1256  O     0.70419   0.45419   0.53821   0.00000  Uiso   1.00
C1257  C     0.55985   0.18986   0.50010   0.00000  Uiso   1.00
C1258  C     0.93852   0.30846   0.49973   0.00000  Uiso   1.00
C1259  C     0.94032   0.18999   0.49968   0.00000  Uiso   1.00
C1260  C     0.56205   0.30810   0.50009   0.00000  Uiso   1.00
C1261  C     0.80984   0.43985   0.50010   0.00000  Uiso   1.00
C1262  C     0.68854   0.05848   0.49973   0.00000  Uiso   1.00
C1263  C     0.69028   0.44003   0.49968   0.00000  Uiso   1.00
C1264  C     0.81207   0.05808   0.50009   0.00000  Uiso   1.00
N1265  N     0.50000   0.25000   0.61907   0.00000  Uiso   1.00
N1266  N     0.50000   0.25000   0.38093   0.00000  Uiso   1.00
N1267  N     0.75000   0.00000   0.61907   0.00000  Uiso   1.00
N1268  N     0.75000   0.00000   0.38093   0.00000  Uiso   1.00
Zn1269 Zn    0.50000   0.25000   0.55104   0.00000  Uiso   1.00
Zn1270 Zn    0.50000   0.25000   0.44896   0.00000  Uiso   1.00
Zn1271 Zn    0.75000   0.00000   0.55104   0.00000  Uiso   1.00
Zn1272 Zn    0.75000   0.00000   0.44896   0.00000  Uiso   1.00
C1273  C     0.50974   0.28615   0.35713   0.00000  Uiso   1.00
C1274  C     0.98842   0.21433   0.64287   0.00000  Uiso   1.00
C1275  C     0.98696   0.21481   0.35704   0.00000  Uiso   1.00
C1276  C     0.50667   0.28683   0.64303   0.00000  Uiso   1.00
C1277  C     0.75973   0.03616   0.35713   0.00000  Uiso   1.00
C1278  C     0.73839   0.46434   0.64287   0.00000  Uiso   1.00
C1279  C     0.73694   0.46482   0.35704   0.00000  Uiso   1.00
C1280  C     0.75667   0.03683   0.64303   0.00000  Uiso   1.00
C1281  C     0.88411   0.14668   0.46097   0.00000  Uiso   1.00
C1282  C     0.62727   0.34427   0.53618   0.00000  Uiso   1.00
C1283  C     0.60869   0.35995   0.45950   0.00000  Uiso   1.00
C1284  C     0.91150   0.12330   0.53256   0.00000  Uiso   1.00
C1285  C     0.60914   0.13932   0.54014   0.00000  Uiso   1.00
C1286  C     0.88559   0.35525   0.45871   0.00000  Uiso   1.00
C1287  C     0.88418   0.35232   0.54000   0.00000  Uiso   1.00
C1288  C     0.60303   0.13576   0.45949   0.00000  Uiso   1.00
C1289  C     0.63391   0.39688   0.46107   0.00000  Uiso   1.00
C1290  C     0.87733   0.09421   0.53617   0.00000  Uiso   1.00
C1291  C     0.85888   0.10976   0.45944   0.00000  Uiso   1.00
C1292  C     0.66142   0.37337   0.53257   0.00000  Uiso   1.00
C1293  C     0.85913   0.38930   0.54013   0.00000  Uiso   1.00
C1294  C     0.63571   0.10536   0.45873   0.00000  Uiso   1.00
C1295  C     0.63422   0.10236   0.54001   0.00000  Uiso   1.00
C1296  C     0.85290   0.38566   0.45947   0.00000  Uiso   1.00
C1297  C     0.59921   0.33794   0.49926   0.00000  Uiso   1.00
C1298  C     0.91031   0.15407   0.49849   0.00000  Uiso   1.00
C1299  C     0.90204   0.33845   0.49927   0.00000  Uiso   1.00
C1300  C     0.59129   0.15487   0.49997   0.00000  Uiso   1.00
C1301  C     0.84930   0.08785   0.49923   0.00000  Uiso   1.00
C1302  C     0.66021   0.40418   0.49853   0.00000  Uiso   1.00
C1303  C     0.65210   0.08851   0.49928   0.00000  Uiso   1.00
C1304  C     0.84124   0.40482   0.49996   0.00000  Uiso   1.00
F1305  F     0.51995   0.32266   0.37913   0.00000  Uiso   1.00
F1306  F     0.97629   0.17841   0.62100   0.00000  Uiso   1.00
F1307  F     0.97205   0.17989   0.37883   0.00000  Uiso   1.00
F1308  F     0.50661   0.32499   0.62167   0.00000  Uiso   1.00
F1309  F     0.76994   0.07266   0.37912   0.00000  Uiso   1.00
F1310  F     0.72622   0.42843   0.62099   0.00000  Uiso   1.00
F1311  F     0.72200   0.42991   0.37884   0.00000  Uiso   1.00
F1312  F     0.75663   0.07499   0.62167   0.00000  Uiso   1.00
O1313  O     0.88732   0.17134   0.42286   0.00000  Uiso   1.00
C1314  C     0.86469   0.21024   0.42830   0.00000  Uiso   1.00
H1315  H     0.87104   0.23011   0.39827   0.00000  Uiso   1.00
H1316  H     0.87673   0.22937   0.45717   0.00000  Uiso   1.00
C1317  C     0.81607   0.20268   0.43295   0.00000  Uiso   1.00
H1318  H     0.80597   0.17430   0.41318   0.00000  Uiso   1.00
H1319  H     0.80856   0.19619   0.46846   0.00000  Uiso   1.00
C1320  C     0.79112   0.24165   0.41727   0.00000  Uiso   1.00
H1321  H     0.80737   0.27092   0.42964   0.00000  Uiso   1.00
H1322  H     0.75781   0.24026   0.43028   0.00000  Uiso   1.00
H1323  H     0.79011   0.24270   0.38040   0.00000  Uiso   1.00
O1324  O     0.62448   0.31995   0.57437   0.00000  Uiso   1.00
C1325  C     0.59657   0.34086   0.60407   0.00000  Uiso   1.00
H1326  H     0.58652   0.31658   0.62888   0.00000  Uiso   1.00
H1327  H     0.56730   0.35346   0.58683   0.00000  Uiso   1.00
C1328  C     0.61783   0.37817   0.62908   0.00000  Uiso   1.00
H1329  H     0.64618   0.36659   0.64820   0.00000  Uiso   1.00
H1330  H     0.62862   0.40349   0.60572   0.00000  Uiso   1.00
C1331  C     0.58509   0.39834   0.65987   0.00000  Uiso   1.00
H1332  H     0.55803   0.41220   0.64026   0.00000  Uiso   1.00
H1333  H     0.60096   0.42388   0.34627   0.00000  Uiso   1.00
H1334  H     0.57124   0.37415   0.34893   0.00000  Uiso   1.00
O1335  O     0.59469   0.34577   0.41833   0.00000  Uiso   1.00
C1336  C     0.61826   0.30888   0.40564   0.00000  Uiso   1.00
H1337  H     0.60486   0.29793   0.37311   0.00000  Uiso   1.00
H1338  H     0.61396   0.28169   0.42920   0.00000  Uiso   1.00
C1339  C     0.66663   0.31761   0.40066   0.00000  Uiso   1.00
H1340  H     0.67182   0.34773   0.38193   0.00000  Uiso   1.00
H1341  H     0.68211   0.32118   0.43407   0.00000  Uiso   1.00
C1342  C     0.68755   0.28028   0.37693   0.00000  Uiso   1.00
H1343  H     0.68057   0.25014   0.39519   0.00000  Uiso   1.00
H1344  H     0.72275   0.28499   0.37665   0.00000  Uiso   1.00
H1345  H     0.67532   0.27781   0.34209   0.00000  Uiso   1.00
O1346  O     0.94531   0.12161   0.56305   0.00000  Uiso   1.00
C1347  C     0.98369   0.10991   0.54087   0.00000  Uiso   1.00
H1348  H     0.51164   0.12445   0.55862   0.00000  Uiso   1.00
H1349  H     0.98600   0.12210   0.50610   0.00000  Uiso   1.00
C1350  C     0.98839   0.06140   0.54059   0.00000  Uiso   1.00
H1351  H     0.99475   0.04996   0.57501   0.00000  Uiso   1.00
H1352  H     0.95798   0.04662   0.52790   0.00000  Uiso   1.00
C1353  C     0.52484   0.04814   0.51026   0.00000  Uiso   1.00
H1354  H     0.51771   0.05972   0.47605   0.00000  Uiso   1.00
H1355  H     0.52770   0.01271   0.50997   0.00000  Uiso   1.00
H1356  H     0.55583   0.06223   0.52171   0.00000  Uiso   1.00
O1357  O     0.60567   0.16173   0.57973   0.00000  Uiso   1.00
C1358  C     0.63687   0.19534   0.58032   0.00000  Uiso   1.00
H1359  H     0.63112   0.21504   0.61051   0.00000  Uiso   1.00
H1360  H     0.63297   0.21720   0.55118   0.00000  Uiso   1.00
C1361  C     0.68328   0.17808   0.58262   0.00000  Uiso   1.00
H1362  H     0.68633   0.15599   0.61126   0.00000  Uiso   1.00
H1363  H     0.69122   0.15993   0.55207   0.00000  Uiso   1.00
C1364  C     0.71658   0.21361   0.58591   0.00000  Uiso   1.00
H1365  H     0.72092   0.22758   0.55241   0.00000  Uiso   1.00
H1366  H     0.74758   0.19939   0.59682   0.00000  Uiso   1.00
H1367  H     0.70691   0.23892   0.60972   0.00000  Uiso   1.00
O1368  O     0.89658   0.33870   0.41765   0.00000  Uiso   1.00
C1369  C     0.93359   0.35968   0.40112   0.00000  Uiso   1.00
H1370  H     0.94617   0.33822   0.37518   0.00000  Uiso   1.00
H1371  H     0.95913   0.36458   0.42708   0.00000  Uiso   1.00
C1372  C     0.92431   0.40244   0.37829   0.00000  Uiso   1.00
H1373  H     0.90121   0.39785   0.35024   0.00000  Uiso   1.00
H1374  H     0.91097   0.42558   0.40246   0.00000  Uiso   1.00
C1375  C     0.96629   0.42101   0.36080   0.00000  Uiso   1.00
H1376  H     0.98796   0.42770   0.38922   0.00000  Uiso   1.00
H1377  H     0.96010   0.45130   0.34292   0.00000  Uiso   1.00
H1378  H     0.98239   0.39814   0.33814   0.00000  Uiso   1.00
O1379  O     0.89711   0.33574   0.58091   0.00000  Uiso   1.00
C1380  C     0.88162   0.29317   0.58585   0.00000  Uiso   1.00
H1381  H     0.90698   0.27416   0.60319   0.00000  Uiso   1.00
H1382  H     0.87452   0.27640   0.55365   0.00000  Uiso   1.00
C1383  C     0.84190   0.29263   0.61455   0.00000  Uiso   1.00
H1384  H     0.85131   0.30091   0.64927   0.00000  Uiso   1.00
H1385  H     0.81855   0.31617   0.60122   0.00000  Uiso   1.00
C1386  C     0.82168   0.24833   0.61425   0.00000  Uiso   1.00
H1387  H     0.81089   0.23950   0.58010   0.00000  Uiso   1.00
H1388  H     0.79372   0.24742   0.63685   0.00000  Uiso   1.00
H1389  H     0.84630   0.22521   0.62551   0.00000  Uiso   1.00
O1390  O     0.58710   0.15086   0.41935   0.00000  Uiso   1.00
C1391  C     0.55605   0.12189   0.40236   0.00000  Uiso   1.00
H1392  H     0.52427   0.12890   0.41741   0.00000  Uiso   1.00
H1393  H     0.56407   0.08786   0.40911   0.00000  Uiso   1.00
C1394  C     0.55385   0.12732   0.35207   0.00000  Uiso   1.00
H1395  H     0.54978   0.16151   0.34340   0.00000  Uiso   1.00
H1396  H     0.58476   0.11737   0.33739   0.00000  Uiso   1.00
C1397  C     0.51735   0.10059   0.66553   0.00000  Uiso   1.00
H1398  H     0.52412   0.06608   0.33702   0.00000  Uiso   1.00
H1399  H     0.51461   0.10713   0.62965   0.00000  Uiso   1.00
H1400  H     0.98625   0.10867   0.34752   0.00000  Uiso   1.00
O1401  O     0.63711   0.42158   0.42298   0.00000  Uiso   1.00
C1402  C     0.61442   0.46044   0.42845   0.00000  Uiso   1.00
H1403  H     0.62081   0.48036   0.39847   0.00000  Uiso   1.00
H1404  H     0.62641   0.47951   0.45739   0.00000  Uiso   1.00
C1405  C     0.56579   0.45280   0.43297   0.00000  Uiso   1.00
H1406  H     0.55582   0.42431   0.41330   0.00000  Uiso   1.00
H1407  H     0.55819   0.44644   0.46849   0.00000  Uiso   1.00
C1408  C     0.54077   0.49162   0.41700   0.00000  Uiso   1.00
H1409  H     0.55692   0.02100   0.42921   0.00000  Uiso   1.00
H1410  H     0.50743   0.49025   0.42996   0.00000  Uiso   1.00
H1411  H     0.53982   0.49245   0.38012   0.00000  Uiso   1.00
O1412  O     0.87450   0.06993   0.57438   0.00000  Uiso   1.00
C1413  C     0.84658   0.09089   0.60403   0.00000  Uiso   1.00
H1414  H     0.83659   0.06667   0.62894   0.00000  Uiso   1.00
H1415  H     0.81729   0.10341   0.58678   0.00000  Uiso   1.00
C1416  C     0.86779   0.12832   0.62888   0.00000  Uiso   1.00
H1417  H     0.89631   0.11693   0.64784   0.00000  Uiso   1.00
H1418  H     0.87832   0.15367   0.60541   0.00000  Uiso   1.00
C1419  C     0.83512   0.14836   0.65983   0.00000  Uiso   1.00
H1420  H     0.80794   0.16217   0.64035   0.00000  Uiso   1.00
H1421  H     0.85100   0.17393   0.34619   0.00000  Uiso   1.00
H1422  H     0.82144   0.12411   0.34894   0.00000  Uiso   1.00
O1423  O     0.84478   0.09560   0.41829   0.00000  Uiso   1.00
C1424  C     0.86816   0.05858   0.40564   0.00000  Uiso   1.00
H1425  H     0.85444   0.04745   0.37330   0.00000  Uiso   1.00
H1426  H     0.86405   0.03154   0.42942   0.00000  Uiso   1.00
C1427  C     0.91648   0.06721   0.40013   0.00000  Uiso   1.00
H1428  H     0.92153   0.09728   0.38127   0.00000  Uiso   1.00
H1429  H     0.93229   0.07084   0.43338   0.00000  Uiso   1.00
C1430  C     0.93706   0.02977   0.37625   0.00000  Uiso   1.00
H1431  H     0.93030   0.49971   0.39474   0.00000  Uiso   1.00
H1432  H     0.97226   0.03442   0.37539   0.00000  Uiso   1.00
H1433  H     0.92434   0.02715   0.34158   0.00000  Uiso   1.00
O1434  O     0.69526   0.37165   0.56302   0.00000  Uiso   1.00
C1435  C     0.73360   0.35990   0.54079   0.00000  Uiso   1.00
H1436  H     0.76157   0.37449   0.55846   0.00000  Uiso   1.00
H1437  H     0.73585   0.37201   0.50598   0.00000  Uiso   1.00
C1438  C     0.73830   0.31140   0.54063   0.00000  Uiso   1.00
H1439  H     0.74466   0.30003   0.57508   0.00000  Uiso   1.00
H1440  H     0.70788   0.29659   0.52798   0.00000  Uiso   1.00
C1441  C     0.77474   0.29807   0.51033   0.00000  Uiso   1.00
H1442  H     0.76761   0.30958   0.47610   0.00000  Uiso   1.00
H1443  H     0.77761   0.26264   0.51013   0.00000  Uiso   1.00
H1444  H     0.80573   0.31218   0.52175   0.00000  Uiso   1.00
O1445  O     0.85576   0.41177   0.57969   0.00000  Uiso   1.00
C1446  C     0.88701   0.44533   0.58018   0.00000  Uiso   1.00
H1447  H     0.88140   0.46503   0.61038   0.00000  Uiso   1.00
H1448  H     0.88305   0.46720   0.55105   0.00000  Uiso   1.00
C1449  C     0.93341   0.42801   0.58230   0.00000  Uiso   1.00
H1450  H     0.93652   0.40586   0.61088   0.00000  Uiso   1.00
H1451  H     0.94125   0.40992   0.55168   0.00000  Uiso   1.00
C1452  C     0.96677   0.46348   0.58559   0.00000  Uiso   1.00
H1453  H     0.97104   0.47754   0.55211   0.00000  Uiso   1.00
H1454  H     0.99778   0.44919   0.59636   0.00000  Uiso   1.00
H1455  H     0.95721   0.48875   0.60950   0.00000  Uiso   1.00
O1456  O     0.64673   0.08884   0.41766   0.00000  Uiso   1.00
C1457  C     0.68372   0.10988   0.40115   0.00000  Uiso   1.00
H1458  H     0.69624   0.08853   0.37507   0.00000  Uiso   1.00
H1459  H     0.70932   0.11462   0.42709   0.00000  Uiso   1.00
C1460  C     0.67442   0.15276   0.37858   0.00000  Uiso   1.00
H1461  H     0.65122   0.14833   0.35059   0.00000  Uiso   1.00
H1462  H     0.66119   0.17581   0.40290   0.00000  Uiso   1.00
C1463  C     0.71636   0.17137   0.36105   0.00000  Uiso   1.00
H1464  H     0.73808   0.17798   0.38946   0.00000  Uiso   1.00
H1465  H     0.71014   0.20172   0.34328   0.00000  Uiso   1.00
H1466  H     0.73243   0.14857   0.33830   0.00000  Uiso   1.00
O1467  O     0.64713   0.08576   0.58092   0.00000  Uiso   1.00
C1468  C     0.63164   0.04319   0.58584   0.00000  Uiso   1.00
H1469  H     0.65698   0.02418   0.60320   0.00000  Uiso   1.00
H1470  H     0.62456   0.02643   0.55363   0.00000  Uiso   1.00
C1471  C     0.59189   0.04264   0.61451   0.00000  Uiso   1.00
H1472  H     0.60128   0.05092   0.64924   0.00000  Uiso   1.00
H1473  H     0.56856   0.06619   0.60117   0.00000  Uiso   1.00
C1474  C     0.57168   0.49834   0.61417   0.00000  Uiso   1.00
H1475  H     0.56101   0.48948   0.57999   0.00000  Uiso   1.00
H1476  H     0.54364   0.49745   0.63666   0.00000  Uiso   1.00
H1477  H     0.59626   0.47523   0.62555   0.00000  Uiso   1.00
O1478  O     0.83697   0.40076   0.41934   0.00000  Uiso   1.00
C1479  C     0.80593   0.37180   0.40231   0.00000  Uiso   1.00
H1480  H     0.77414   0.37881   0.41735   0.00000  Uiso   1.00
H1481  H     0.81393   0.33776   0.40904   0.00000  Uiso   1.00
C1482  C     0.80376   0.37730   0.35202   0.00000  Uiso   1.00
H1483  H     0.79976   0.41150   0.34340   0.00000  Uiso   1.00
H1484  H     0.83467   0.36732   0.33736   0.00000  Uiso   1.00
C1485  C     0.76725   0.35065   0.66538   0.00000  Uiso   1.00
H1486  H     0.77393   0.31612   0.33683   0.00000  Uiso   1.00
H1487  H     0.76461   0.35724   0.62951   0.00000  Uiso   1.00
H1488  H     0.73613   0.35879   0.34729   0.00000  Uiso   1.00
O1489  O     0.04580   0.70419   0.53821   0.00000  Uiso   1.00
O1490  O     0.45419   0.79581   0.46179   0.00000  Uiso   1.00
O1491  O     0.45419   0.79581   0.53821   0.00000  Uiso   1.00
O1492  O     0.04580   0.70419   0.46179   0.00000  Uiso   1.00
O1493  O     0.45419   0.70419   0.46179   0.00000  Uiso   1.00
O1494  O     0.04580   0.79581   0.53821   0.00000  Uiso   1.00
O1495  O     0.04580   0.79581   0.46179   0.00000  Uiso   1.00
O1496  O     0.45419   0.70419   0.53821   0.00000  Uiso   1.00
O1497  O     0.29580   0.95419   0.53821   0.00000  Uiso   1.00
O1498  O     0.20419   0.54581   0.46179   0.00000  Uiso   1.00
O1499  O     0.20419   0.54581   0.53821   0.00000  Uiso   1.00
O1500  O     0.29580   0.95419   0.46179   0.00000  Uiso   1.00
O1501  O     0.20419   0.95419   0.46179   0.00000  Uiso   1.00
O1502  O     0.29580   0.54581   0.53821   0.00000  Uiso   1.00
O1503  O     0.29580   0.54581   0.46179   0.00000  Uiso   1.00
O1504  O     0.20419   0.95419   0.53821   0.00000  Uiso   1.00
C1505  C     0.05985   0.68986   0.50010   0.00000  Uiso   1.00
C1506  C     0.43852   0.80846   0.49973   0.00000  Uiso   1.00
C1507  C     0.44032   0.68999   0.49968   0.00000  Uiso   1.00
C1508  C     0.06205   0.80810   0.50009   0.00000  Uiso   1.00
C1509  C     0.30984   0.93985   0.50010   0.00000  Uiso   1.00
C1510  C     0.18854   0.55848   0.49973   0.00000  Uiso   1.00
C1511  C     0.19028   0.94003   0.49968   0.00000  Uiso   1.00
C1512  C     0.31207   0.55808   0.50009   0.00000  Uiso   1.00
N1513  N     0.00000   0.75000   0.61907   0.00000  Uiso   1.00
N1514  N    -0.00000   0.75000   0.38093   0.00000  Uiso   1.00
N1515  N     0.25000   0.50000   0.61907   0.00000  Uiso   1.00
N1516  N     0.25000   0.50000   0.38093   0.00000  Uiso   1.00
Zn1517 Zn   -0.00000   0.75000   0.55104   0.00000  Uiso   1.00
Zn1518 Zn    0.00000   0.75000   0.44896   0.00000  Uiso   1.00
Zn1519 Zn    0.25000   0.50000   0.55104   0.00000  Uiso   1.00
Zn1520 Zn    0.25000   0.50000   0.44896   0.00000  Uiso   1.00
C1521  C     0.00974   0.78615   0.35713   0.00000  Uiso   1.00
C1522  C     0.48842   0.71433   0.64287   0.00000  Uiso   1.00
C1523  C     0.48696   0.71481   0.35704   0.00000  Uiso   1.00
C1524  C     0.00667   0.78683   0.64303   0.00000  Uiso   1.00
C1525  C     0.25973   0.53616   0.35713   0.00000  Uiso   1.00
C1526  C     0.23839   0.96434   0.64287   0.00000  Uiso   1.00
C1527  C     0.23694   0.96482   0.35704   0.00000  Uiso   1.00
C1528  C     0.25667   0.53683   0.64303   0.00000  Uiso   1.00
C1529  C     0.38411   0.64668   0.46097   0.00000  Uiso   1.00
C1530  C     0.12727   0.84427   0.53618   0.00000  Uiso   1.00
C1531  C     0.10869   0.85995   0.45950   0.00000  Uiso   1.00
C1532  C     0.41150   0.62330   0.53256   0.00000  Uiso   1.00
C1533  C     0.10914   0.63932   0.54014   0.00000  Uiso   1.00
C1534  C     0.38559   0.85525   0.45871   0.00000  Uiso   1.00
C1535  C     0.38418   0.85232   0.54000   0.00000  Uiso   1.00
C1536  C     0.10303   0.63576   0.45949   0.00000  Uiso   1.00
C1537  C     0.13391   0.89688   0.46107   0.00000  Uiso   1.00
C1538  C     0.37733   0.59421   0.53617   0.00000  Uiso   1.00
C1539  C     0.35888   0.60976   0.45944   0.00000  Uiso   1.00
C1540  C     0.16142   0.87337   0.53257   0.00000  Uiso   1.00
C1541  C     0.35913   0.88930   0.54013   0.00000  Uiso   1.00
C1542  C     0.13571   0.60536   0.45873   0.00000  Uiso   1.00
C1543  C     0.13422   0.60236   0.54001   0.00000  Uiso   1.00
C1544  C     0.35290   0.88566   0.45947   0.00000  Uiso   1.00
C1545  C     0.09921   0.83794   0.49926   0.00000  Uiso   1.00
C1546  C     0.41031   0.65407   0.49849   0.00000  Uiso   1.00
C1547  C     0.40204   0.83845   0.49927   0.00000  Uiso   1.00
C1548  C     0.09129   0.65487   0.49997   0.00000  Uiso   1.00
C1549  C     0.34930   0.58785   0.49923   0.00000  Uiso   1.00
C1550  C     0.16021   0.90418   0.49853   0.00000  Uiso   1.00
C1551  C     0.15210   0.58851   0.49928   0.00000  Uiso   1.00
C1552  C     0.34124   0.90482   0.49996   0.00000  Uiso   1.00
F1553  F     0.01995   0.82266   0.37913   0.00000  Uiso   1.00
F1554  F     0.47629   0.67841   0.62100   0.00000  Uiso   1.00
F1555  F     0.47205   0.67989   0.37883   0.00000  Uiso   1.00
F1556  F     0.00661   0.82499   0.62167   0.00000  Uiso   1.00
F1557  F     0.26994   0.57266   0.37912   0.00000  Uiso   1.00
F1558  F     0.22622   0.92843   0.62099   0.00000  Uiso   1.00
F1559  F     0.22200   0.92991   0.37884   0.00000  Uiso   1.00
F1560  F     0.25663   0.57499   0.62167   0.00000  Uiso   1.00
O1561  O     0.38732   0.67134   0.42286   0.00000  Uiso   1.00
C1562  C     0.36469   0.71024   0.42830   0.00000  Uiso   1.00
H1563  H     0.37104   0.73011   0.39827   0.00000  Uiso   1.00
H1564  H     0.37673   0.72937   0.45717   0.00000  Uiso   1.00
C1565  C     0.31607   0.70268   0.43295   0.00000  Uiso   1.00
H1566  H     0.30597   0.67430   0.41318   0.00000  Uiso   1.00
H1567  H     0.30856   0.69619   0.46846   0.00000  Uiso   1.00
C1568  C     0.29112   0.74165   0.41727   0.00000  Uiso   1.00
H1569  H     0.30737   0.77092   0.42964   0.00000  Uiso   1.00
H1570  H     0.25781   0.74026   0.43028   0.00000  Uiso   1.00
H1571  H     0.29011   0.74270   0.38040   0.00000  Uiso   1.00
O1572  O     0.12448   0.81995   0.57437   0.00000  Uiso   1.00
C1573  C     0.09657   0.84086   0.60407   0.00000  Uiso   1.00
H1574  H     0.08652   0.81658   0.62888   0.00000  Uiso   1.00
H1575  H     0.06730   0.85346   0.58683   0.00000  Uiso   1.00
C1576  C     0.11783   0.87817   0.62908   0.00000  Uiso   1.00
H1577  H     0.14618   0.86659   0.64820   0.00000  Uiso   1.00
H1578  H     0.12862   0.90349   0.60572   0.00000  Uiso   1.00
C1579  C     0.08509   0.89834   0.65987   0.00000  Uiso   1.00
H1580  H     0.05803   0.91220   0.64026   0.00000  Uiso   1.00
H1581  H     0.10096   0.92388   0.34627   0.00000  Uiso   1.00
H1582  H     0.07124   0.87415   0.34893   0.00000  Uiso   1.00
O1583  O     0.09469   0.84577   0.41833   0.00000  Uiso   1.00
C1584  C     0.11826   0.80888   0.40564   0.00000  Uiso   1.00
H1585  H     0.10486   0.79793   0.37311   0.00000  Uiso   1.00
H1586  H     0.11396   0.78169   0.42920   0.00000  Uiso   1.00
C1587  C     0.16663   0.81761   0.40066   0.00000  Uiso   1.00
H1588  H     0.17182   0.84773   0.38193   0.00000  Uiso   1.00
H1589  H     0.18211   0.82118   0.43407   0.00000  Uiso   1.00
C1590  C     0.18755   0.78028   0.37693   0.00000  Uiso   1.00
H1591  H     0.18057   0.75014   0.39519   0.00000  Uiso   1.00
H1592  H     0.22275   0.78499   0.37665   0.00000  Uiso   1.00
H1593  H     0.17532   0.77781   0.34209   0.00000  Uiso   1.00
O1594  O     0.44531   0.62161   0.56305   0.00000  Uiso   1.00
C1595  C     0.48369   0.60991   0.54087   0.00000  Uiso   1.00
H1596  H     0.01164   0.62445   0.55862   0.00000  Uiso   1.00
H1597  H     0.48600   0.62210   0.50610   0.00000  Uiso   1.00
C1598  C     0.48839   0.56140   0.54059   0.00000  Uiso   1.00
H1599  H     0.49475   0.54996   0.57501   0.00000  Uiso   1.00
H1600  H     0.45798   0.54662   0.52790   0.00000  Uiso   1.00
C1601  C     0.02484   0.54814   0.51026   0.00000  Uiso   1.00
H1602  H     0.01771   0.55972   0.47605   0.00000  Uiso   1.00
H1603  H     0.02770   0.51271   0.50997   0.00000  Uiso   1.00
H1604  H     0.05583   0.56223   0.52171   0.00000  Uiso   1.00
O1605  O     0.10567   0.66173   0.57973   0.00000  Uiso   1.00
C1606  C     0.13687   0.69534   0.58032   0.00000  Uiso   1.00
H1607  H     0.13112   0.71504   0.61051   0.00000  Uiso   1.00
H1608  H     0.13297   0.71720   0.55118   0.00000  Uiso   1.00
C1609  C     0.18328   0.67808   0.58262   0.00000  Uiso   1.00
H1610  H     0.18633   0.65599   0.61126   0.00000  Uiso   1.00
H1611  H     0.19122   0.65993   0.55207   0.00000  Uiso   1.00
C1612  C     0.21658   0.71361   0.58591   0.00000  Uiso   1.00
H1613  H     0.22092   0.72758   0.55241   0.00000  Uiso   1.00
H1614  H     0.24758   0.69939   0.59682   0.00000  Uiso   1.00
H1615  H     0.20691   0.73892   0.60972   0.00000  Uiso   1.00
O1616  O     0.39658   0.83870   0.41765   0.00000  Uiso   1.00
C1617  C     0.43359   0.85968   0.40112   0.00000  Uiso   1.00
H1618  H     0.44617   0.83822   0.37518   0.00000  Uiso   1.00
H1619  H     0.45913   0.86458   0.42708   0.00000  Uiso   1.00
C1620  C     0.42431   0.90244   0.37829   0.00000  Uiso   1.00
H1621  H     0.40121   0.89785   0.35024   0.00000  Uiso   1.00
H1622  H     0.41097   0.92558   0.40246   0.00000  Uiso   1.00
C1623  C     0.46629   0.92101   0.36080   0.00000  Uiso   1.00
H1624  H     0.48796   0.92770   0.38922   0.00000  Uiso   1.00
H1625  H     0.46010   0.95130   0.34292   0.00000  Uiso   1.00
H1626  H     0.48239   0.89814   0.33814   0.00000  Uiso   1.00
O1627  O     0.39711   0.83574   0.58091   0.00000  Uiso   1.00
C1628  C     0.38162   0.79317   0.58585   0.00000  Uiso   1.00
H1629  H     0.40698   0.77416   0.60319   0.00000  Uiso   1.00
H1630  H     0.37452   0.77640   0.55365   0.00000  Uiso   1.00
C1631  C     0.34190   0.79263   0.61455   0.00000  Uiso   1.00
H1632  H     0.35131   0.80091   0.64927   0.00000  Uiso   1.00
H1633  H     0.31855   0.81617   0.60122   0.00000  Uiso   1.00
C1634  C     0.32168   0.74833   0.61425   0.00000  Uiso   1.00
H1635  H     0.31089   0.73950   0.58010   0.00000  Uiso   1.00
H1636  H     0.29372   0.74742   0.63685   0.00000  Uiso   1.00
H1637  H     0.34630   0.72521   0.62551   0.00000  Uiso   1.00
O1638  O     0.08710   0.65086   0.41935   0.00000  Uiso   1.00
C1639  C     0.05605   0.62189   0.40236   0.00000  Uiso   1.00
H1640  H     0.02427   0.62890   0.41741   0.00000  Uiso   1.00
H1641  H     0.06407   0.58786   0.40911   0.00000  Uiso   1.00
C1642  C     0.05385   0.62732   0.35207   0.00000  Uiso   1.00
H1643  H     0.04978   0.66151   0.34340   0.00000  Uiso   1.00
H1644  H     0.08476   0.61737   0.33739   0.00000  Uiso   1.00
C1645  C     0.01735   0.60059   0.66553   0.00000  Uiso   1.00
H1646  H     0.02412   0.56608   0.33702   0.00000  Uiso   1.00
H1647  H     0.01461   0.60713   0.62965   0.00000  Uiso   1.00
H1648  H     0.48625   0.60867   0.34752   0.00000  Uiso   1.00
O1649  O     0.13711   0.92158   0.42298   0.00000  Uiso   1.00
C1650  C     0.11442   0.96044   0.42845   0.00000  Uiso   1.00
H1651  H     0.12081   0.98036   0.39847   0.00000  Uiso   1.00
H1652  H     0.12641   0.97951   0.45739   0.00000  Uiso   1.00
C1653  C     0.06579   0.95280   0.43297   0.00000  Uiso   1.00
H1654  H     0.05582   0.92431   0.41330   0.00000  Uiso   1.00
H1655  H     0.05819   0.94644   0.46849   0.00000  Uiso   1.00
C1656  C     0.04077   0.99162   0.41700   0.00000  Uiso   1.00
H1657  H     0.05692   0.52100   0.42921   0.00000  Uiso   1.00
H1658  H     0.00743   0.99025   0.42996   0.00000  Uiso   1.00
H1659  H     0.03982   0.99245   0.38012   0.00000  Uiso   1.00
O1660  O     0.37450   0.56993   0.57438   0.00000  Uiso   1.00
C1661  C     0.34658   0.59089   0.60403   0.00000  Uiso   1.00
H1662  H     0.33659   0.56667   0.62894   0.00000  Uiso   1.00
H1663  H     0.31729   0.60341   0.58678   0.00000  Uiso   1.00
C1664  C     0.36779   0.62832   0.62888   0.00000  Uiso   1.00
H1665  H     0.39631   0.61693   0.64784   0.00000  Uiso   1.00
H1666  H     0.37832   0.65367   0.60541   0.00000  Uiso   1.00
C1667  C     0.33512   0.64836   0.65983   0.00000  Uiso   1.00
H1668  H     0.30794   0.66217   0.64035   0.00000  Uiso   1.00
H1669  H     0.35100   0.67393   0.34619   0.00000  Uiso   1.00
H1670  H     0.32144   0.62411   0.34894   0.00000  Uiso   1.00
O1671  O     0.34478   0.59560   0.41829   0.00000  Uiso   1.00
C1672  C     0.36816   0.55858   0.40564   0.00000  Uiso   1.00
H1673  H     0.35444   0.54745   0.37330   0.00000  Uiso   1.00
H1674  H     0.36405   0.53154   0.42942   0.00000  Uiso   1.00
C1675  C     0.41648   0.56721   0.40013   0.00000  Uiso   1.00
H1676  H     0.42153   0.59728   0.38127   0.00000  Uiso   1.00
H1677  H     0.43229   0.57084   0.43338   0.00000  Uiso   1.00
C1678  C     0.43706   0.52977   0.37625   0.00000  Uiso   1.00
H1679  H     0.43030   0.99971   0.39474   0.00000  Uiso   1.00
H1680  H     0.47226   0.53442   0.37539   0.00000  Uiso   1.00
H1681  H     0.42434   0.52715   0.34158   0.00000  Uiso   1.00
O1682  O     0.19526   0.87165   0.56302   0.00000  Uiso   1.00
C1683  C     0.23360   0.85990   0.54079   0.00000  Uiso   1.00
H1684  H     0.26157   0.87449   0.55846   0.00000  Uiso   1.00
H1685  H     0.23585   0.87201   0.50598   0.00000  Uiso   1.00
C1686  C     0.23830   0.81140   0.54063   0.00000  Uiso   1.00
H1687  H     0.24466   0.80003   0.57508   0.00000  Uiso   1.00
H1688  H     0.20788   0.79659   0.52798   0.00000  Uiso   1.00
C1689  C     0.27474   0.79807   0.51033   0.00000  Uiso   1.00
H1690  H     0.26761   0.80958   0.47610   0.00000  Uiso   1.00
H1691  H     0.27761   0.76264   0.51013   0.00000  Uiso   1.00
H1692  H     0.30573   0.81218   0.52175   0.00000  Uiso   1.00
O1693  O     0.35576   0.91177   0.57969   0.00000  Uiso   1.00
C1694  C     0.38701   0.94533   0.58018   0.00000  Uiso   1.00
H1695  H     0.38140   0.96503   0.61038   0.00000  Uiso   1.00
H1696  H     0.38305   0.96720   0.55105   0.00000  Uiso   1.00
C1697  C     0.43341   0.92801   0.58230   0.00000  Uiso   1.00
H1698  H     0.43652   0.90586   0.61088   0.00000  Uiso   1.00
H1699  H     0.44125   0.90992   0.55168   0.00000  Uiso   1.00
C1700  C     0.46677   0.96348   0.58559   0.00000  Uiso   1.00
H1701  H     0.47104   0.97754   0.55211   0.00000  Uiso   1.00
H1702  H     0.49778   0.94919   0.59636   0.00000  Uiso   1.00
H1703  H     0.45721   0.98875   0.60950   0.00000  Uiso   1.00
O1704  O     0.14673   0.58884   0.41766   0.00000  Uiso   1.00
C1705  C     0.18372   0.60988   0.40115   0.00000  Uiso   1.00
H1706  H     0.19624   0.58853   0.37507   0.00000  Uiso   1.00
H1707  H     0.20932   0.61462   0.42709   0.00000  Uiso   1.00
C1708  C     0.17442   0.65276   0.37858   0.00000  Uiso   1.00
H1709  H     0.15122   0.64833   0.35059   0.00000  Uiso   1.00
H1710  H     0.16119   0.67581   0.40290   0.00000  Uiso   1.00
C1711  C     0.21636   0.67137   0.36105   0.00000  Uiso   1.00
H1712  H     0.23808   0.67798   0.38946   0.00000  Uiso   1.00
H1713  H     0.21014   0.70172   0.34328   0.00000  Uiso   1.00
H1714  H     0.23243   0.64857   0.33830   0.00000  Uiso   1.00
O1715  O     0.14713   0.58576   0.58092   0.00000  Uiso   1.00
C1716  C     0.13164   0.54319   0.58584   0.00000  Uiso   1.00
H1717  H     0.15698   0.52418   0.60320   0.00000  Uiso   1.00
H1718  H     0.12456   0.52643   0.55363   0.00000  Uiso   1.00
C1719  C     0.09189   0.54264   0.61451   0.00000  Uiso   1.00
H1720  H     0.10128   0.55092   0.64924   0.00000  Uiso   1.00
H1721  H     0.06856   0.56619   0.60117   0.00000  Uiso   1.00
C1722  C     0.07168   0.99834   0.61417   0.00000  Uiso   1.00
H1723  H     0.06101   0.98948   0.57999   0.00000  Uiso   1.00
H1724  H     0.04364   0.99745   0.63666   0.00000  Uiso   1.00
H1725  H     0.09626   0.97523   0.62555   0.00000  Uiso   1.00
O1726  O     0.33697   0.90076   0.41934   0.00000  Uiso   1.00
C1727  C     0.30593   0.87180   0.40231   0.00000  Uiso   1.00
H1728  H     0.27414   0.87881   0.41735   0.00000  Uiso   1.00
H1729  H     0.31393   0.83776   0.40904   0.00000  Uiso   1.00
C1730  C     0.30376   0.87730   0.35202   0.00000  Uiso   1.00
H1731  H     0.29976   0.91150   0.34340   0.00000  Uiso   1.00
H1732  H     0.33467   0.86732   0.33736   0.00000  Uiso   1.00
C1733  C     0.26725   0.85065   0.66538   0.00000  Uiso   1.00
H1734  H     0.27393   0.81612   0.33683   0.00000  Uiso   1.00
H1735  H     0.26461   0.85724   0.62951   0.00000  Uiso   1.00
H1736  H     0.23613   0.85879   0.34729   0.00000  Uiso   1.00
O1737  O     0.54580   0.70419   0.53821   0.00000  Uiso   1.00
O1738  O     0.95419   0.79581   0.46179   0.00000  Uiso   1.00
O1739  O     0.95419   0.79581   0.53821   0.00000  Uiso   1.00
O1740  O     0.54580   0.70419   0.46179   0.00000  Uiso   1.00
O1741  O     0.95419   0.70419   0.46179   0.00000  Uiso   1.00
O1742  O     0.54580   0.79581   0.53821   0.00000  Uiso   1.00
O1743  O     0.54580   0.79581   0.46179   0.00000  Uiso   1.00
O1744  O     0.95419   0.70419   0.53821   0.00000  Uiso   1.00
O1745  O     0.79580   0.95419   0.53821   0.00000  Uiso   1.00
O1746  O     0.70419   0.54581   0.46179   0.00000  Uiso   1.00
O1747  O     0.70419   0.54581   0.53821   0.00000  Uiso   1.00
O1748  O     0.79580   0.95419   0.46179   0.00000  Uiso   1.00
O1749  O     0.70419   0.95419   0.46179   0.00000  Uiso   1.00
O1750  O     0.79580   0.54581   0.53821   0.00000  Uiso   1.00
O1751  O     0.79580   0.54581   0.46179   0.00000  Uiso   1.00
O1752  O     0.70419   0.95419   0.53821   0.00000  Uiso   1.00
C1753  C     0.55985   0.68986   0.50010   0.00000  Uiso   1.00
C1754  C     0.93852   0.80846   0.49973   0.00000  Uiso   1.00
C1755  C     0.94032   0.68999   0.49968   0.00000  Uiso   1.00
C1756  C     0.56205   0.80810   0.50009   0.00000  Uiso   1.00
C1757  C     0.80984   0.93985   0.50010   0.00000  Uiso   1.00
C1758  C     0.68854   0.55848   0.49973   0.00000  Uiso   1.00
C1759  C     0.69028   0.94003   0.49968   0.00000  Uiso   1.00
C1760  C     0.81207   0.55808   0.50009   0.00000  Uiso   1.00
N1761  N     0.50000   0.75000   0.61907   0.00000  Uiso   1.00
N1762  N     0.50000   0.75000   0.38093   0.00000  Uiso   1.00
N1763  N     0.75000   0.50000   0.61907   0.00000  Uiso   1.00
N1764  N     0.75000   0.50000   0.38093   0.00000  Uiso   1.00
Zn1765 Zn    0.50000   0.75000   0.55104   0.00000  Uiso   1.00
Zn1766 Zn    0.50000   0.75000   0.44896   0.00000  Uiso   1.00
Zn1767 Zn    0.75000   0.50000   0.55104   0.00000  Uiso   1.00
Zn1768 Zn    0.75000   0.50000   0.44896   0.00000  Uiso   1.00
C1769  C     0.50974   0.78615   0.35713   0.00000  Uiso   1.00
C1770  C     0.98842   0.71433   0.64287   0.00000  Uiso   1.00
C1771  C     0.98696   0.71481   0.35704   0.00000  Uiso   1.00
C1772  C     0.50667   0.78683   0.64303   0.00000  Uiso   1.00
C1773  C     0.75973   0.53616   0.35713   0.00000  Uiso   1.00
C1774  C     0.73839   0.96434   0.64287   0.00000  Uiso   1.00
C1775  C     0.73694   0.96482   0.35704   0.00000  Uiso   1.00
C1776  C     0.75667   0.53683   0.64303   0.00000  Uiso   1.00
C1777  C     0.88411   0.64668   0.46097   0.00000  Uiso   1.00
C1778  C     0.62727   0.84427   0.53618   0.00000  Uiso   1.00
C1779  C     0.60869   0.85995   0.45950   0.00000  Uiso   1.00
C1780  C     0.91150   0.62330   0.53256   0.00000  Uiso   1.00
C1781  C     0.60914   0.63932   0.54014   0.00000  Uiso   1.00
C1782  C     0.88559   0.85525   0.45871   0.00000  Uiso   1.00
C1783  C     0.88418   0.85232   0.54000   0.00000  Uiso   1.00
C1784  C     0.60303   0.63576   0.45949   0.00000  Uiso   1.00
C1785  C     0.63391   0.89688   0.46107   0.00000  Uiso   1.00
C1786  C     0.87733   0.59421   0.53617   0.00000  Uiso   1.00
C1787  C     0.85888   0.60976   0.45944   0.00000  Uiso   1.00
C1788  C     0.66142   0.87337   0.53257   0.00000  Uiso   1.00
C1789  C     0.85913   0.88930   0.54013   0.00000  Uiso   1.00
C1790  C     0.63571   0.60536   0.45873   0.00000  Uiso   1.00
C1791  C     0.63422   0.60236   0.54001   0.00000  Uiso   1.00
C1792  C     0.85290   0.88566   0.45947   0.00000  Uiso   1.00
C1793  C     0.59921   0.83794   0.49926   0.00000  Uiso   1.00
C1794  C     0.91031   0.65407   0.49849   0.00000  Uiso   1.00
C1795  C     0.90204   0.83845   0.49927   0.00000  Uiso   1.00
C1796  C     0.59129   0.65487   0.49997   0.00000  Uiso   1.00
C1797  C     0.84930   0.58785   0.49923   0.00000  Uiso   1.00
C1798  C     0.66021   0.90418   0.49853   0.00000  Uiso   1.00
C1799  C     0.65210   0.58851   0.49928   0.00000  Uiso   1.00
C1800  C     0.84124   0.90482   0.49996   0.00000  Uiso   1.00
F1801  F     0.51995   0.82266   0.37913   0.00000  Uiso   1.00
F1802  F     0.97629   0.67841   0.62100   0.00000  Uiso   1.00
F1803  F     0.97205   0.67989   0.37883   0.00000  Uiso   1.00
F1804  F     0.50661   0.82499   0.62167   0.00000  Uiso   1.00
F1805  F     0.76994   0.57266   0.37912   0.00000  Uiso   1.00
F1806  F     0.72622   0.92843   0.62099   0.00000  Uiso   1.00
F1807  F     0.72200   0.92991   0.37884   0.00000  Uiso   1.00
F1808  F     0.75663   0.57499   0.62167   0.00000  Uiso   1.00
O1809  O     0.88732   0.67134   0.42286   0.00000  Uiso   1.00
C1810  C     0.86469   0.71024   0.42830   0.00000  Uiso   1.00
H1811  H     0.87104   0.73011   0.39827   0.00000  Uiso   1.00
H1812  H     0.87673   0.72937   0.45717   0.00000  Uiso   1.00
C1813  C     0.81607   0.70268   0.43295   0.00000  Uiso   1.00
H1814  H     0.80597   0.67430   0.41318   0.00000  Uiso   1.00
H1815  H     0.80856   0.69619   0.46846   0.00000  Uiso   1.00
C1816  C     0.79112   0.74165   0.41727   0.00000  Uiso   1.00
H1817  H     0.80737   0.77092   0.42964   0.00000  Uiso   1.00
H1818  H     0.75781   0.74026   0.43028   0.00000  Uiso   1.00
H1819  H     0.79011   0.74270   0.38040   0.00000  Uiso   1.00
O1820  O     0.62448   0.81995   0.57437   0.00000  Uiso   1.00
C1821  C     0.59657   0.84086   0.60407   0.00000  Uiso   1.00
H1822  H     0.58652   0.81658   0.62888   0.00000  Uiso   1.00
H1823  H     0.56730   0.85346   0.58683   0.00000  Uiso   1.00
C1824  C     0.61783   0.87817   0.62908   0.00000  Uiso   1.00
H1825  H     0.64618   0.86659   0.64820   0.00000  Uiso   1.00
H1826  H     0.62862   0.90349   0.60572   0.00000  Uiso   1.00
C1827  C     0.58509   0.89834   0.65987   0.00000  Uiso   1.00
H1828  H     0.55803   0.91220   0.64026   0.00000  Uiso   1.00
H1829  H     0.60096   0.92388   0.34627   0.00000  Uiso   1.00
H1830  H     0.57124   0.87415   0.34893   0.00000  Uiso   1.00
O1831  O     0.59469   0.84577   0.41833   0.00000  Uiso   1.00
C1832  C     0.61826   0.80888   0.40564   0.00000  Uiso   1.00
H1833  H     0.60486   0.79793   0.37311   0.00000  Uiso   1.00
H1834  H     0.61396   0.78169   0.42920   0.00000  Uiso   1.00
C1835  C     0.66663   0.81761   0.40066   0.00000  Uiso   1.00
H1836  H     0.67182   0.84773   0.38193   0.00000  Uiso   1.00
H1837  H     0.68211   0.82118   0.43407   0.00000  Uiso   1.00
C1838  C     0.68755   0.78028   0.37693   0.00000  Uiso   1.00
H1839  H     0.68057   0.75014   0.39519   0.00000  Uiso   1.00
H1840  H     0.72275   0.78499   0.37665   0.00000  Uiso   1.00
H1841  H     0.67532   0.77781   0.34209   0.00000  Uiso   1.00
O1842  O     0.94531   0.62161   0.56305   0.00000  Uiso   1.00
C1843  C     0.98369   0.60991   0.54087   0.00000  Uiso   1.00
H1844  H     0.51164   0.62445   0.55862   0.00000  Uiso   1.00
H1845  H     0.98600   0.62210   0.50610   0.00000  Uiso   1.00
C1846  C     0.98839   0.56140   0.54059   0.00000  Uiso   1.00
H1847  H     0.99475   0.54996   0.57501   0.00000  Uiso   1.00
H1848  H     0.95798   0.54662   0.52790   0.00000  Uiso   1.00
C1849  C     0.52484   0.54814   0.51026   0.00000  Uiso   1.00
H1850  H     0.51771   0.55972   0.47605   0.00000  Uiso   1.00
H1851  H     0.52770   0.51271   0.50997   0.00000  Uiso   1.00
H1852  H     0.55583   0.56223   0.52171   0.00000  Uiso   1.00
O1853  O     0.60567   0.66173   0.57973   0.00000  Uiso   1.00
C1854  C     0.63687   0.69534   0.58032   0.00000  Uiso   1.00
H1855  H     0.63112   0.71504   0.61051   0.00000  Uiso   1.00
H1856  H     0.63297   0.71720   0.55118   0.00000  Uiso   1.00
C1857  C     0.68328   0.67808   0.58262   0.00000  Uiso   1.00
H1858  H     0.68633   0.65599   0.61126   0.00000  Uiso   1.00
H1859  H     0.69122   0.65993   0.55207   0.00000  Uiso   1.00
C1860  C     0.71658   0.71361   0.58591   0.00000  Uiso   1.00
H1861  H     0.72092   0.72758   0.55241   0.00000  Uiso   1.00
H1862  H     0.74758   0.69939   0.59682   0.00000  Uiso   1.00
H1863  H     0.70691   0.73892   0.60972   0.00000  Uiso   1.00
O1864  O     0.89658   0.83870   0.41765   0.00000  Uiso   1.00
C1865  C     0.93359   0.85968   0.40112   0.00000  Uiso   1.00
H1866  H     0.94617   0.83822   0.37518   0.00000  Uiso   1.00
H1867  H     0.95913   0.86458   0.42708   0.00000  Uiso   1.00
C1868  C     0.92431   0.90244   0.37829   0.00000  Uiso   1.00
H1869  H     0.90121   0.89785   0.35024   0.00000  Uiso   1.00
H1870  H     0.91097   0.92558   0.40246   0.00000  Uiso   1.00
C1871  C     0.96629   0.92101   0.36080   0.00000  Uiso   1.00
H1872  H     0.98796   0.92770   0.38922   0.00000  Uiso   1.00
H1873  H     0.96010   0.95130   0.34292   0.00000  Uiso   1.00
H1874  H     0.98239   0.89814   0.33814   0.00000  Uiso   1.00
O1875  O     0.89711   0.83574   0.58091   0.00000  Uiso   1.00
C1876  C     0.88162   0.79317   0.58585   0.00000  Uiso   1.00
H1877  H     0.90698   0.77416   0.60319   0.00000  Uiso   1.00
H1878  H     0.87452   0.77640   0.55365   0.00000  Uiso   1.00
C1879  C     0.84190   0.79263   0.61455   0.00000  Uiso   1.00
H1880  H     0.85131   0.80091   0.64927   0.00000  Uiso   1.00
H1881  H     0.81855   0.81617   0.60122   0.00000  Uiso   1.00
C1882  C     0.82168   0.74833   0.61425   0.00000  Uiso   1.00
H1883  H     0.81089   0.73950   0.58010   0.00000  Uiso   1.00
H1884  H     0.79372   0.74742   0.63685   0.00000  Uiso   1.00
H1885  H     0.84630   0.72521   0.62551   0.00000  Uiso   1.00
O1886  O     0.58710   0.65086   0.41935   0.00000  Uiso   1.00
C1887  C     0.55605   0.62189   0.40236   0.00000  Uiso   1.00
H1888  H     0.52427   0.62890   0.41741   0.00000  Uiso   1.00
H1889  H     0.56407   0.58786   0.40911   0.00000  Uiso   1.00
C1890  C     0.55385   0.62732   0.35207   0.00000  Uiso   1.00
H1891  H     0.54978   0.66151   0.34340   0.00000  Uiso   1.00
H1892  H     0.58476   0.61737   0.33739   0.00000  Uiso   1.00
C1893  C     0.51735   0.60059   0.66553   0.00000  Uiso   1.00
H1894  H     0.52412   0.56608   0.33702   0.00000  Uiso   1.00
H1895  H     0.51461   0.60713   0.62965   0.00000  Uiso   1.00
H1896  H     0.98625   0.60867   0.34752   0.00000  Uiso   1.00
O1897  O     0.63711   0.92158   0.42298   0.00000  Uiso   1.00
C1898  C     0.61442   0.96044   0.42845   0.00000  Uiso   1.00
H1899  H     0.62081   0.98036   0.39847   0.00000  Uiso   1.00
H1900  H     0.62641   0.97951   0.45739   0.00000  Uiso   1.00
C1901  C     0.56579   0.95280   0.43297   0.00000  Uiso   1.00
H1902  H     0.55582   0.92431   0.41330   0.00000  Uiso   1.00
H1903  H     0.55819   0.94644   0.46849   0.00000  Uiso   1.00
C1904  C     0.54077   0.99162   0.41700   0.00000  Uiso   1.00
H1905  H     0.55692   0.52100   0.42921   0.00000  Uiso   1.00
H1906  H     0.50743   0.99025   0.42996   0.00000  Uiso   1.00
H1907  H     0.53982   0.99245   0.38012   0.00000  Uiso   1.00
O1908  O     0.87450   0.56993   0.57438   0.00000  Uiso   1.00
C1909  C     0.84658   0.59089   0.60403   0.00000  Uiso   1.00
H1910  H     0.83659   0.56667   0.62894   0.00000  Uiso   1.00
H1911  H     0.81729   0.60341   0.58678   0.00000  Uiso   1.00
C1912  C     0.86779   0.62832   0.62888   0.00000  Uiso   1.00
H1913  H     0.89631   0.61693   0.64784   0.00000  Uiso   1.00
H1914  H     0.87832   0.65367   0.60541   0.00000  Uiso   1.00
C1915  C     0.83512   0.64836   0.65983   0.00000  Uiso   1.00
H1916  H     0.80794   0.66217   0.64035   0.00000  Uiso   1.00
H1917  H     0.85100   0.67393   0.34619   0.00000  Uiso   1.00
H1918  H     0.82144   0.62411   0.34894   0.00000  Uiso   1.00
O1919  O     0.84478   0.59560   0.41829   0.00000  Uiso   1.00
C1920  C     0.86816   0.55858   0.40564   0.00000  Uiso   1.00
H1921  H     0.85444   0.54745   0.37330   0.00000  Uiso   1.00
H1922  H     0.86405   0.53154   0.42942   0.00000  Uiso   1.00
C1923  C     0.91648   0.56721   0.40013   0.00000  Uiso   1.00
H1924  H     0.92153   0.59728   0.38127   0.00000  Uiso   1.00
H1925  H     0.93229   0.57084   0.43338   0.00000  Uiso   1.00
C1926  C     0.93706   0.52977   0.37625   0.00000  Uiso   1.00
H1927  H     0.93030   0.99971   0.39474   0.00000  Uiso   1.00
H1928  H     0.97226   0.53442   0.37539   0.00000  Uiso   1.00
H1929  H     0.92434   0.52715   0.34158   0.00000  Uiso   1.00
O1930  O     0.69526   0.87165   0.56302   0.00000  Uiso   1.00
C1931  C     0.73360   0.85990   0.54079   0.00000  Uiso   1.00
H1932  H     0.76157   0.87449   0.55846   0.00000  Uiso   1.00
H1933  H     0.73585   0.87201   0.50598   0.00000  Uiso   1.00
C1934  C     0.73830   0.81140   0.54063   0.00000  Uiso   1.00
H1935  H     0.74466   0.80003   0.57508   0.00000  Uiso   1.00
H1936  H     0.70788   0.79659   0.52798   0.00000  Uiso   1.00
C1937  C     0.77474   0.79807   0.51033   0.00000  Uiso   1.00
H1938  H     0.76761   0.80958   0.47610   0.00000  Uiso   1.00
H1939  H     0.77761   0.76264   0.51013   0.00000  Uiso   1.00
H1940  H     0.80573   0.81218   0.52175   0.00000  Uiso   1.00
O1941  O     0.85576   0.91177   0.57969   0.00000  Uiso   1.00
C1942  C     0.88701   0.94533   0.58018   0.00000  Uiso   1.00
H1943  H     0.88140   0.96503   0.61038   0.00000  Uiso   1.00
H1944  H     0.88305   0.96720   0.55105   0.00000  Uiso   1.00
C1945  C     0.93341   0.92801   0.58230   0.00000  Uiso   1.00
H1946  H     0.93652   0.90586   0.61088   0.00000  Uiso   1.00
H1947  H     0.94125   0.90992   0.55168   0.00000  Uiso   1.00
C1948  C     0.96677   0.96348   0.58559   0.00000  Uiso   1.00
H1949  H     0.97104   0.97754   0.55211   0.00000  Uiso   1.00
H1950  H     0.99778   0.94919   0.59636   0.00000  Uiso   1.00
H1951  H     0.95721   0.98875   0.60950   0.00000  Uiso   1.00
O1952  O     0.64673   0.58884   0.41766   0.00000  Uiso   1.00
C1953  C     0.68372   0.60988   0.40115   0.00000  Uiso   1.00
H1954  H     0.69624   0.58853   0.37507   0.00000  Uiso   1.00
H1955  H     0.70932   0.61462   0.42709   0.00000  Uiso   1.00
C1956  C     0.67442   0.65276   0.37858   0.00000  Uiso   1.00
H1957  H     0.65122   0.64833   0.35059   0.00000  Uiso   1.00
H1958  H     0.66119   0.67581   0.40290   0.00000  Uiso   1.00
C1959  C     0.71636   0.67137   0.36105   0.00000  Uiso   1.00
H1960  H     0.73808   0.67798   0.38946   0.00000  Uiso   1.00
H1961  H     0.71014   0.70172   0.34328   0.00000  Uiso   1.00
H1962  H     0.73243   0.64857   0.33830   0.00000  Uiso   1.00
O1963  O     0.64713   0.58576   0.58092   0.00000  Uiso   1.00
C1964  C     0.63164   0.54319   0.58584   0.00000  Uiso   1.00
H1965  H     0.65698   0.52418   0.60320   0.00000  Uiso   1.00
H1966  H     0.62456   0.52643   0.55363   0.00000  Uiso   1.00
C1967  C     0.59189   0.54264   0.61451   0.00000  Uiso   1.00
H1968  H     0.60128   0.55092   0.64924   0.00000  Uiso   1.00
H1969  H     0.56856   0.56619   0.60117   0.00000  Uiso   1.00
C1970  C     0.57168   0.99834   0.61417   0.00000  Uiso   1.00
H1971  H     0.56101   0.98948   0.57999   0.00000  Uiso   1.00
H1972  H     0.54364   0.99745   0.63666   0.00000  Uiso   1.00
H1973  H     0.59626   0.97523   0.62555   0.00000  Uiso   1.00
O1974  O     0.83697   0.90076   0.41934   0.00000  Uiso   1.00
C1975  C     0.80593   0.87180   0.40231   0.00000  Uiso   1.00
H1976  H     0.77414   0.87881   0.41735   0.00000  Uiso   1.00
H1977  H     0.81393   0.83776   0.40904   0.00000  Uiso   1.00
C1978  C     0.80376   0.87730   0.35202   0.00000  Uiso   1.00
H1979  H     0.79976   0.91150   0.34340   0.00000  Uiso   1.00
H1980  H     0.83467   0.86732   0.33736   0.00000  Uiso   1.00
C1981  C     0.76725   0.85065   0.66538   0.00000  Uiso   1.00
H1982  H     0.77393   0.81612   0.33683   0.00000  Uiso   1.00
H1983  H     0.76461   0.85724   0.62951   0.00000  Uiso   1.00
H1984  H     0.73613   0.85879   0.34729   0.00000  Uiso   1.00
O1985  O     0.04580   0.20419   0.87154   0.00000  Uiso   1.00
O1986  O     0.45419   0.29581   0.79513   0.00000  Uiso   1.00
O1987  O     0.45419   0.29581   0.87154   0.00000  Uiso   1.00
O1988  O     0.04580   0.20419   0.79513   0.00000  Uiso   1.00
O1989  O     0.45419   0.20419   0.79513   0.00000  Uiso   1.00
O1990  O     0.04580   0.29581   0.87154   0.00000  Uiso   1.00
O1991  O     0.04580   0.29581   0.79513   0.00000  Uiso   1.00
O1992  O     0.45419   0.20419   0.87154   0.00000  Uiso   1.00
O1993  O     0.29580   0.45419   0.87154   0.00000  Uiso   1.00
O1994  O     0.20419   0.04581   0.79513   0.00000  Uiso   1.00
O1995  O     0.20419   0.04581   0.87154   0.00000  Uiso   1.00
O1996  O     0.29580   0.45419   0.79513   0.00000  Uiso   1.00
O1997  O     0.20419   0.45419   0.79513   0.00000  Uiso   1.00
O1998  O     0.29580   0.04581   0.87154   0.00000  Uiso   1.00
O1999  O     0.29580   0.04581   0.79513   0.00000  Uiso   1.00
O2000  O     0.20419   0.45419   0.87154   0.00000  Uiso   1.00
C2001  C     0.05985   0.18986   0.83343   0.00000  Uiso   1.00
C2002  C     0.43852   0.30846   0.83306   0.00000  Uiso   1.00
C2003  C     0.44032   0.18999   0.83301   0.00000  Uiso   1.00
C2004  C     0.06205   0.30810   0.83342   0.00000  Uiso   1.00
C2005  C     0.30984   0.43985   0.83343   0.00000  Uiso   1.00
C2006  C     0.18854   0.05848   0.83307   0.00000  Uiso   1.00
C2007  C     0.19028   0.44003   0.83302   0.00000  Uiso   1.00
C2008  C     0.31207   0.05808   0.83342   0.00000  Uiso   1.00
N2009  N     0.00000   0.25000   0.95240   0.00000  Uiso   1.00
N2010  N    -0.00000   0.25000   0.71427   0.00000  Uiso   1.00
N2011  N     0.25000   0.00000   0.95240   0.00000  Uiso   1.00
N2012  N     0.25000   0.00000   0.71427   0.00000  Uiso   1.00
Zn2013 Zn   -0.00000   0.25000   0.88437   0.00000  Uiso   1.00
Zn2014 Zn    0.00000   0.25000   0.78229   0.00000  Uiso   1.00
Zn2015 Zn    0.25000   0.00000   0.88437   0.00000  Uiso   1.00
Zn2016 Zn    0.25000   0.00000   0.78229   0.00000  Uiso   1.00
C2017  C     0.00974   0.28615   0.69046   0.00000  Uiso   1.00
C2018  C     0.48842   0.21433   0.97620   0.00000  Uiso   1.00
C2019  C     0.48696   0.21481   0.69038   0.00000  Uiso   1.00
C2020  C     0.00667   0.28683   0.97636   0.00000  Uiso   1.00
C2021  C     0.25973   0.03616   0.69046   0.00000  Uiso   1.00
C2022  C     0.23839   0.46434   0.97620   0.00000  Uiso   1.00
C2023  C     0.23694   0.46482   0.69038   0.00000  Uiso   1.00
C2024  C     0.25667   0.03683   0.97636   0.00000  Uiso   1.00
C2025  C     0.38411   0.14668   0.79431   0.00000  Uiso   1.00
C2026  C     0.12727   0.34427   0.86951   0.00000  Uiso   1.00
C2027  C     0.10869   0.35995   0.79284   0.00000  Uiso   1.00
C2028  C     0.41150   0.12330   0.86589   0.00000  Uiso   1.00
C2029  C     0.10914   0.13932   0.87348   0.00000  Uiso   1.00
C2030  C     0.38559   0.35525   0.79205   0.00000  Uiso   1.00
C2031  C     0.38418   0.35232   0.87333   0.00000  Uiso   1.00
C2032  C     0.10303   0.13576   0.79282   0.00000  Uiso   1.00
C2033  C     0.13391   0.39688   0.79440   0.00000  Uiso   1.00
C2034  C     0.37733   0.09421   0.86950   0.00000  Uiso   1.00
C2035  C     0.35888   0.10976   0.79277   0.00000  Uiso   1.00
C2036  C     0.16142   0.37337   0.86590   0.00000  Uiso   1.00
C2037  C     0.35913   0.38930   0.87346   0.00000  Uiso   1.00
C2038  C     0.13571   0.10536   0.79206   0.00000  Uiso   1.00
C2039  C     0.13422   0.10236   0.87334   0.00000  Uiso   1.00
C2040  C     0.35290   0.38566   0.79281   0.00000  Uiso   1.00
C2041  C     0.09921   0.33794   0.83259   0.00000  Uiso   1.00
C2042  C     0.41031   0.15407   0.83183   0.00000  Uiso   1.00
C2043  C     0.40204   0.33845   0.83260   0.00000  Uiso   1.00
C2044  C     0.09129   0.15487   0.83330   0.00000  Uiso   1.00
C2045  C     0.34930   0.08785   0.83257   0.00000  Uiso   1.00
C2046  C     0.16021   0.40418   0.83186   0.00000  Uiso   1.00
C2047  C     0.15210   0.08851   0.83261   0.00000  Uiso   1.00
C2048  C     0.34124   0.40482   0.83329   0.00000  Uiso   1.00
F2049  F     0.01995   0.32266   0.71246   0.00000  Uiso   1.00
F2050  F     0.47629   0.17841   0.95433   0.00000  Uiso   1.00
F2051  F     0.47205   0.17989   0.71217   0.00000  Uiso   1.00
F2052  F     0.00661   0.32499   0.95500   0.00000  Uiso   1.00
F2053  F     0.26994   0.07266   0.71246   0.00000  Uiso   1.00
F2054  F     0.22622   0.42843   0.95433   0.00000  Uiso   1.00
F2055  F     0.22200   0.42991   0.71217   0.00000  Uiso   1.00
F2056  F     0.25663   0.07499   0.95500   0.00000  Uiso   1.00
O2057  O     0.38732   0.17134   0.75619   0.00000  Uiso   1.00
C2058  C     0.36469   0.21024   0.76163   0.00000  Uiso   1.00
H2059  H     0.37104   0.23011   0.73160   0.00000  Uiso   1.00
H2060  H     0.37673   0.22937   0.79051   0.00000  Uiso   1.00
C2061  C     0.31607   0.20268   0.76628   0.00000  Uiso   1.00
H2062  H     0.30597   0.17430   0.74651   0.00000  Uiso   1.00
H2063  H     0.30856   0.19619   0.80180   0.00000  Uiso   1.00
C2064  C     0.29112   0.24165   0.75060   0.00000  Uiso   1.00
H2065  H     0.30737   0.27092   0.76298   0.00000  Uiso   1.00
H2066  H     0.25781   0.24026   0.76362   0.00000  Uiso   1.00
H2067  H     0.29011   0.24270   0.71373   0.00000  Uiso   1.00
O2068  O     0.12448   0.31995   0.90770   0.00000  Uiso   1.00
C2069  C     0.09657   0.34086   0.93740   0.00000  Uiso   1.00
H2070  H     0.08652   0.31658   0.96221   0.00000  Uiso   1.00
H2071  H     0.06730   0.35346   0.92016   0.00000  Uiso   1.00
C2072  C     0.11783   0.37817   0.96242   0.00000  Uiso   1.00
H2073  H     0.14618   0.36659   0.98154   0.00000  Uiso   1.00
H2074  H     0.12862   0.40349   0.93905   0.00000  Uiso   1.00
C2075  C     0.08509   0.39834   0.99320   0.00000  Uiso   1.00
H2076  H     0.05803   0.41220   0.97359   0.00000  Uiso   1.00
H2077  H     0.10096   0.42388   0.67961   0.00000  Uiso   1.00
H2078  H     0.07124   0.37415   0.68226   0.00000  Uiso   1.00
O2079  O     0.09469   0.34577   0.75166   0.00000  Uiso   1.00
C2080  C     0.11826   0.30888   0.73897   0.00000  Uiso   1.00
H2081  H     0.10486   0.29793   0.70644   0.00000  Uiso   1.00
H2082  H     0.11396   0.28169   0.76253   0.00000  Uiso   1.00
C2083  C     0.16663   0.31761   0.73399   0.00000  Uiso   1.00
H2084  H     0.17182   0.34773   0.71527   0.00000  Uiso   1.00
H2085  H     0.18211   0.32118   0.76740   0.00000  Uiso   1.00
C2086  C     0.18755   0.28028   0.71027   0.00000  Uiso   1.00
H2087  H     0.18057   0.25014   0.72852   0.00000  Uiso   1.00
H2088  H     0.22275   0.28499   0.70998   0.00000  Uiso   1.00
H2089  H     0.17532   0.27781   0.67542   0.00000  Uiso   1.00
O2090  O     0.44531   0.12161   0.89638   0.00000  Uiso   1.00
C2091  C     0.48369   0.10991   0.87420   0.00000  Uiso   1.00
H2092  H     0.01164   0.12445   0.89196   0.00000  Uiso   1.00
H2093  H     0.48600   0.12210   0.83943   0.00000  Uiso   1.00
C2094  C     0.48839   0.06140   0.87392   0.00000  Uiso   1.00
H2095  H     0.49475   0.04996   0.90834   0.00000  Uiso   1.00
H2096  H     0.45798   0.04662   0.86124   0.00000  Uiso   1.00
C2097  C     0.02484   0.04814   0.84359   0.00000  Uiso   1.00
H2098  H     0.01771   0.05972   0.80938   0.00000  Uiso   1.00
H2099  H     0.02770   0.01271   0.84330   0.00000  Uiso   1.00
H2100  H     0.05583   0.06223   0.85504   0.00000  Uiso   1.00
O2101  O     0.10567   0.16173   0.91306   0.00000  Uiso   1.00
C2102  C     0.13687   0.19534   0.91366   0.00000  Uiso   1.00
H2103  H     0.13112   0.21504   0.94384   0.00000  Uiso   1.00
H2104  H     0.13297   0.21720   0.88451   0.00000  Uiso   1.00
C2105  C     0.18328   0.17808   0.91595   0.00000  Uiso   1.00
H2106  H     0.18633   0.15599   0.94459   0.00000  Uiso   1.00
H2107  H     0.19122   0.15993   0.88540   0.00000  Uiso   1.00
C2108  C     0.21658   0.21361   0.91925   0.00000  Uiso   1.00
H2109  H     0.22092   0.22758   0.88574   0.00000  Uiso   1.00
H2110  H     0.24758   0.19939   0.93016   0.00000  Uiso   1.00
H2111  H     0.20691   0.23892   0.94305   0.00000  Uiso   1.00
O2112  O     0.39658   0.33870   0.75098   0.00000  Uiso   1.00
C2113  C     0.43359   0.35968   0.73445   0.00000  Uiso   1.00
H2114  H     0.44617   0.33822   0.70852   0.00000  Uiso   1.00
H2115  H     0.45913   0.36458   0.76041   0.00000  Uiso   1.00
C2116  C     0.42431   0.40244   0.71162   0.00000  Uiso   1.00
H2117  H     0.40121   0.39785   0.68358   0.00000  Uiso   1.00
H2118  H     0.41097   0.42558   0.73579   0.00000  Uiso   1.00
C2119  C     0.46629   0.42101   0.69413   0.00000  Uiso   1.00
H2120  H     0.48796   0.42770   0.72255   0.00000  Uiso   1.00
H2121  H     0.46010   0.45130   0.67626   0.00000  Uiso   1.00
H2122  H     0.48239   0.39814   0.67147   0.00000  Uiso   1.00
O2123  O     0.39711   0.33574   0.91424   0.00000  Uiso   1.00
C2124  C     0.38162   0.29317   0.91918   0.00000  Uiso   1.00
H2125  H     0.40698   0.27416   0.93653   0.00000  Uiso   1.00
H2126  H     0.37452   0.27640   0.88699   0.00000  Uiso   1.00
C2127  C     0.34190   0.29263   0.94788   0.00000  Uiso   1.00
H2128  H     0.35131   0.30091   0.98261   0.00000  Uiso   1.00
H2129  H     0.31855   0.31617   0.93455   0.00000  Uiso   1.00
C2130  C     0.32168   0.24833   0.94758   0.00000  Uiso   1.00
H2131  H     0.31089   0.23950   0.91343   0.00000  Uiso   1.00
H2132  H     0.29372   0.24742   0.97018   0.00000  Uiso   1.00
H2133  H     0.34630   0.22521   0.95884   0.00000  Uiso   1.00
O2134  O     0.08710   0.15086   0.75268   0.00000  Uiso   1.00
C2135  C     0.05605   0.12189   0.73569   0.00000  Uiso   1.00
H2136  H     0.02427   0.12890   0.75075   0.00000  Uiso   1.00
H2137  H     0.06407   0.08786   0.74245   0.00000  Uiso   1.00
C2138  C     0.05385   0.12732   0.68540   0.00000  Uiso   1.00
H2139  H     0.04978   0.16151   0.67674   0.00000  Uiso   1.00
H2140  H     0.08476   0.11737   0.67073   0.00000  Uiso   1.00
C2141  C     0.01735   0.10059   0.99886   0.00000  Uiso   1.00
H2142  H     0.02412   0.06608   0.67035   0.00000  Uiso   1.00
H2143  H     0.01461   0.10713   0.96299   0.00000  Uiso   1.00
H2144  H     0.48625   0.10867   0.68085   0.00000  Uiso   1.00
O2145  O     0.13711   0.42158   0.75631   0.00000  Uiso   1.00
C2146  C     0.11442   0.46044   0.76178   0.00000  Uiso   1.00
H2147  H     0.12081   0.48036   0.73180   0.00000  Uiso   1.00
H2148  H     0.12641   0.47951   0.79072   0.00000  Uiso   1.00
C2149  C     0.06579   0.45280   0.76630   0.00000  Uiso   1.00
H2150  H     0.05582   0.42431   0.74663   0.00000  Uiso   1.00
H2151  H     0.05819   0.44644   0.80182   0.00000  Uiso   1.00
C2152  C     0.04077   0.49162   0.75033   0.00000  Uiso   1.00
H2153  H     0.05692   0.02100   0.76254   0.00000  Uiso   1.00
H2154  H     0.00743   0.49025   0.76329   0.00000  Uiso   1.00
H2155  H     0.03982   0.49245   0.71345   0.00000  Uiso   1.00
O2156  O     0.37450   0.06993   0.90772   0.00000  Uiso   1.00
C2157  C     0.34658   0.09089   0.93737   0.00000  Uiso   1.00
H2158  H     0.33659   0.06667   0.96227   0.00000  Uiso   1.00
H2159  H     0.31729   0.10341   0.92011   0.00000  Uiso   1.00
C2160  C     0.36779   0.12832   0.96221   0.00000  Uiso   1.00
H2161  H     0.39631   0.11693   0.98117   0.00000  Uiso   1.00
H2162  H     0.37832   0.15367   0.93875   0.00000  Uiso   1.00
C2163  C     0.33512   0.14836   0.99317   0.00000  Uiso   1.00
H2164  H     0.30794   0.16217   0.97368   0.00000  Uiso   1.00
H2165  H     0.35100   0.17393   0.67952   0.00000  Uiso   1.00
H2166  H     0.32144   0.12411   0.68227   0.00000  Uiso   1.00
O2167  O     0.34478   0.09560   0.75162   0.00000  Uiso   1.00
C2168  C     0.36816   0.05858   0.73897   0.00000  Uiso   1.00
H2169  H     0.35444   0.04745   0.70664   0.00000  Uiso   1.00
H2170  H     0.36405   0.03154   0.76275   0.00000  Uiso   1.00
C2171  C     0.41648   0.06721   0.73346   0.00000  Uiso   1.00
H2172  H     0.42153   0.09728   0.71461   0.00000  Uiso   1.00
H2173  H     0.43229   0.07084   0.76671   0.00000  Uiso   1.00
C2174  C     0.43706   0.02977   0.70958   0.00000  Uiso   1.00
H2175  H     0.43030   0.49971   0.72808   0.00000  Uiso   1.00
H2176  H     0.47226   0.03442   0.70873   0.00000  Uiso   1.00
H2177  H     0.42434   0.02715   0.67492   0.00000  Uiso   1.00
O2178  O     0.19526   0.37165   0.89635   0.00000  Uiso   1.00
C2179  C     0.23360   0.35990   0.87412   0.00000  Uiso   1.00
H2180  H     0.26157   0.37449   0.89179   0.00000  Uiso   1.00
H2181  H     0.23585   0.37201   0.83931   0.00000  Uiso   1.00
C2182  C     0.23830   0.31140   0.87396   0.00000  Uiso   1.00
H2183  H     0.24466   0.30003   0.90841   0.00000  Uiso   1.00
H2184  H     0.20788   0.29659   0.86132   0.00000  Uiso   1.00
C2185  C     0.27474   0.29807   0.84366   0.00000  Uiso   1.00
H2186  H     0.26761   0.30958   0.80943   0.00000  Uiso   1.00
H2187  H     0.27761   0.26264   0.84346   0.00000  Uiso   1.00
H2188  H     0.30573   0.31218   0.85508   0.00000  Uiso   1.00
O2189  O     0.35576   0.41177   0.91302   0.00000  Uiso   1.00
C2190  C     0.38701   0.44533   0.91351   0.00000  Uiso   1.00
H2191  H     0.38140   0.46503   0.94372   0.00000  Uiso   1.00
H2192  H     0.38305   0.46720   0.88438   0.00000  Uiso   1.00
C2193  C     0.43341   0.42801   0.91563   0.00000  Uiso   1.00
H2194  H     0.43652   0.40586   0.94422   0.00000  Uiso   1.00
H2195  H     0.44125   0.40992   0.88502   0.00000  Uiso   1.00
C2196  C     0.46677   0.46348   0.91892   0.00000  Uiso   1.00
H2197  H     0.47104   0.47754   0.88544   0.00000  Uiso   1.00
H2198  H     0.49778   0.44919   0.92969   0.00000  Uiso   1.00
H2199  H     0.45721   0.48875   0.94283   0.00000  Uiso   1.00
O2200  O     0.14673   0.08884   0.75099   0.00000  Uiso   1.00
C2201  C     0.18372   0.10988   0.73449   0.00000  Uiso   1.00
H2202  H     0.19624   0.08853   0.70841   0.00000  Uiso   1.00
H2203  H     0.20932   0.11462   0.76042   0.00000  Uiso   1.00
C2204  C     0.17442   0.15276   0.71191   0.00000  Uiso   1.00
H2205  H     0.15122   0.14833   0.68392   0.00000  Uiso   1.00
H2206  H     0.16119   0.17581   0.73624   0.00000  Uiso   1.00
C2207  C     0.21636   0.17137   0.69439   0.00000  Uiso   1.00
H2208  H     0.23808   0.17798   0.72279   0.00000  Uiso   1.00
H2209  H     0.21014   0.20172   0.67662   0.00000  Uiso   1.00
H2210  H     0.23243   0.14857   0.67163   0.00000  Uiso   1.00
O2211  O     0.14713   0.08576   0.91425   0.00000  Uiso   1.00
C2212  C     0.13164   0.04319   0.91917   0.00000  Uiso   1.00
H2213  H     0.15698   0.02418   0.93653   0.00000  Uiso   1.00
H2214  H     0.12456   0.02643   0.88697   0.00000  Uiso   1.00
C2215  C     0.09189   0.04264   0.94784   0.00000  Uiso   1.00
H2216  H     0.10128   0.05092   0.98258   0.00000  Uiso   1.00
H2217  H     0.06856   0.06619   0.93450   0.00000  Uiso   1.00
C2218  C     0.07168   0.49834   0.94750   0.00000  Uiso   1.00
H2219  H     0.06101   0.48948   0.91333   0.00000  Uiso   1.00
H2220  H     0.04364   0.49745   0.96999   0.00000  Uiso   1.00
H2221  H     0.09626   0.47523   0.95888   0.00000  Uiso   1.00
O2222  O     0.33697   0.40076   0.75267   0.00000  Uiso   1.00
C2223  C     0.30593   0.37180   0.73564   0.00000  Uiso   1.00
H2224  H     0.27414   0.37881   0.75068   0.00000  Uiso   1.00
H2225  H     0.31393   0.33776   0.74237   0.00000  Uiso   1.00
C2226  C     0.30376   0.37730   0.68536   0.00000  Uiso   1.00
H2227  H     0.29976   0.41150   0.67673   0.00000  Uiso   1.00
H2228  H     0.33467   0.36732   0.67069   0.00000  Uiso   1.00
C2229  C     0.26725   0.35065   0.99871   0.00000  Uiso   1.00
H2230  H     0.27393   0.31612   0.67016   0.00000  Uiso   1.00
H2231  H     0.26461   0.35724   0.96284   0.00000  Uiso   1.00
H2232  H     0.23613   0.35879   0.68062   0.00000  Uiso   1.00
O2233  O     0.54580   0.20419   0.87154   0.00000  Uiso   1.00
O2234  O     0.95419   0.29581   0.79513   0.00000  Uiso   1.00
O2235  O     0.95419   0.29581   0.87154   0.00000  Uiso   1.00
O2236  O     0.54580   0.20419   0.79513   0.00000  Uiso   1.00
O2237  O     0.95419   0.20419   0.79513   0.00000  Uiso   1.00
O2238  O     0.54580   0.29581   0.87154   0.00000  Uiso   1.00
O2239  O     0.54580   0.29581   0.79513   0.00000  Uiso   1.00
O2240  O     0.95419   0.20419   0.87154   0.00000  Uiso   1.00
O2241  O     0.79580   0.45419   0.87154   0.00000  Uiso   1.00
O2242  O     0.70419   0.04581   0.79513   0.00000  Uiso   1.00
O2243  O     0.70419   0.04581   0.87154   0.00000  Uiso   1.00
O2244  O     0.79580   0.45419   0.79513   0.00000  Uiso   1.00
O2245  O     0.70419   0.45419   0.79513   0.00000  Uiso   1.00
O2246  O     0.79580   0.04581   0.87154   0.00000  Uiso   1.00
O2247  O     0.79580   0.04581   0.79513   0.00000  Uiso   1.00
O2248  O     0.70419   0.45419   0.87154   0.00000  Uiso   1.00
C2249  C     0.55985   0.18986   0.83343   0.00000  Uiso   1.00
C2250  C     0.93852   0.30846   0.83306   0.00000  Uiso   1.00
C2251  C     0.94032   0.18999   0.83301   0.00000  Uiso   1.00
C2252  C     0.56205   0.30810   0.83342   0.00000  Uiso   1.00
C2253  C     0.80984   0.43985   0.83343   0.00000  Uiso   1.00
C2254  C     0.68854   0.05848   0.83307   0.00000  Uiso   1.00
C2255  C     0.69028   0.44003   0.83302   0.00000  Uiso   1.00
C2256  C     0.81207   0.05808   0.83342   0.00000  Uiso   1.00
N2257  N     0.50000   0.25000   0.95240   0.00000  Uiso   1.00
N2258  N     0.50000   0.25000   0.71427   0.00000  Uiso   1.00
N2259  N     0.75000   0.00000   0.95240   0.00000  Uiso   1.00
N2260  N     0.75000   0.00000   0.71427   0.00000  Uiso   1.00
Zn2261 Zn    0.50000   0.25000   0.88437   0.00000  Uiso   1.00
Zn2262 Zn    0.50000   0.25000   0.78229   0.00000  Uiso   1.00
Zn2263 Zn    0.75000   0.00000   0.88437   0.00000  Uiso   1.00
Zn2264 Zn    0.75000   0.00000   0.78229   0.00000  Uiso   1.00
C2265  C     0.50974   0.28615   0.69046   0.00000  Uiso   1.00
C2266  C     0.98842   0.21433   0.97620   0.00000  Uiso   1.00
C2267  C     0.98696   0.21481   0.69038   0.00000  Uiso   1.00
C2268  C     0.50667   0.28683   0.97636   0.00000  Uiso   1.00
C2269  C     0.75973   0.03616   0.69046   0.00000  Uiso   1.00
C2270  C     0.73839   0.46434   0.97620   0.00000  Uiso   1.00
C2271  C     0.73694   0.46482   0.69038   0.00000  Uiso   1.00
C2272  C     0.75667   0.03683   0.97636   0.00000  Uiso   1.00
C2273  C     0.88411   0.14668   0.79431   0.00000  Uiso   1.00
C2274  C     0.62727   0.34427   0.86951   0.00000  Uiso   1.00
C2275  C     0.60869   0.35995   0.79284   0.00000  Uiso   1.00
C2276  C     0.91150   0.12330   0.86589   0.00000  Uiso   1.00
C2277  C     0.60914   0.13932   0.87348   0.00000  Uiso   1.00
C2278  C     0.88559   0.35525   0.79205   0.00000  Uiso   1.00
C2279  C     0.88418   0.35232   0.87333   0.00000  Uiso   1.00
C2280  C     0.60303   0.13576   0.79282   0.00000  Uiso   1.00
C2281  C     0.63391   0.39688   0.79440   0.00000  Uiso   1.00
C2282  C     0.87733   0.09421   0.86950   0.00000  Uiso   1.00
C2283  C     0.85888   0.10976   0.79277   0.00000  Uiso   1.00
C2284  C     0.66142   0.37337   0.86590   0.00000  Uiso   1.00
C2285  C     0.85913   0.38930   0.87346   0.00000  Uiso   1.00
C2286  C     0.63571   0.10536   0.79206   0.00000  Uiso   1.00
C2287  C     0.63422   0.10236   0.87334   0.00000  Uiso   1.00
C2288  C     0.85290   0.38566   0.79281   0.00000  Uiso   1.00
C2289  C     0.59921   0.33794   0.83259   0.00000  Uiso   1.00
C2290  C     0.91031   0.15407   0.83183   0.00000  Uiso   1.00
C2291  C     0.90204   0.33845   0.83260   0.00000  Uiso   1.00
C2292  C     0.59129   0.15487   0.83330   0.00000  Uiso   1.00
C2293  C     0.84930   0.08785   0.83257   0.00000  Uiso   1.00
C2294  C     0.66021   0.40418   0.83186   0.00000  Uiso   1.00
C2295  C     0.65210   0.08851   0.83261   0.00000  Uiso   1.00
C2296  C     0.84124   0.40482   0.83329   0.00000  Uiso   1.00
F2297  F     0.51995   0.32266   0.71246   0.00000  Uiso   1.00
F2298  F     0.97629   0.17841   0.95433   0.00000  Uiso   1.00
F2299  F     0.97205   0.17989   0.71217   0.00000  Uiso   1.00
F2300  F     0.50661   0.32499   0.95500   0.00000  Uiso   1.00
F2301  F     0.76994   0.07266   0.71246   0.00000  Uiso   1.00
F2302  F     0.72622   0.42843   0.95433   0.00000  Uiso   1.00
F2303  F     0.72200   0.42991   0.71217   0.00000  Uiso   1.00
F2304  F     0.75663   0.07499   0.95500   0.00000  Uiso   1.00
O2305  O     0.88732   0.17134   0.75619   0.00000  Uiso   1.00
C2306  C     0.86469   0.21024   0.76163   0.00000  Uiso   1.00
H2307  H     0.87104   0.23011   0.73160   0.00000  Uiso   1.00
H2308  H     0.87673   0.22937   0.79051   0.00000  Uiso   1.00
C2309  C     0.81607   0.20268   0.76628   0.00000  Uiso   1.00
H2310  H     0.80597   0.17430   0.74651   0.00000  Uiso   1.00
H2311  H     0.80856   0.19619   0.80180   0.00000  Uiso   1.00
C2312  C     0.79112   0.24165   0.75060   0.00000  Uiso   1.00
H2313  H     0.80737   0.27092   0.76298   0.00000  Uiso   1.00
H2314  H     0.75781   0.24026   0.76362   0.00000  Uiso   1.00
H2315  H     0.79011   0.24270   0.71373   0.00000  Uiso   1.00
O2316  O     0.62448   0.31995   0.90770   0.00000  Uiso   1.00
C2317  C     0.59657   0.34086   0.93740   0.00000  Uiso   1.00
H2318  H     0.58652   0.31658   0.96221   0.00000  Uiso   1.00
H2319  H     0.56730   0.35346   0.92016   0.00000  Uiso   1.00
C2320  C     0.61783   0.37817   0.96242   0.00000  Uiso   1.00
H2321  H     0.64618   0.36659   0.98154   0.00000  Uiso   1.00
H2322  H     0.62862   0.40349   0.93905   0.00000  Uiso   1.00
C2323  C     0.58509   0.39834   0.99320   0.00000  Uiso   1.00
H2324  H     0.55803   0.41220   0.97359   0.00000  Uiso   1.00
H2325  H     0.60096   0.42388   0.67961   0.00000  Uiso   1.00
H2326  H     0.57124   0.37415   0.68226   0.00000  Uiso   1.00
O2327  O     0.59469   0.34577   0.75166   0.00000  Uiso   1.00
C2328  C     0.61826   0.30888   0.73897   0.00000  Uiso   1.00
H2329  H     0.60486   0.29793   0.70644   0.00000  Uiso   1.00
H2330  H     0.61396   0.28169   0.76253   0.00000  Uiso   1.00
C2331  C     0.66663   0.31761   0.73399   0.00000  Uiso   1.00
H2332  H     0.67182   0.34773   0.71527   0.00000  Uiso   1.00
H2333  H     0.68211   0.32118   0.76740   0.00000  Uiso   1.00
C2334  C     0.68755   0.28028   0.71027   0.00000  Uiso   1.00
H2335  H     0.68057   0.25014   0.72852   0.00000  Uiso   1.00
H2336  H     0.72275   0.28499   0.70998   0.00000  Uiso   1.00
H2337  H     0.67532   0.27781   0.67542   0.00000  Uiso   1.00
O2338  O     0.94531   0.12161   0.89638   0.00000  Uiso   1.00
C2339  C     0.98369   0.10991   0.87420   0.00000  Uiso   1.00
H2340  H     0.51164   0.12445   0.89196   0.00000  Uiso   1.00
H2341  H     0.98600   0.12210   0.83943   0.00000  Uiso   1.00
C2342  C     0.98839   0.06140   0.87392   0.00000  Uiso   1.00
H2343  H     0.99475   0.04996   0.90834   0.00000  Uiso   1.00
H2344  H     0.95798   0.04662   0.86124   0.00000  Uiso   1.00
C2345  C     0.52484   0.04814   0.84359   0.00000  Uiso   1.00
H2346  H     0.51771   0.05972   0.80938   0.00000  Uiso   1.00
H2347  H     0.52770   0.01271   0.84330   0.00000  Uiso   1.00
H2348  H     0.55583   0.06223   0.85504   0.00000  Uiso   1.00
O2349  O     0.60567   0.16173   0.91306   0.00000  Uiso   1.00
C2350  C     0.63687   0.19534   0.91366   0.00000  Uiso   1.00
H2351  H     0.63112   0.21504   0.94384   0.00000  Uiso   1.00
H2352  H     0.63297   0.21720   0.88451   0.00000  Uiso   1.00
C2353  C     0.68328   0.17808   0.91595   0.00000  Uiso   1.00
H2354  H     0.68633   0.15599   0.94459   0.00000  Uiso   1.00
H2355  H     0.69122   0.15993   0.88540   0.00000  Uiso   1.00
C2356  C     0.71658   0.21361   0.91925   0.00000  Uiso   1.00
H2357  H     0.72092   0.22758   0.88574   0.00000  Uiso   1.00
H2358  H     0.74758   0.19939   0.93016   0.00000  Uiso   1.00
H2359  H     0.70691   0.23892   0.94305   0.00000  Uiso   1.00
O2360  O     0.89658   0.33870   0.75098   0.00000  Uiso   1.00
C2361  C     0.93359   0.35968   0.73445   0.00000  Uiso   1.00
H2362  H     0.94617   0.33822   0.70852   0.00000  Uiso   1.00
H2363  H     0.95913   0.36458   0.76041   0.00000  Uiso   1.00
C2364  C     0.92431   0.40244   0.71162   0.00000  Uiso   1.00
H2365  H     0.90121   0.39785   0.68358   0.00000  Uiso   1.00
H2366  H     0.91097   0.42558   0.73579   0.00000  Uiso   1.00
C2367  C     0.96629   0.42101   0.69413   0.00000  Uiso   1.00
H2368  H     0.98796   0.42770   0.72255   0.00000  Uiso   1.00
H2369  H     0.96010   0.45130   0.67626   0.00000  Uiso   1.00
H2370  H     0.98239   0.39814   0.67147   0.00000  Uiso   1.00
O2371  O     0.89711   0.33574   0.91424   0.00000  Uiso   1.00
C2372  C     0.88162   0.29317   0.91918   0.00000  Uiso   1.00
H2373  H     0.90698   0.27416   0.93653   0.00000  Uiso   1.00
H2374  H     0.87452   0.27640   0.88699   0.00000  Uiso   1.00
C2375  C     0.84190   0.29263   0.94788   0.00000  Uiso   1.00
H2376  H     0.85131   0.30091   0.98261   0.00000  Uiso   1.00
H2377  H     0.81855   0.31617   0.93455   0.00000  Uiso   1.00
C2378  C     0.82168   0.24833   0.94758   0.00000  Uiso   1.00
H2379  H     0.81089   0.23950   0.91343   0.00000  Uiso   1.00
H2380  H     0.79372   0.24742   0.97018   0.00000  Uiso   1.00
H2381  H     0.84630   0.22521   0.95884   0.00000  Uiso   1.00
O2382  O     0.58710   0.15086   0.75268   0.00000  Uiso   1.00
C2383  C     0.55605   0.12189   0.73569   0.00000  Uiso   1.00
H2384  H     0.52427   0.12890   0.75075   0.00000  Uiso   1.00
H2385  H     0.56407   0.08786   0.74245   0.00000  Uiso   1.00
C2386  C     0.55385   0.12732   0.68540   0.00000  Uiso   1.00
H2387  H     0.54978   0.16151   0.67674   0.00000  Uiso   1.00
H2388  H     0.58476   0.11737   0.67073   0.00000  Uiso   1.00
C2389  C     0.51735   0.10059   0.99886   0.00000  Uiso   1.00
H2390  H     0.52412   0.06608   0.67035   0.00000  Uiso   1.00
H2391  H     0.51461   0.10713   0.96299   0.00000  Uiso   1.00
H2392  H     0.98625   0.10867   0.68085   0.00000  Uiso   1.00
O2393  O     0.63711   0.42158   0.75631   0.00000  Uiso   1.00
C2394  C     0.61442   0.46044   0.76178   0.00000  Uiso   1.00
H2395  H     0.62081   0.48036   0.73180   0.00000  Uiso   1.00
H2396  H     0.62641   0.47951   0.79072   0.00000  Uiso   1.00
C2397  C     0.56579   0.45280   0.76630   0.00000  Uiso   1.00
H2398  H     0.55582   0.42431   0.74663   0.00000  Uiso   1.00
H2399  H     0.55819   0.44644   0.80182   0.00000  Uiso   1.00
C2400  C     0.54077   0.49162   0.75033   0.00000  Uiso   1.00
H2401  H     0.55692   0.02100   0.76254   0.00000  Uiso   1.00
H2402  H     0.50743   0.49025   0.76329   0.00000  Uiso   1.00
H2403  H     0.53982   0.49245   0.71345   0.00000  Uiso   1.00
O2404  O     0.87450   0.06993   0.90772   0.00000  Uiso   1.00
C2405  C     0.84658   0.09089   0.93737   0.00000  Uiso   1.00
H2406  H     0.83659   0.06667   0.96227   0.00000  Uiso   1.00
H2407  H     0.81729   0.10341   0.92011   0.00000  Uiso   1.00
C2408  C     0.86779   0.12832   0.96221   0.00000  Uiso   1.00
H2409  H     0.89631   0.11693   0.98117   0.00000  Uiso   1.00
H2410  H     0.87832   0.15367   0.93875   0.00000  Uiso   1.00
C2411  C     0.83512   0.14836   0.99317   0.00000  Uiso   1.00
H2412  H     0.80794   0.16217   0.97368   0.00000  Uiso   1.00
H2413  H     0.85100   0.17393   0.67952   0.00000  Uiso   1.00
H2414  H     0.82144   0.12411   0.68227   0.00000  Uiso   1.00
O2415  O     0.84478   0.09560   0.75162   0.00000  Uiso   1.00
C2416  C     0.86816   0.05858   0.73897   0.00000  Uiso   1.00
H2417  H     0.85444   0.04745   0.70664   0.00000  Uiso   1.00
H2418  H     0.86405   0.03154   0.76275   0.00000  Uiso   1.00
C2419  C     0.91648   0.06721   0.73346   0.00000  Uiso   1.00
H2420  H     0.92153   0.09728   0.71461   0.00000  Uiso   1.00
H2421  H     0.93229   0.07084   0.76671   0.00000  Uiso   1.00
C2422  C     0.93706   0.02977   0.70958   0.00000  Uiso   1.00
H2423  H     0.93030   0.49971   0.72808   0.00000  Uiso   1.00
H2424  H     0.97226   0.03442   0.70873   0.00000  Uiso   1.00
H2425  H     0.92434   0.02715   0.67492   0.00000  Uiso   1.00
O2426  O     0.69526   0.37165   0.89635   0.00000  Uiso   1.00
C2427  C     0.73360   0.35990   0.87412   0.00000  Uiso   1.00
H2428  H     0.76157   0.37449   0.89179   0.00000  Uiso   1.00
H2429  H     0.73585   0.37201   0.83931   0.00000  Uiso   1.00
C2430  C     0.73830   0.31140   0.87396   0.00000  Uiso   1.00
H2431  H     0.74466   0.30003   0.90841   0.00000  Uiso   1.00
H2432  H     0.70788   0.29659   0.86132   0.00000  Uiso   1.00
C2433  C     0.77474   0.29807   0.84366   0.00000  Uiso   1.00
H2434  H     0.76761   0.30958   0.80943   0.00000  Uiso   1.00
H2435  H     0.77761   0.26264   0.84346   0.00000  Uiso   1.00
H2436  H     0.80573   0.31218   0.85508   0.00000  Uiso   1.00
O2437  O     0.85576   0.41177   0.91302   0.00000  Uiso   1.00
C2438  C     0.88701   0.44533   0.91351   0.00000  Uiso   1.00
H2439  H     0.88140   0.46503   0.94372   0.00000  Uiso   1.00
H2440  H     0.88305   0.46720   0.88438   0.00000  Uiso   1.00
C2441  C     0.93341   0.42801   0.91563   0.00000  Uiso   1.00
H2442  H     0.93652   0.40586   0.94422   0.00000  Uiso   1.00
H2443  H     0.94125   0.40992   0.88502   0.00000  Uiso   1.00
C2444  C     0.96677   0.46348   0.91892   0.00000  Uiso   1.00
H2445  H     0.97104   0.47754   0.88544   0.00000  Uiso   1.00
H2446  H     0.99778   0.44919   0.92969   0.00000  Uiso   1.00
H2447  H     0.95721   0.48875   0.94283   0.00000  Uiso   1.00
O2448  O     0.64673   0.08884   0.75099   0.00000  Uiso   1.00
C2449  C     0.68372   0.10988   0.73449   0.00000  Uiso   1.00
H2450  H     0.69624   0.08853   0.70841   0.00000  Uiso   1.00
H2451  H     0.70932   0.11462   0.76042   0.00000  Uiso   1.00
C2452  C     0.67442   0.15276   0.71191   0.00000  Uiso   1.00
H2453  H     0.65122   0.14833   0.68392   0.00000  Uiso   1.00
H2454  H     0.66119   0.17581   0.73624   0.00000  Uiso   1.00
C2455  C     0.71636   0.17137   0.69439   0.00000  Uiso   1.00
H2456  H     0.73808   0.17798   0.72279   0.00000  Uiso   1.00
H2457  H     0.71014   0.20172   0.67662   0.00000  Uiso   1.00
H2458  H     0.73243   0.14857   0.67163   0.00000  Uiso   1.00
O2459  O     0.64713   0.08576   0.91425   0.00000  Uiso   1.00
C2460  C     0.63164   0.04319   0.91917   0.00000  Uiso   1.00
H2461  H     0.65698   0.02418   0.93653   0.00000  Uiso   1.00
H2462  H     0.62456   0.02643   0.88697   0.00000  Uiso   1.00
C2463  C     0.59189   0.04264   0.94784   0.00000  Uiso   1.00
H2464  H     0.60128   0.05092   0.98258   0.00000  Uiso   1.00
H2465  H     0.56856   0.06619   0.93450   0.00000  Uiso   1.00
C2466  C     0.57168   0.49834   0.94750   0.00000  Uiso   1.00
H2467  H     0.56101   0.48948   0.91333   0.00000  Uiso   1.00
H2468  H     0.54364   0.49745   0.96999   0.00000  Uiso   1.00
H2469  H     0.59626   0.47523   0.95888   0.00000  Uiso   1.00
O2470  O     0.83697   0.40076   0.75267   0.00000  Uiso   1.00
C2471  C     0.80593   0.37180   0.73564   0.00000  Uiso   1.00
H2472  H     0.77414   0.37881   0.75068   0.00000  Uiso   1.00
H2473  H     0.81393   0.33776   0.74237   0.00000  Uiso   1.00
C2474  C     0.80376   0.37730   0.68536   0.00000  Uiso   1.00
H2475  H     0.79976   0.41150   0.67673   0.00000  Uiso   1.00
H2476  H     0.83467   0.36732   0.67069   0.00000  Uiso   1.00
C2477  C     0.76725   0.35065   0.99871   0.00000  Uiso   1.00
H2478  H     0.77393   0.31612   0.67016   0.00000  Uiso   1.00
H2479  H     0.76461   0.35724   0.96284   0.00000  Uiso   1.00
H2480  H     0.73613   0.35879   0.68062   0.00000  Uiso   1.00
O2481  O     0.04580   0.70419   0.87154   0.00000  Uiso   1.00
O2482  O     0.45419   0.79581   0.79513   0.00000  Uiso   1.00
O2483  O     0.45419   0.79581   0.87154   0.00000  Uiso   1.00
O2484  O     0.04580   0.70419   0.79513   0.00000  Uiso   1.00
O2485  O     0.45419   0.70419   0.79513   0.00000  Uiso   1.00
O2486  O     0.04580   0.79581   0.87154   0.00000  Uiso   1.00
O2487  O     0.04580   0.79581   0.79513   0.00000  Uiso   1.00
O2488  O     0.45419   0.70419   0.87154   0.00000  Uiso   1.00
O2489  O     0.29580   0.95419   0.87154   0.00000  Uiso   1.00
O2490  O     0.20419   0.54581   0.79513   0.00000  Uiso   1.00
O2491  O     0.20419   0.54581   0.87154   0.00000  Uiso   1.00
O2492  O     0.29580   0.95419   0.79513   0.00000  Uiso   1.00
O2493  O     0.20419   0.95419   0.79513   0.00000  Uiso   1.00
O2494  O     0.29580   0.54581   0.87154   0.00000  Uiso   1.00
O2495  O     0.29580   0.54581   0.79513   0.00000  Uiso   1.00
O2496  O     0.20419   0.95419   0.87154   0.00000  Uiso   1.00
C2497  C     0.05985   0.68986   0.83343   0.00000  Uiso   1.00
C2498  C     0.43852   0.80846   0.83306   0.00000  Uiso   1.00
C2499  C     0.44032   0.68999   0.83301   0.00000  Uiso   1.00
C2500  C     0.06205   0.80810   0.83342   0.00000  Uiso   1.00
C2501  C     0.30984   0.93985   0.83343   0.00000  Uiso   1.00
C2502  C     0.18854   0.55848   0.83307   0.00000  Uiso   1.00
C2503  C     0.19028   0.94003   0.83302   0.00000  Uiso   1.00
C2504  C     0.31207   0.55808   0.83342   0.00000  Uiso   1.00
N2505  N     0.00000   0.75000   0.95240   0.00000  Uiso   1.00
N2506  N    -0.00000   0.75000   0.71427   0.00000  Uiso   1.00
N2507  N     0.25000   0.50000   0.95240   0.00000  Uiso   1.00
N2508  N     0.25000   0.50000   0.71427   0.00000  Uiso   1.00
Zn2509 Zn   -0.00000   0.75000   0.88437   0.00000  Uiso   1.00
Zn2510 Zn    0.00000   0.75000   0.78229   0.00000  Uiso   1.00
Zn2511 Zn    0.25000   0.50000   0.88437   0.00000  Uiso   1.00
Zn2512 Zn    0.25000   0.50000   0.78229   0.00000  Uiso   1.00
C2513  C     0.00974   0.78615   0.69046   0.00000  Uiso   1.00
C2514  C     0.48842   0.71433   0.97620   0.00000  Uiso   1.00
C2515  C     0.48696   0.71481   0.69038   0.00000  Uiso   1.00
C2516  C     0.00667   0.78683   0.97636   0.00000  Uiso   1.00
C2517  C     0.25973   0.53616   0.69046   0.00000  Uiso   1.00
C2518  C     0.23839   0.96434   0.97620   0.00000  Uiso   1.00
C2519  C     0.23694   0.96482   0.69038   0.00000  Uiso   1.00
C2520  C     0.25667   0.53683   0.97636   0.00000  Uiso   1.00
C2521  C     0.38411   0.64668   0.79431   0.00000  Uiso   1.00
C2522  C     0.12727   0.84427   0.86951   0.00000  Uiso   1.00
C2523  C     0.10869   0.85995   0.79284   0.00000  Uiso   1.00
C2524  C     0.41150   0.62330   0.86589   0.00000  Uiso   1.00
C2525  C     0.10914   0.63932   0.87348   0.00000  Uiso   1.00
C2526  C     0.38559   0.85525   0.79205   0.00000  Uiso   1.00
C2527  C     0.38418   0.85232   0.87333   0.00000  Uiso   1.00
C2528  C     0.10303   0.63576   0.79282   0.00000  Uiso   1.00
C2529  C     0.13391   0.89688   0.79440   0.00000  Uiso   1.00
C2530  C     0.37733   0.59421   0.86950   0.00000  Uiso   1.00
C2531  C     0.35888   0.60976   0.79277   0.00000  Uiso   1.00
C2532  C     0.16142   0.87337   0.86590   0.00000  Uiso   1.00
C2533  C     0.35913   0.88930   0.87346   0.00000  Uiso   1.00
C2534  C     0.13571   0.60536   0.79206   0.00000  Uiso   1.00
C2535  C     0.13422   0.60236   0.87334   0.00000  Uiso   1.00
C2536  C     0.35290   0.88566   0.79281   0.00000  Uiso   1.00
C2537  C     0.09921   0.83794   0.83259   0.00000  Uiso   1.00
C2538  C     0.41031   0.65407   0.83183   0.00000  Uiso   1.00
C2539  C     0.40204   0.83845   0.83260   0.00000  Uiso   1.00
C2540  C     0.09129   0.65487   0.83330   0.00000  Uiso   1.00
C2541  C     0.34930   0.58785   0.83257   0.00000  Uiso   1.00
C2542  C     0.16021   0.90418   0.83186   0.00000  Uiso   1.00
C2543  C     0.15210   0.58851   0.83261   0.00000  Uiso   1.00
C2544  C     0.34124   0.90482   0.83329   0.00000  Uiso   1.00
F2545  F     0.01995   0.82266   0.71246   0.00000  Uiso   1.00
F2546  F     0.47629   0.67841   0.95433   0.00000  Uiso   1.00
F2547  F     0.47205   0.67989   0.71217   0.00000  Uiso   1.00
F2548  F     0.00661   0.82499   0.95500   0.00000  Uiso   1.00
F2549  F     0.26994   0.57266   0.71246   0.00000  Uiso   1.00
F2550  F     0.22622   0.92843   0.95433   0.00000  Uiso   1.00
F2551  F     0.22200   0.92991   0.71217   0.00000  Uiso   1.00
F2552  F     0.25663   0.57499   0.95500   0.00000  Uiso   1.00
O2553  O     0.38732   0.67134   0.75619   0.00000  Uiso   1.00
C2554  C     0.36469   0.71024   0.76163   0.00000  Uiso   1.00
H2555  H     0.37104   0.73011   0.73160   0.00000  Uiso   1.00
H2556  H     0.37673   0.72937   0.79051   0.00000  Uiso   1.00
C2557  C     0.31607   0.70268   0.76628   0.00000  Uiso   1.00
H2558  H     0.30597   0.67430   0.74651   0.00000  Uiso   1.00
H2559  H     0.30856   0.69619   0.80180   0.00000  Uiso   1.00
C2560  C     0.29112   0.74165   0.75060   0.00000  Uiso   1.00
H2561  H     0.30737   0.77092   0.76298   0.00000  Uiso   1.00
H2562  H     0.25781   0.74026   0.76362   0.00000  Uiso   1.00
H2563  H     0.29011   0.74270   0.71373   0.00000  Uiso   1.00
O2564  O     0.12448   0.81995   0.90770   0.00000  Uiso   1.00
C2565  C     0.09657   0.84086   0.93740   0.00000  Uiso   1.00
H2566  H     0.08652   0.81658   0.96221   0.00000  Uiso   1.00
H2567  H     0.06730   0.85346   0.92016   0.00000  Uiso   1.00
C2568  C     0.11783   0.87817   0.96242   0.00000  Uiso   1.00
H2569  H     0.14618   0.86659   0.98154   0.00000  Uiso   1.00
H2570  H     0.12862   0.90349   0.93905   0.00000  Uiso   1.00
C2571  C     0.08509   0.89834   0.99320   0.00000  Uiso   1.00
H2572  H     0.05803   0.91220   0.97359   0.00000  Uiso   1.00
H2573  H     0.10096   0.92388   0.67961   0.00000  Uiso   1.00
H2574  H     0.07124   0.87415   0.68226   0.00000  Uiso   1.00
O2575  O     0.09469   0.84577   0.75166   0.00000  Uiso   1.00
C2576  C     0.11826   0.80888   0.73897   0.00000  Uiso   1.00
H2577  H     0.10486   0.79793   0.70644   0.00000  Uiso   1.00
H2578  H     0.11396   0.78169   0.76253   0.00000  Uiso   1.00
C2579  C     0.16663   0.81761   0.73399   0.00000  Uiso   1.00
H2580  H     0.17182   0.84773   0.71527   0.00000  Uiso   1.00
H2581  H     0.18211   0.82118   0.76740   0.00000  Uiso   1.00
C2582  C     0.18755   0.78028   0.71027   0.00000  Uiso   1.00
H2583  H     0.18057   0.75014   0.72852   0.00000  Uiso   1.00
H2584  H     0.22275   0.78499   0.70998   0.00000  Uiso   1.00
H2585  H     0.17532   0.77781   0.67542   0.00000  Uiso   1.00
O2586  O     0.44531   0.62161   0.89638   0.00000  Uiso   1.00
C2587  C     0.48369   0.60991   0.87420   0.00000  Uiso   1.00
H2588  H     0.01164   0.62445   0.89196   0.00000  Uiso   1.00
H2589  H     0.48600   0.62210   0.83943   0.00000  Uiso   1.00
C2590  C     0.48839   0.56140   0.87392   0.00000  Uiso   1.00
H2591  H     0.49475   0.54996   0.90834   0.00000  Uiso   1.00
H2592  H     0.45798   0.54662   0.86124   0.00000  Uiso   1.00
C2593  C     0.02484   0.54814   0.84359   0.00000  Uiso   1.00
H2594  H     0.01771   0.55972   0.80938   0.00000  Uiso   1.00
H2595  H     0.02770   0.51271   0.84330   0.00000  Uiso   1.00
H2596  H     0.05583   0.56223   0.85504   0.00000  Uiso   1.00
O2597  O     0.10567   0.66173   0.91306   0.00000  Uiso   1.00
C2598  C     0.13687   0.69534   0.91366   0.00000  Uiso   1.00
H2599  H     0.13112   0.71504   0.94384   0.00000  Uiso   1.00
H2600  H     0.13297   0.71720   0.88451   0.00000  Uiso   1.00
C2601  C     0.18328   0.67808   0.91595   0.00000  Uiso   1.00
H2602  H     0.18633   0.65599   0.94459   0.00000  Uiso   1.00
H2603  H     0.19122   0.65993   0.88540   0.00000  Uiso   1.00
C2604  C     0.21658   0.71361   0.91925   0.00000  Uiso   1.00
H2605  H     0.22092   0.72758   0.88574   0.00000  Uiso   1.00
H2606  H     0.24758   0.69939   0.93016   0.00000  Uiso   1.00
H2607  H     0.20691   0.73892   0.94305   0.00000  Uiso   1.00
O2608  O     0.39658   0.83870   0.75098   0.00000  Uiso   1.00
C2609  C     0.43359   0.85968   0.73445   0.00000  Uiso   1.00
H2610  H     0.44617   0.83822   0.70852   0.00000  Uiso   1.00
H2611  H     0.45913   0.86458   0.76041   0.00000  Uiso   1.00
C2612  C     0.42431   0.90244   0.71162   0.00000  Uiso   1.00
H2613  H     0.40121   0.89785   0.68358   0.00000  Uiso   1.00
H2614  H     0.41097   0.92558   0.73579   0.00000  Uiso   1.00
C2615  C     0.46629   0.92101   0.69413   0.00000  Uiso   1.00
H2616  H     0.48796   0.92770   0.72255   0.00000  Uiso   1.00
H2617  H     0.46010   0.95130   0.67626   0.00000  Uiso   1.00
H2618  H     0.48239   0.89814   0.67147   0.00000  Uiso   1.00
O2619  O     0.39711   0.83574   0.91424   0.00000  Uiso   1.00
C2620  C     0.38162   0.79317   0.91918   0.00000  Uiso   1.00
H2621  H     0.40698   0.77416   0.93653   0.00000  Uiso   1.00
H2622  H     0.37452   0.77640   0.88699   0.00000  Uiso   1.00
C2623  C     0.34190   0.79263   0.94788   0.00000  Uiso   1.00
H2624  H     0.35131   0.80091   0.98261   0.00000  Uiso   1.00
H2625  H     0.31855   0.81617   0.93455   0.00000  Uiso   1.00
C2626  C     0.32168   0.74833   0.94758   0.00000  Uiso   1.00
H2627  H     0.31089   0.73950   0.91343   0.00000  Uiso   1.00
H2628  H     0.29372   0.74742   0.97018   0.00000  Uiso   1.00
H2629  H     0.34630   0.72521   0.95884   0.00000  Uiso   1.00
O2630  O     0.08710   0.65086   0.75268   0.00000  Uiso   1.00
C2631  C     0.05605   0.62189   0.73569   0.00000  Uiso   1.00
H2632  H     0.02427   0.62890   0.75075   0.00000  Uiso   1.00
H2633  H     0.06407   0.58786   0.74245   0.00000  Uiso   1.00
C2634  C     0.05385   0.62732   0.68540   0.00000  Uiso   1.00
H2635  H     0.04978   0.66151   0.67674   0.00000  Uiso   1.00
H2636  H     0.08476   0.61737   0.67073   0.00000  Uiso   1.00
C2637  C     0.01735   0.60059   0.99886   0.00000  Uiso   1.00
H2638  H     0.02412   0.56608   0.67035   0.00000  Uiso   1.00
H2639  H     0.01461   0.60713   0.96299   0.00000  Uiso   1.00
H2640  H     0.48625   0.60867   0.68085   0.00000  Uiso   1.00
O2641  O     0.13711   0.92158   0.75631   0.00000  Uiso   1.00
C2642  C     0.11442   0.96044   0.76178   0.00000  Uiso   1.00
H2643  H     0.12081   0.98036   0.73180   0.00000  Uiso   1.00
H2644  H     0.12641   0.97951   0.79072   0.00000  Uiso   1.00
C2645  C     0.06579   0.95280   0.76630   0.00000  Uiso   1.00
H2646  H     0.05582   0.92431   0.74663   0.00000  Uiso   1.00
H2647  H     0.05819   0.94644   0.80182   0.00000  Uiso   1.00
C2648  C     0.04077   0.99162   0.75033   0.00000  Uiso   1.00
H2649  H     0.05692   0.52100   0.76254   0.00000  Uiso   1.00
H2650  H     0.00743   0.99025   0.76329   0.00000  Uiso   1.00
H2651  H     0.03982   0.99245   0.71345   0.00000  Uiso   1.00
O2652  O     0.37450   0.56993   0.90772   0.00000  Uiso   1.00
C2653  C     0.34658   0.59089   0.93737   0.00000  Uiso   1.00
H2654  H     0.33659   0.56667   0.96227   0.00000  Uiso   1.00
H2655  H     0.31729   0.60341   0.92011   0.00000  Uiso   1.00
C2656  C     0.36779   0.62832   0.96221   0.00000  Uiso   1.00
H2657  H     0.39631   0.61693   0.98117   0.00000  Uiso   1.00
H2658  H     0.37832   0.65367   0.93875   0.00000  Uiso   1.00
C2659  C     0.33512   0.64836   0.99317   0.00000  Uiso   1.00
H2660  H     0.30794   0.66217   0.97368   0.00000  Uiso   1.00
H2661  H     0.35100   0.67393   0.67952   0.00000  Uiso   1.00
H2662  H     0.32144   0.62411   0.68227   0.00000  Uiso   1.00
O2663  O     0.34478   0.59560   0.75162   0.00000  Uiso   1.00
C2664  C     0.36816   0.55858   0.73897   0.00000  Uiso   1.00
H2665  H     0.35444   0.54745   0.70664   0.00000  Uiso   1.00
H2666  H     0.36405   0.53154   0.76275   0.00000  Uiso   1.00
C2667  C     0.41648   0.56721   0.73346   0.00000  Uiso   1.00
H2668  H     0.42153   0.59728   0.71461   0.00000  Uiso   1.00
H2669  H     0.43229   0.57084   0.76671   0.00000  Uiso   1.00
C2670  C     0.43706   0.52977   0.70958   0.00000  Uiso   1.00
H2671  H     0.43030   0.99971   0.72808   0.00000  Uiso   1.00
H2672  H     0.47226   0.53442   0.70873   0.00000  Uiso   1.00
H2673  H     0.42434   0.52715   0.67492   0.00000  Uiso   1.00
O2674  O     0.19526   0.87165   0.89635   0.00000  Uiso   1.00
C2675  C     0.23360   0.85990   0.87412   0.00000  Uiso   1.00
H2676  H     0.26157   0.87449   0.89179   0.00000  Uiso   1.00
H2677  H     0.23585   0.87201   0.83931   0.00000  Uiso   1.00
C2678  C     0.23830   0.81140   0.87396   0.00000  Uiso   1.00
H2679  H     0.24466   0.80003   0.90841   0.00000  Uiso   1.00
H2680  H     0.20788   0.79659   0.86132   0.00000  Uiso   1.00
C2681  C     0.27474   0.79807   0.84366   0.00000  Uiso   1.00
H2682  H     0.26761   0.80958   0.80943   0.00000  Uiso   1.00
H2683  H     0.27761   0.76264   0.84346   0.00000  Uiso   1.00
H2684  H     0.30573   0.81218   0.85508   0.00000  Uiso   1.00
O2685  O     0.35576   0.91177   0.91302   0.00000  Uiso   1.00
C2686  C     0.38701   0.94533   0.91351   0.00000  Uiso   1.00
H2687  H     0.38140   0.96503   0.94372   0.00000  Uiso   1.00
H2688  H     0.38305   0.96720   0.88438   0.00000  Uiso   1.00
C2689  C     0.43341   0.92801   0.91563   0.00000  Uiso   1.00
H2690  H     0.43652   0.90586   0.94422   0.00000  Uiso   1.00
H2691  H     0.44125   0.90992   0.88502   0.00000  Uiso   1.00
C2692  C     0.46677   0.96348   0.91892   0.00000  Uiso   1.00
H2693  H     0.47104   0.97754   0.88544   0.00000  Uiso   1.00
H2694  H     0.49778   0.94919   0.92969   0.00000  Uiso   1.00
H2695  H     0.45721   0.98875   0.94283   0.00000  Uiso   1.00
O2696  O     0.14673   0.58884   0.75099   0.00000  Uiso   1.00
C2697  C     0.18372   0.60988   0.73449   0.00000  Uiso   1.00
H2698  H     0.19624   0.58853   0.70841   0.00000  Uiso   1.00
H2699  H     0.20932   0.61462   0.76042   0.00000  Uiso   1.00
C2700  C     0.17442   0.65276   0.71191   0.00000  Uiso   1.00
H2701  H     0.15122   0.64833   0.68392   0.00000  Uiso   1.00
H2702  H     0.16119   0.67581   0.73624   0.00000  Uiso   1.00
C2703  C     0.21636   0.67137   0.69439   0.00000  Uiso   1.00
H2704  H     0.23808   0.67798   0.72279   0.00000  Uiso   1.00
H2705  H     0.21014   0.70172   0.67662   0.00000  Uiso   1.00
H2706  H     0.23243   0.64857   0.67163   0.00000  Uiso   1.00
O2707  O     0.14713   0.58576   0.91425   0.00000  Uiso   1.00
C2708  C     0.13164   0.54319   0.91917   0.00000  Uiso   1.00
H2709  H     0.15698   0.52418   0.93653   0.00000  Uiso   1.00
H2710  H     0.12456   0.52643   0.88697   0.00000  Uiso   1.00
C2711  C     0.09189   0.54264   0.94784   0.00000  Uiso   1.00
H2712  H     0.10128   0.55092   0.98258   0.00000  Uiso   1.00
H2713  H     0.06856   0.56619   0.93450   0.00000  Uiso   1.00
C2714  C     0.07168   0.99834   0.94750   0.00000  Uiso   1.00
H2715  H     0.06101   0.98948   0.91333   0.00000  Uiso   1.00
H2716  H     0.04364   0.99745   0.96999   0.00000  Uiso   1.00
H2717  H     0.09626   0.97523   0.95888   0.00000  Uiso   1.00
O2718  O     0.33697   0.90076   0.75267   0.00000  Uiso   1.00
C2719  C     0.30593   0.87180   0.73564   0.00000  Uiso   1.00
H2720  H     0.27414   0.87881   0.75068   0.00000  Uiso   1.00
H2721  H     0.31393   0.83776   0.74237   0.00000  Uiso   1.00
C2722  C     0.30376   0.87730   0.68536   0.00000  Uiso   1.00
H2723  H     0.29976   0.91150   0.67673   0.00000  Uiso   1.00
H2724  H     0.33467   0.86732   0.67069   0.00000  Uiso   1.00
C2725  C     0.26725   0.85065   0.99871   0.00000  Uiso   1.00
H2726  H     0.27393   0.81612   0.67016   0.00000  Uiso   1.00
H2727  H     0.26461   0.85724   0.96284   0.00000  Uiso   1.00
H2728  H     0.23613   0.85879   0.68062   0.00000  Uiso   1.00
O2729  O     0.54580   0.70419   0.87154   0.00000  Uiso   1.00
O2730  O     0.95419   0.79581   0.79513   0.00000  Uiso   1.00
O2731  O     0.95419   0.79581   0.87154   0.00000  Uiso   1.00
O2732  O     0.54580   0.70419   0.79513   0.00000  Uiso   1.00
O2733  O     0.95419   0.70419   0.79513   0.00000  Uiso   1.00
O2734  O     0.54580   0.79581   0.87154   0.00000  Uiso   1.00
O2735  O     0.54580   0.79581   0.79513   0.00000  Uiso   1.00
O2736  O     0.95419   0.70419   0.87154   0.00000  Uiso   1.00
O2737  O     0.79580   0.95419   0.87154   0.00000  Uiso   1.00
O2738  O     0.70419   0.54581   0.79513   0.00000  Uiso   1.00
O2739  O     0.70419   0.54581   0.87154   0.00000  Uiso   1.00
O2740  O     0.79580   0.95419   0.79513   0.00000  Uiso   1.00
O2741  O     0.70419   0.95419   0.79513   0.00000  Uiso   1.00
O2742  O     0.79580   0.54581   0.87154   0.00000  Uiso   1.00
O2743  O     0.79580   0.54581   0.79513   0.00000  Uiso   1.00
O2744  O     0.70419   0.95419   0.87154   0.00000  Uiso   1.00
C2745  C     0.55985   0.68986   0.83343   0.00000  Uiso   1.00
C2746  C     0.93852   0.80846   0.83306   0.00000  Uiso   1.00
C2747  C     0.94032   0.68999   0.83301   0.00000  Uiso   1.00
C2748  C     0.56205   0.80810   0.83342   0.00000  Uiso   1.00
C2749  C     0.80984   0.93985   0.83343   0.00000  Uiso   1.00
C2750  C     0.68854   0.55848   0.83307   0.00000  Uiso   1.00
C2751  C     0.69028   0.94003   0.83302   0.00000  Uiso   1.00
C2752  C     0.81207   0.55808   0.83342   0.00000  Uiso   1.00
N2753  N     0.50000   0.75000   0.95240   0.00000  Uiso   1.00
N2754  N     0.50000   0.75000   0.71427   0.00000  Uiso   1.00
N2755  N     0.75000   0.50000   0.95240   0.00000  Uiso   1.00
N2756  N     0.75000   0.50000   0.71427   0.00000  Uiso   1.00
Zn2757 Zn    0.50000   0.75000   0.88437   0.00000  Uiso   1.00
Zn2758 Zn    0.50000   0.75000   0.78229   0.00000  Uiso   1.00
Zn2759 Zn    0.75000   0.50000   0.88437   0.00000  Uiso   1.00
Zn2760 Zn    0.75000   0.50000   0.78229   0.00000  Uiso   1.00
C2761  C     0.50974   0.78615   0.69046   0.00000  Uiso   1.00
C2762  C     0.98842   0.71433   0.97620   0.00000  Uiso   1.00
C2763  C     0.98696   0.71481   0.69038   0.00000  Uiso   1.00
C2764  C     0.50667   0.78683   0.97636   0.00000  Uiso   1.00
C2765  C     0.75973   0.53616   0.69046   0.00000  Uiso   1.00
C2766  C     0.73839   0.96434   0.97620   0.00000  Uiso   1.00
C2767  C     0.73694   0.96482   0.69038   0.00000  Uiso   1.00
C2768  C     0.75667   0.53683   0.97636   0.00000  Uiso   1.00
C2769  C     0.88411   0.64668   0.79431   0.00000  Uiso   1.00
C2770  C     0.62727   0.84427   0.86951   0.00000  Uiso   1.00
C2771  C     0.60869   0.85995   0.79284   0.00000  Uiso   1.00
C2772  C     0.91150   0.62330   0.86589   0.00000  Uiso   1.00
C2773  C     0.60914   0.63932   0.87348   0.00000  Uiso   1.00
C2774  C     0.88559   0.85525   0.79205   0.00000  Uiso   1.00
C2775  C     0.88418   0.85232   0.87333   0.00000  Uiso   1.00
C2776  C     0.60303   0.63576   0.79282   0.00000  Uiso   1.00
C2777  C     0.63391   0.89688   0.79440   0.00000  Uiso   1.00
C2778  C     0.87733   0.59421   0.86950   0.00000  Uiso   1.00
C2779  C     0.85888   0.60976   0.79277   0.00000  Uiso   1.00
C2780  C     0.66142   0.87337   0.86590   0.00000  Uiso   1.00
C2781  C     0.85913   0.88930   0.87346   0.00000  Uiso   1.00
C2782  C     0.63571   0.60536   0.79206   0.00000  Uiso   1.00
C2783  C     0.63422   0.60236   0.87334   0.00000  Uiso   1.00
C2784  C     0.85290   0.88566   0.79281   0.00000  Uiso   1.00
C2785  C     0.59921   0.83794   0.83259   0.00000  Uiso   1.00
C2786  C     0.91031   0.65407   0.83183   0.00000  Uiso   1.00
C2787  C     0.90204   0.83845   0.83260   0.00000  Uiso   1.00
C2788  C     0.59129   0.65487   0.83330   0.00000  Uiso   1.00
C2789  C     0.84930   0.58785   0.83257   0.00000  Uiso   1.00
C2790  C     0.66021   0.90418   0.83186   0.00000  Uiso   1.00
C2791  C     0.65210   0.58851   0.83261   0.00000  Uiso   1.00
C2792  C     0.84124   0.90482   0.83329   0.00000  Uiso   1.00
F2793  F     0.51995   0.82266   0.71246   0.00000  Uiso   1.00
F2794  F     0.97629   0.67841   0.95433   0.00000  Uiso   1.00
F2795  F     0.97205   0.67989   0.71217   0.00000  Uiso   1.00
F2796  F     0.50661   0.82499   0.95500   0.00000  Uiso   1.00
F2797  F     0.76994   0.57266   0.71246   0.00000  Uiso   1.00
F2798  F     0.72622   0.92843   0.95433   0.00000  Uiso   1.00
F2799  F     0.72200   0.92991   0.71217   0.00000  Uiso   1.00
F2800  F     0.75663   0.57499   0.95500   0.00000  Uiso   1.00
O2801  O     0.88732   0.67134   0.75619   0.00000  Uiso   1.00
C2802  C     0.86469   0.71024   0.76163   0.00000  Uiso   1.00
H2803  H     0.87104   0.73011   0.73160   0.00000  Uiso   1.00
H2804  H     0.87673   0.72937   0.79051   0.00000  Uiso   1.00
C2805  C     0.81607   0.70268   0.76628   0.00000  Uiso   1.00
H2806  H     0.80597   0.67430   0.74651   0.00000  Uiso   1.00
H2807  H     0.80856   0.69619   0.80180   0.00000  Uiso   1.00
C2808  C     0.79112   0.74165   0.75060   0.00000  Uiso   1.00
H2809  H     0.80737   0.77092   0.76298   0.00000  Uiso   1.00
H2810  H     0.75781   0.74026   0.76362   0.00000  Uiso   1.00
H2811  H     0.79011   0.74270   0.71373   0.00000  Uiso   1.00
O2812  O     0.62448   0.81995   0.90770   0.00000  Uiso   1.00
C2813  C     0.59657   0.84086   0.93740   0.00000  Uiso   1.00
H2814  H     0.58652   0.81658   0.96221   0.00000  Uiso   1.00
H2815  H     0.56730   0.85346   0.92016   0.00000  Uiso   1.00
C2816  C     0.61783   0.87817   0.96242   0.00000  Uiso   1.00
H2817  H     0.64618   0.86659   0.98154   0.00000  Uiso   1.00
H2818  H     0.62862   0.90349   0.93905   0.00000  Uiso   1.00
C2819  C     0.58509   0.89834   0.99320   0.00000  Uiso   1.00
H2820  H     0.55803   0.91220   0.97359   0.00000  Uiso   1.00
H2821  H     0.60096   0.92388   0.67961   0.00000  Uiso   1.00
H2822  H     0.57124   0.87415   0.68226   0.00000  Uiso   1.00
O2823  O     0.59469   0.84577   0.75166   0.00000  Uiso   1.00
C2824  C     0.61826   0.80888   0.73897   0.00000  Uiso   1.00
H2825  H     0.60486   0.79793   0.70644   0.00000  Uiso   1.00
H2826  H     0.61396   0.78169   0.76253   0.00000  Uiso   1.00
C2827  C     0.66663   0.81761   0.73399   0.00000  Uiso   1.00
H2828  H     0.67182   0.84773   0.71527   0.00000  Uiso   1.00
H2829  H     0.68211   0.82118   0.76740   0.00000  Uiso   1.00
C2830  C     0.68755   0.78028   0.71027   0.00000  Uiso   1.00
H2831  H     0.68057   0.75014   0.72852   0.00000  Uiso   1.00
H2832  H     0.72275   0.78499   0.70998   0.00000  Uiso   1.00
H2833  H     0.67532   0.77781   0.67542   0.00000  Uiso   1.00
O2834  O     0.94531   0.62161   0.89638   0.00000  Uiso   1.00
C2835  C     0.98369   0.60991   0.87420   0.00000  Uiso   1.00
H2836  H     0.51164   0.62445   0.89196   0.00000  Uiso   1.00
H2837  H     0.98600   0.62210   0.83943   0.00000  Uiso   1.00
C2838  C     0.98839   0.56140   0.87392   0.00000  Uiso   1.00
H2839  H     0.99475   0.54996   0.90834   0.00000  Uiso   1.00
H2840  H     0.95798   0.54662   0.86124   0.00000  Uiso   1.00
C2841  C     0.52484   0.54814   0.84359   0.00000  Uiso   1.00
H2842  H     0.51771   0.55972   0.80938   0.00000  Uiso   1.00
H2843  H     0.52770   0.51271   0.84330   0.00000  Uiso   1.00
H2844  H     0.55583   0.56223   0.85504   0.00000  Uiso   1.00
O2845  O     0.60567   0.66173   0.91306   0.00000  Uiso   1.00
C2846  C     0.63687   0.69534   0.91366   0.00000  Uiso   1.00
H2847  H     0.63112   0.71504   0.94384   0.00000  Uiso   1.00
H2848  H     0.63297   0.71720   0.88451   0.00000  Uiso   1.00
C2849  C     0.68328   0.67808   0.91595   0.00000  Uiso   1.00
H2850  H     0.68633   0.65599   0.94459   0.00000  Uiso   1.00
H2851  H     0.69122   0.65993   0.88540   0.00000  Uiso   1.00
C2852  C     0.71658   0.71361   0.91925   0.00000  Uiso   1.00
H2853  H     0.72092   0.72758   0.88574   0.00000  Uiso   1.00
H2854  H     0.74758   0.69939   0.93016   0.00000  Uiso   1.00
H2855  H     0.70691   0.73892   0.94305   0.00000  Uiso   1.00
O2856  O     0.89658   0.83870   0.75098   0.00000  Uiso   1.00
C2857  C     0.93359   0.85968   0.73445   0.00000  Uiso   1.00
H2858  H     0.94617   0.83822   0.70852   0.00000  Uiso   1.00
H2859  H     0.95913   0.86458   0.76041   0.00000  Uiso   1.00
C2860  C     0.92431   0.90244   0.71162   0.00000  Uiso   1.00
H2861  H     0.90121   0.89785   0.68358   0.00000  Uiso   1.00
H2862  H     0.91097   0.92558   0.73579   0.00000  Uiso   1.00
C2863  C     0.96629   0.92101   0.69413   0.00000  Uiso   1.00
H2864  H     0.98796   0.92770   0.72255   0.00000  Uiso   1.00
H2865  H     0.96010   0.95130   0.67626   0.00000  Uiso   1.00
H2866  H     0.98239   0.89814   0.67147   0.00000  Uiso   1.00
O2867  O     0.89711   0.83574   0.91424   0.00000  Uiso   1.00
C2868  C     0.88162   0.79317   0.91918   0.00000  Uiso   1.00
H2869  H     0.90698   0.77416   0.93653   0.00000  Uiso   1.00
H2870  H     0.87452   0.77640   0.88699   0.00000  Uiso   1.00
C2871  C     0.84190   0.79263   0.94788   0.00000  Uiso   1.00
H2872  H     0.85131   0.80091   0.98261   0.00000  Uiso   1.00
H2873  H     0.81855   0.81617   0.93455   0.00000  Uiso   1.00
C2874  C     0.82168   0.74833   0.94758   0.00000  Uiso   1.00
H2875  H     0.81089   0.73950   0.91343   0.00000  Uiso   1.00
H2876  H     0.79372   0.74742   0.97018   0.00000  Uiso   1.00
H2877  H     0.84630   0.72521   0.95884   0.00000  Uiso   1.00
O2878  O     0.58710   0.65086   0.75268   0.00000  Uiso   1.00
C2879  C     0.55605   0.62189   0.73569   0.00000  Uiso   1.00
H2880  H     0.52427   0.62890   0.75075   0.00000  Uiso   1.00
H2881  H     0.56407   0.58786   0.74245   0.00000  Uiso   1.00
C2882  C     0.55385   0.62732   0.68540   0.00000  Uiso   1.00
H2883  H     0.54978   0.66151   0.67674   0.00000  Uiso   1.00
H2884  H     0.58476   0.61737   0.67073   0.00000  Uiso   1.00
C2885  C     0.51735   0.60059   0.99886   0.00000  Uiso   1.00
H2886  H     0.52412   0.56608   0.67035   0.00000  Uiso   1.00
H2887  H     0.51461   0.60713   0.96299   0.00000  Uiso   1.00
H2888  H     0.98625   0.60867   0.68085   0.00000  Uiso   1.00
O2889  O     0.63711   0.92158   0.75631   0.00000  Uiso   1.00
C2890  C     0.61442   0.96044   0.76178   0.00000  Uiso   1.00
H2891  H     0.62081   0.98036   0.73180   0.00000  Uiso   1.00
H2892  H     0.62641   0.97951   0.79072   0.00000  Uiso   1.00
C2893  C     0.56579   0.95280   0.76630   0.00000  Uiso   1.00
H2894  H     0.55582   0.92431   0.74663   0.00000  Uiso   1.00
H2895  H     0.55819   0.94644   0.80182   0.00000  Uiso   1.00
C2896  C     0.54077   0.99162   0.75033   0.00000  Uiso   1.00
H2897  H     0.55692   0.52100   0.76254   0.00000  Uiso   1.00
H2898  H     0.50743   0.99025   0.76329   0.00000  Uiso   1.00
H2899  H     0.53982   0.99245   0.71345   0.00000  Uiso   1.00
O2900  O     0.87450   0.56993   0.90772   0.00000  Uiso   1.00
C2901  C     0.84658   0.59089   0.93737   0.00000  Uiso   1.00
H2902  H     0.83659   0.56667   0.96227   0.00000  Uiso   1.00
H2903  H     0.81729   0.60341   0.92011   0.00000  Uiso   1.00
C2904  C     0.86779   0.62832   0.96221   0.00000  Uiso   1.00
H2905  H     0.89631   0.61693   0.98117   0.00000  Uiso   1.00
H2906  H     0.87832   0.65367   0.93875   0.00000  Uiso   1.00
C2907  C     0.83512   0.64836   0.99317   0.00000  Uiso   1.00
H2908  H     0.80794   0.66217   0.97368   0.00000  Uiso   1.00
H2909  H     0.85100   0.67393   0.67952   0.00000  Uiso   1.00
H2910  H     0.82144   0.62411   0.68227   0.00000  Uiso   1.00
O2911  O     0.84478   0.59560   0.75162   0.00000  Uiso   1.00
C2912  C     0.86816   0.55858   0.73897   0.00000  Uiso   1.00
H2913  H     0.85444   0.54745   0.70664   0.00000  Uiso   1.00
H2914  H     0.86405   0.53154   0.76275   0.00000  Uiso   1.00
C2915  C     0.91648   0.56721   0.73346   0.00000  Uiso   1.00
H2916  H     0.92153   0.59728   0.71461   0.00000  Uiso   1.00
H2917  H     0.93229   0.57084   0.76671   0.00000  Uiso   1.00
C2918  C     0.93706   0.52977   0.70958   0.00000  Uiso   1.00
H2919  H     0.93030   0.99971   0.72808   0.00000  Uiso   1.00
H2920  H     0.97226   0.53442   0.70873   0.00000  Uiso   1.00
H2921  H     0.92434   0.52715   0.67492   0.00000  Uiso   1.00
O2922  O     0.69526   0.87165   0.89635   0.00000  Uiso   1.00
C2923  C     0.73360   0.85990   0.87412   0.00000  Uiso   1.00
H2924  H     0.76157   0.87449   0.89179   0.00000  Uiso   1.00
H2925  H     0.73585   0.87201   0.83931   0.00000  Uiso   1.00
C2926  C     0.73830   0.81140   0.87396   0.00000  Uiso   1.00
H2927  H     0.74466   0.80003   0.90841   0.00000  Uiso   1.00
H2928  H     0.70788   0.79659   0.86132   0.00000  Uiso   1.00
C2929  C     0.77474   0.79807   0.84366   0.00000  Uiso   1.00
H2930  H     0.76761   0.80958   0.80943   0.00000  Uiso   1.00
H2931  H     0.77761   0.76264   0.84346   0.00000  Uiso   1.00
H2932  H     0.80573   0.81218   0.85508   0.00000  Uiso   1.00
O2933  O     0.85576   0.91177   0.91302   0.00000  Uiso   1.00
C2934  C     0.88701   0.94533   0.91351   0.00000  Uiso   1.00
H2935  H     0.88140   0.96503   0.94372   0.00000  Uiso   1.00
H2936  H     0.88305   0.96720   0.88438   0.00000  Uiso   1.00
C2937  C     0.93341   0.92801   0.91563   0.00000  Uiso   1.00
H2938  H     0.93652   0.90586   0.94422   0.00000  Uiso   1.00
H2939  H     0.94125   0.90992   0.88502   0.00000  Uiso   1.00
C2940  C     0.96677   0.96348   0.91892   0.00000  Uiso   1.00
H2941  H     0.97104   0.97754   0.88544   0.00000  Uiso   1.00
H2942  H     0.99778   0.94919   0.92969   0.00000  Uiso   1.00
H2943  H     0.95721   0.98875   0.94283   0.00000  Uiso   1.00
O2944  O     0.64673   0.58884   0.75099   0.00000  Uiso   1.00
C2945  C     0.68372   0.60988   0.73449   0.00000  Uiso   1.00
H2946  H     0.69624   0.58853   0.70841   0.00000  Uiso   1.00
H2947  H     0.70932   0.61462   0.76042   0.00000  Uiso   1.00
C2948  C     0.67442   0.65276   0.71191   0.00000  Uiso   1.00
H2949  H     0.65122   0.64833   0.68392   0.00000  Uiso   1.00
H2950  H     0.66119   0.67581   0.73624   0.00000  Uiso   1.00
C2951  C     0.71636   0.67137   0.69439   0.00000  Uiso   1.00
H2952  H     0.73808   0.67798   0.72279   0.00000  Uiso   1.00
H2953  H     0.71014   0.70172   0.67662   0.00000  Uiso   1.00
H2954  H     0.73243   0.64857   0.67163   0.00000  Uiso   1.00
O2955  O     0.64713   0.58576   0.91425   0.00000  Uiso   1.00
C2956  C     0.63164   0.54319   0.91917   0.00000  Uiso   1.00
H2957  H     0.65698   0.52418   0.93653   0.00000  Uiso   1.00
H2958  H     0.62456   0.52643   0.88697   0.00000  Uiso   1.00
C2959  C     0.59189   0.54264   0.94784   0.00000  Uiso   1.00
H2960  H     0.60128   0.55092   0.98258   0.00000  Uiso   1.00
H2961  H     0.56856   0.56619   0.93450   0.00000  Uiso   1.00
C2962  C     0.57168   0.99834   0.94750   0.00000  Uiso   1.00
H2963  H     0.56101   0.98948   0.91333   0.00000  Uiso   1.00
H2964  H     0.54364   0.99745   0.96999   0.00000  Uiso   1.00
H2965  H     0.59626   0.97523   0.95888   0.00000  Uiso   1.00
O2966  O     0.83697   0.90076   0.75267   0.00000  Uiso   1.00
C2967  C     0.80593   0.87180   0.73564   0.00000  Uiso   1.00
H2968  H     0.77414   0.87881   0.75068   0.00000  Uiso   1.00
H2969  H     0.81393   0.83776   0.74237   0.00000  Uiso   1.00
C2970  C     0.80376   0.87730   0.68536   0.00000  Uiso   1.00
H2971  H     0.79976   0.91150   0.67673   0.00000  Uiso   1.00
H2972  H     0.83467   0.86732   0.67069   0.00000  Uiso   1.00
C2973  C     0.76725   0.85065   0.99871   0.00000  Uiso   1.00
H2974  H     0.77393   0.81612   0.67016   0.00000  Uiso   1.00
H2975  H     0.76461   0.85724   0.96284   0.00000  Uiso   1.00
H2976  H     0.73613   0.85879   0.68062   0.00000  Uiso   1.00
loop_
_geom_bond_atom_site_label_1
_geom_bond_atom_site_label_2
_geom_bond_distance
_geom_bond_site_symmetry_2
_ccdc_geom_bond_type
O1     C17     1.308   .     A
O1     Zn29    2.059   .     S
O2     C18     1.305   .     A
O2     Zn278   2.059   .     S
O3     C18     1.310   .     A
O3     Zn277   2.053   .     S
O4     C17     1.305   .     A
O4     Zn30    2.053   .     S
O5     C19     1.297   .     A
O5     Zn278   2.048   .     S
O6     C20     1.311   .     A
O6     Zn29    2.048   .     S
O7     Zn30    2.042   .     S
O7     C20     1.307   .     A
O8     Zn277   2.042   .     S
O8     C19     1.306   .     A
O9     C21     1.308   .     A
O9     Zn527   2.059   .     S
O10    C22     1.305   .     A
O10    Zn32    2.059   .     S
O11    Zn31    2.053   .     S
O11    C22     1.310   .     A
O12    C21     1.305   .     A
O12    Zn528   2.053   .     S
O13    C23     1.297   .     A
O13    Zn528   2.048   .     S
O14    Zn31    2.048   .     S
O14    C24     1.312   .     A
O15    Zn32    2.042   .     S
O15    C24     1.307   .     A
O16    C23     1.306   .     A
O16    Zn527   2.042   .     S
C17    C60     1.467   .     S
C18    C59     1.472   .     S
C19    C58     1.452   .     S
C20    C57     1.477   .     S
C21    C64     1.467   .     S
C22    C63     1.472   .     S
C23    C62     1.451   .     S
C24    C61     1.477   .     S
N25    C36     1.368   .     A
N25    Zn29    2.042   .     S
N25    C282    1.369   1_455 S
N26    C283    1.367   1_455 A
N26    Zn30    2.042   .     S
N26    C33     1.368   .     S
N27    C534    1.369   1_545 A
N27    Zn31    2.042   .     S
N27    C40     1.368   .     S
N28    Zn32    2.042   .     S
N28    C37     1.368   .     A
N28    C535    1.367   1_545 S
Zn29   O256    2.042   1_455 S
Zn29   O251    2.053   1_455 S
Zn30   O253    2.048   1_455 S
Zn30   O250    2.059   1_455 S
Zn31   O512    2.042   1_545 S
Zn31   O505    2.059   1_545 S
Zn32   O509    2.048   1_545 S
Zn32   O508    2.053   1_545 S
C33    F65     1.350   .     S
C33    C2020   1.426   1_554 S
C34    F66     1.347   .     S
C34    N273    1.369   .     S
C34    C1027   1.428   .     S
C35    F67     1.351   .     S
C35    N274    1.367   .     A
C35    C2018   1.428   1_554 S
C36    F68     1.351   .     S
C36    C1025   1.426   .     S
C37    F69     1.350   .     S
C37    C2024   1.426   1_554 S
C38    F70     1.347   .     S
C38    N523    1.369   .     A
C38    C1031   1.428   .     S
C39    F71     1.351   .     S
C39    N524    1.367   .     S
C39    C2022   1.428   1_554 S
C40    F72     1.351   .     S
C40    C1029   1.426   .     S
C41    C58     1.400   .     A
C41    O73     1.382   .     S
C41    C51     1.388   .     A
C42    C57     1.415   .     A
C42    O84     1.377   .     S
C42    C52     1.396   .     A
C43    C57     1.409   .     A
C43    C49     1.388   .     A
C43    O95     1.378   .     S
C44    C58     1.402   .     A
C44    C50     1.396   .     A
C44    O106    1.385   .     S
C45    C60     1.408   .     A
C45    O117    1.384   .     S
C45    C55     1.394   .     A
C46    C59     1.416   .     A
C46    O128    1.383   .     S
C46    C56     1.392   .     A
C47    C53     1.394   .     A
C47    C59     1.417   .     A
C47    O139    1.388   .     S
C48    O150    1.381   .     S
C48    C54     1.392   .     A
C48    C60     1.406   .     A
C49    C62     1.400   .     A
C49    O161    1.382   .     S
C50    O172    1.377   .     S
C50    C61     1.415   .     A
C51    C61     1.409   .     A
C51    O183    1.378   .     S
C52    O194    1.385   .     S
C52    C62     1.402   .     A
C53    C64     1.408   .     A
C53    O205    1.384   .     S
C54    C63     1.416   .     A
C54    O216    1.383   .     S
C55    O227    1.388   .     S
C55    C63     1.417   .     A
C56    O238    1.381   .     S
C56    C64     1.406   .     A
O73    C74     1.415   .     S
C74    H76     1.112   .     S
C74    C77     1.533   .     S
C74    H75     1.112   .     S
C77    H78     1.107   .     S
C77    C80     1.516   .     S
C77    H79     1.112   .     S
C80    H83     1.107   .     S
C80    H82     1.109   .     S
C80    H81     1.102   .     S
O84    C85     1.412   .     S
C85    H86     1.107   .     S
C85    H87     1.113   .     S
C85    C88     1.527   .     S
C88    H89     1.107   .     S
C88    H90     1.108   .     S
C88    C91     1.520   .     S
C91    H92     1.109   .     S
C91    H1085   1.103   .     S
C91    H1086   1.099   .     S
H93    C2075   1.103   1_554 S
H94    C2075   1.099   1_554 S
O95    C96     1.420   .     S
C96    C99     1.532   .     S
C96    H98     1.112   .     S
C96    H97     1.110   .     S
C99    C102    1.517   .     S
C99    H101    1.112   .     S
C99    H100    1.106   .     S
C102   H105    1.111   .     S
C102   H104    1.101   .     S
C102   H103    1.109   .     S
O106   C107    1.420   .     S
C107   H109    1.114   .     S
C107   C110    1.519   .     S
C107   H356    1.107   .     S
H108   C355    1.107   1_455 S
C110   H112    1.111   .     S
C110   H111    1.109   .     S
C110   C361    1.519   .     S
C113   H114    1.109   .     S
C113   H116    1.106   .     S
C113   H115    1.108   .     S
C113   C358    1.519   1_455 S
O117   C118    1.422   .     S
C118   H119    1.111   .     S
C118   H120    1.114   .     S
C118   C121    1.540   .     S
C121   C124    1.512   .     S
C121   H123    1.108   .     S
C121   H122    1.105   .     S
C124   H127    1.109   .     S
C124   H126    1.107   .     S
C124   H125    1.105   .     S
O128   C129    1.412   .     S
C129   C132    1.526   .     S
C129   H130    1.103   .     S
C129   H131    1.115   .     S
C132   H133    1.108   .     S
C132   H134    1.108   .     S
C132   C135    1.520   .     S
C135   H138    1.110   .     S
C135   H136    1.100   .     S
C135   H137    1.102   .     S
O139   C140    1.416   .     S
C140   C143    1.511   .     S
C140   H142    1.118   .     S
C140   H141    1.112   .     S
C143   H144    1.110   .     S
C143   H145    1.105   .     S
C143   C146    1.513   .     S
C146   H147    1.109   .     S
C146   H149    1.103   .     S
C146   H148    1.107   .     S
O150   C151    1.407   .     S
C151   C154    1.520   .     S
C151   H152    1.112   .     S
C151   H153    1.109   .     S
C154   H156    1.106   .     S
C154   H155    1.104   .     S
C154   C2141   1.519   1_554 S
C157   H159    1.098   .     S
C157   C1146   1.519   .     S
C157   H1150   1.106   .     S
C157   H1400   1.104   1_455 S
H158   C2141   1.106   1_554 S
H160   C2389   1.104   1_554 S
O161   C162    1.415   .     S
C162   C165    1.533   .     S
C162   H163    1.112   .     S
C162   H164    1.112   .     S
C165   H166    1.107   .     S
C165   H167    1.112   .     S
C165   C168    1.516   .     S
C168   H170    1.109   .     S
C168   H171    1.107   .     S
C168   H665    1.102   .     S
H169   C664    1.102   1_545 S
O172   C173    1.412   .     S
C173   H174    1.107   .     S
C173   H175    1.113   .     S
C173   C176    1.527   .     S
C176   C179    1.520   .     S
C176   H177    1.106   .     S
C176   H178    1.108   .     S
C179   H180    1.109   .     S
C179   H1173   1.103   .     S
C179   H1174   1.099   .     S
H181   C2163   1.103   1_554 S
H182   C2163   1.099   1_554 S
O183   C184    1.420   .     S
C184   H185    1.110   .     S
C184   C187    1.532   .     S
C184   H186    1.112   .     S
C187   C190    1.517   .     S
C187   H188    1.106   .     S
C187   H189    1.113   .     S
C190   H193    1.112   .     S
C190   H192    1.101   .     S
C190   H687    1.109   1_545 S
H191   C686    1.109   .     S
O194   C195    1.420   .     S
C195   H196    1.107   .     S
C195   H197    1.114   .     S
C195   C198    1.519   .     S
C198   H199    1.109   .     S
C198   C201    1.519   .     S
C198   H200    1.111   .     S
C201   H203    1.108   .     S
C201   H202    1.109   .     S
C201   H204    1.106   .     S
O205   C206    1.422   .     S
C206   H208    1.114   .     S
C206   H207    1.111   .     S
C206   C209    1.541   .     S
C209   H211    1.108   .     S
C209   H210    1.105   .     S
C209   C212    1.512   .     S
C212   H215    1.109   .     S
C212   H214    1.107   .     S
C212   H213    1.105   .     S
O216   C217    1.412   .     S
C217   H218    1.103   .     S
C217   C220    1.526   .     S
C217   H219    1.115   .     S
C220   H222    1.108   .     S
C220   H221    1.108   .     S
C220   C223    1.520   .     S
C223   H226    1.110   .     S
C223   H224    1.099   .     S
C223   H225    1.102   .     S
O227   C228    1.416   .     S
C228   C231    1.511   .     S
C228   H230    1.118   .     S
C228   H229    1.112   .     S
C231   H233    1.105   .     S
C231   H232    1.110   .     S
C231   C730    1.513   1_545 S
C234   H236    1.107   .     S
C234   H237    1.103   .     S
C234   H235    1.109   .     S
C234   C727    1.513   .     S
O238   C239    1.408   .     S
C239   H240    1.112   .     S
C239   H241    1.109   .     S
C239   C242    1.520   .     S
C242   H244    1.105   .     S
C242   H243    1.104   .     S
C242   C2229   1.519   1_554 S
C245   H247    1.098   .     S
C245   C1234   1.519   .     S
C245   H1238   1.106   .     S
C245   H1240   1.104   .     S
H246   C2229   1.106   1_554 S
H248   C2229   1.104   1_554 S
O249   C265    1.308   .     A
O249   Zn277   2.059   .     S
O250   C266    1.305   .     A
O250   Zn30    2.059   1_655 S
O251   C266    1.310   .     A
O251   Zn29    2.053   1_655 S
O252   C265    1.305   .     A
O252   Zn278   2.053   .     S
O253   C267    1.297   .     A
O253   Zn30    2.048   1_655 S
O254   C268    1.311   .     A
O254   Zn277   2.048   .     S
O255   Zn278   2.042   .     S
O255   C268    1.307   .     A
O256   Zn29    2.042   1_655 S
O256   C267    1.306   .     A
O257   C269    1.308   .     A
O257   Zn775   2.059   .     S
O258   C270    1.305   .     A
O258   Zn280   2.059   .     S
O259   Zn279   2.053   .     S
O259   C270    1.310   .     A
O260   C269    1.305   .     A
O260   Zn776   2.053   .     S
O261   C271    1.297   .     A
O261   Zn776   2.048   .     S
O262   Zn279   2.048   .     S
O262   C272    1.312   .     A
O263   Zn280   2.042   .     S
O263   C272    1.307   .     A
O264   C271    1.306   .     A
O264   Zn775   2.042   .     S
C265   C308    1.467   .     S
C266   C307    1.472   .     S
C267   C306    1.452   .     S
C268   C305    1.477   .     S
C269   C312    1.467   .     S
C270   C311    1.472   .     S
C271   C310    1.451   .     S
C272   C309    1.477   .     S
N273   C284    1.368   .     A
N273   Zn277   2.042   .     S
N274   Zn278   2.042   .     S
N274   C281    1.368   .     S
N275   C782    1.369   1_545 A
N275   Zn279   2.042   .     S
N275   C288    1.368   .     S
N276   Zn280   2.042   .     S
N276   C285    1.368   .     A
N276   C783    1.367   1_545 S
Zn279  O760    2.042   1_545 S
Zn279  O753    2.059   1_545 S
Zn280  O757    2.048   1_545 S
Zn280  O756    2.053   1_545 S
C281   F313    1.350   .     S
C281   C2268   1.426   1_554 S
C282   F314    1.347   .     S
C282   N25     1.369   1_655 S
C282   C1275   1.428   .     S
C283   F315    1.351   .     S
C283   N26     1.367   1_655 A
C283   C2266   1.428   1_554 S
C284   F316    1.351   .     S
C284   C1273   1.426   .     S
C285   F317    1.350   .     S
C285   C2272   1.426   1_554 S
C286   F318    1.347   .     S
C286   N771    1.369   .     A
C286   C1279   1.428   .     S
C287   F319    1.351   .     S
C287   N772    1.367   .     S
C287   C2270   1.428   1_554 S
C288   F320    1.351   .     S
C288   C1277   1.426   .     S
C289   C306    1.400   .     A
C289   O321    1.382   .     S
C289   C299    1.388   .     A
C290   C305    1.415   .     A
C290   O332    1.377   .     S
C290   C300    1.396   .     A
C291   C305    1.409   .     A
C291   C297    1.388   .     A
C291   O343    1.378   .     S
C292   C306    1.402   .     A
C292   C298    1.396   .     A
C292   O354    1.385   .     S
C293   C308    1.408   .     A
C293   O365    1.384   .     S
C293   C303    1.394   .     A
C294   C307    1.416   .     A
C294   O376    1.383   .     S
C294   C304    1.392   .     A
C295   C301    1.394   .     A
C295   C307    1.417   .     A
C295   O387    1.388   .     S
C296   O398    1.381   .     S
C296   C302    1.392   .     A
C296   C308    1.406   .     A
C297   C310    1.400   .     A
C297   O409    1.382   .     S
C298   O420    1.377   .     S
C298   C309    1.415   .     A
C299   C309    1.409   .     A
C299   O431    1.378   .     S
C300   O442    1.385   .     S
C300   C310    1.402   .     A
C301   C312    1.408   .     A
C301   O453    1.384   .     S
C302   C311    1.416   .     A
C302   O464    1.383   .     S
C303   O475    1.388   .     S
C303   C311    1.417   .     A
C304   O486    1.381   .     S
C304   C312    1.406   .     A
O321   C322    1.415   .     S
C322   H324    1.112   .     S
C322   C325    1.533   .     S
C322   H323    1.112   .     S
C325   H326    1.107   .     S
C325   C328    1.516   .     S
C325   H327    1.112   .     S
C328   H331    1.107   .     S
C328   H330    1.109   .     S
C328   H329    1.102   .     S
O332   C333    1.412   .     S
C333   H334    1.107   .     S
C333   H335    1.113   .     S
C333   C336    1.527   .     S
C336   H337    1.107   .     S
C336   H338    1.108   .     S
C336   C339    1.520   .     S
C339   H340    1.109   .     S
C339   H1333   1.103   .     S
C339   H1334   1.099   .     S
H341   C2323   1.103   1_554 S
H342   C2323   1.099   1_554 S
O343   C344    1.420   .     S
C344   C347    1.532   .     S
C344   H346    1.112   .     S
C344   H345    1.110   .     S
C347   C350    1.517   .     S
C347   H349    1.112   .     S
C347   H348    1.106   .     S
C350   H353    1.111   .     S
C350   H352    1.101   .     S
C350   H351    1.109   .     S
O354   C355    1.420   .     S
C355   H357    1.114   .     S
C355   C358    1.519   .     S
C355   H108    1.107   1_655 S
C358   H360    1.111   .     S
C358   H359    1.109   .     S
C358   C113    1.519   1_655 S
C361   H362    1.109   .     S
C361   H364    1.106   .     S
C361   H363    1.108   .     S
O365   C366    1.422   .     S
C366   H367    1.111   .     S
C366   H368    1.114   .     S
C366   C369    1.540   .     S
C369   C372    1.512   .     S
C369   H371    1.108   .     S
C369   H370    1.105   .     S
C372   H375    1.109   .     S
C372   H374    1.107   .     S
C372   H373    1.105   .     S
O376   C377    1.412   .     S
C377   C380    1.526   .     S
C377   H378    1.103   .     S
C377   H379    1.115   .     S
C380   H381    1.108   .     S
C380   H382    1.108   .     S
C380   C383    1.520   .     S
C383   H386    1.110   .     S
C383   H384    1.100   .     S
C383   H385    1.102   .     S
O387   C388    1.416   .     S
C388   C391    1.511   .     S
C388   H390    1.118   .     S
C388   H389    1.112   .     S
C391   H392    1.110   .     S
C391   H393    1.105   .     S
C391   C394    1.513   .     S
C394   H395    1.109   .     S
C394   H397    1.103   .     S
C394   H396    1.107   .     S
O398   C399    1.407   .     S
C399   C402    1.520   .     S
C399   H400    1.112   .     S
C399   H401    1.109   .     S
C402   H404    1.106   .     S
C402   H403    1.104   .     S
C402   C2389   1.519   1_554 S
C405   H407    1.098   .     S
C405   C1394   1.519   .     S
C405   H1398   1.106   .     S
C405   H1152   1.104   .     S
H406   C2389   1.106   1_554 S
H408   C2141   1.104   1_654 S
O409   C410    1.415   .     S
C410   C413    1.533   .     S
C410   H411    1.112   .     S
C410   H412    1.112   .     S
C413   H414    1.107   .     S
C413   H415    1.112   .     S
C413   C416    1.516   .     S
C416   H418    1.109   .     S
C416   H419    1.107   .     S
C416   H913    1.102   .     S
H417   C912    1.102   1_545 S
O420   C421    1.412   .     S
C421   H422    1.107   .     S
C421   H423    1.113   .     S
C421   C424    1.527   .     S
C424   C427    1.520   .     S
C424   H425    1.106   .     S
C424   H426    1.108   .     S
C427   H428    1.109   .     S
C427   H1421   1.103   .     S
C427   H1422   1.099   .     S
H429   C2411   1.103   1_554 S
H430   C2411   1.099   1_554 S
O431   C432    1.420   .     S
C432   H433    1.110   .     S
C432   C435    1.532   .     S
C432   H434    1.112   .     S
C435   C438    1.517   .     S
C435   H436    1.106   .     S
C435   H437    1.113   .     S
C438   H441    1.112   .     S
C438   H440    1.101   .     S
C438   H935    1.109   1_545 S
H439   C934    1.109   .     S
O442   C443    1.420   .     S
C443   H444    1.107   .     S
C443   H445    1.114   .     S
C443   C446    1.519   .     S
C446   H447    1.109   .     S
C446   C449    1.519   .     S
C446   H448    1.111   .     S
C449   H451    1.108   .     S
C449   H450    1.109   .     S
C449   H452    1.106   .     S
O453   C454    1.422   .     S
C454   H456    1.114   .     S
C454   H455    1.111   .     S
C454   C457    1.541   .     S
C457   H459    1.108   .     S
C457   H458    1.105   .     S
C457   C460    1.512   .     S
C460   H463    1.109   .     S
C460   H462    1.107   .     S
C460   H461    1.105   .     S
O464   C465    1.412   .     S
C465   H466    1.103   .     S
C465   C468    1.526   .     S
C465   H467    1.115   .     S
C468   H470    1.108   .     S
C468   H469    1.108   .     S
C468   C471    1.520   .     S
C471   H474    1.110   .     S
C471   H472    1.099   .     S
C471   H473    1.102   .     S
O475   C476    1.416   .     S
C476   C479    1.511   .     S
C476   H478    1.118   .     S
C476   H477    1.112   .     S
C479   H481    1.105   .     S
C479   H480    1.110   .     S
C479   C978    1.513   1_545 S
C482   H484    1.107   .     S
C482   H485    1.103   .     S
C482   H483    1.109   .     S
C482   C975    1.513   .     S
O486   C487    1.408   .     S
C487   H488    1.112   .     S
C487   H489    1.109   .     S
C487   C490    1.520   .     S
C490   H492    1.105   .     S
C490   H491    1.104   .     S
C490   C2477   1.519   1_554 S
C493   H495    1.098   .     S
C493   C1482   1.519   .     S
C493   H1486   1.106   .     S
C493   H1488   1.104   .     S
H494   C2477   1.106   1_554 S
H496   C2477   1.104   1_554 S
O497   C513    1.308   .     A
O497   Zn525   2.059   .     S
O498   C514    1.305   .     A
O498   Zn774   2.059   .     S
O499   C514    1.310   .     A
O499   Zn773   2.053   .     S
O500   C513    1.305   .     A
O500   Zn526   2.053   .     S
O501   C515    1.297   .     A
O501   Zn774   2.048   .     S
O502   C516    1.311   .     A
O502   Zn525   2.048   .     S
O503   Zn526   2.042   .     S
O503   C516    1.307   .     A
O504   Zn773   2.042   .     S
O504   C515    1.306   .     A
O505   C517    1.308   .     A
O505   Zn31    2.059   1_565 S
O506   C518    1.305   .     A
O506   Zn528   2.059   .     S
O507   Zn527   2.053   .     S
O507   C518    1.310   .     A
O508   C517    1.305   .     A
O508   Zn32    2.053   1_565 S
O509   C519    1.297   .     A
O509   Zn32    2.048   1_565 S
O510   Zn527   2.048   .     S
O510   C520    1.312   .     A
O511   Zn528   2.042   .     S
O511   C520    1.307   .     A
O512   C519    1.306   .     A
O512   Zn31    2.042   1_565 S
C513   C556    1.467   .     S
C514   C555    1.472   .     S
C515   C554    1.452   .     S
C516   C553    1.477   .     S
C517   C560    1.467   .     S
C518   C559    1.472   .     S
C519   C558    1.451   .     S
C520   C557    1.477   .     S
N521   C532    1.368   .     A
N521   Zn525   2.042   .     S
N521   C778    1.369   1_455 S
N522   C779    1.367   1_455 A
N522   Zn526   2.042   .     S
N522   C529    1.368   .     S
N523   Zn527   2.042   .     S
N523   C536    1.368   .     S
N524   Zn528   2.042   .     S
N524   C533    1.368   .     A
Zn525  O752    2.042   1_455 S
Zn525  O747    2.053   1_455 S
Zn526  O749    2.048   1_455 S
Zn526  O746    2.059   1_455 S
C529   F561    1.350   .     S
C529   C2516   1.426   1_554 S
C530   F562    1.347   .     S
C530   N769    1.369   .     S
C530   C1523   1.428   .     S
C531   F563    1.351   .     S
C531   N770    1.367   .     A
C531   C2514   1.428   1_554 S
C532   F564    1.351   .     S
C532   C1521   1.426   .     S
C533   F565    1.350   .     S
C533   C2520   1.426   1_554 S
C534   F566    1.347   .     S
C534   N27     1.369   1_565 A
C534   C1527   1.428   .     S
C535   F567    1.351   .     S
C535   N28     1.367   1_565 S
C535   C2518   1.428   1_554 S
C536   F568    1.351   .     S
C536   C1525   1.426   .     S
C537   C554    1.400   .     A
C537   O569    1.382   .     S
C537   C547    1.388   .     A
C538   C553    1.415   .     A
C538   O580    1.377   .     S
C538   C548    1.396   .     A
C539   C553    1.409   .     A
C539   C545    1.388   .     A
C539   O591    1.378   .     S
C540   C554    1.402   .     A
C540   C546    1.396   .     A
C540   O602    1.385   .     S
C541   C556    1.408   .     A
C541   O613    1.384   .     S
C541   C551    1.394   .     A
C542   C555    1.416   .     A
C542   O624    1.383   .     S
C542   C552    1.392   .     A
C543   C549    1.394   .     A
C543   C555    1.417   .     A
C543   O635    1.388   .     S
C544   O646    1.381   .     S
C544   C550    1.392   .     A
C544   C556    1.406   .     A
C545   C558    1.400   .     A
C545   O657    1.382   .     S
C546   O668    1.377   .     S
C546   C557    1.415   .     A
C547   C557    1.409   .     A
C547   O679    1.378   .     S
C548   O690    1.385   .     S
C548   C558    1.402   .     A
C549   C560    1.408   .     A
C549   O701    1.384   .     S
C550   C559    1.416   .     A
C550   O712    1.383   .     S
C551   O723    1.388   .     S
C551   C559    1.417   .     A
C552   O734    1.381   .     S
C552   C560    1.406   .     A
O569   C570    1.415   .     S
C570   H572    1.112   .     S
C570   C573    1.533   .     S
C570   H571    1.112   .     S
C573   H574    1.107   .     S
C573   C576    1.516   .     S
C573   H575    1.112   .     S
C576   H579    1.107   .     S
C576   H578    1.109   .     S
C576   H577    1.102   .     S
O580   C581    1.412   .     S
C581   H582    1.107   .     S
C581   H583    1.113   .     S
C581   C584    1.527   .     S
C584   H585    1.107   .     S
C584   H586    1.108   .     S
C584   C587    1.520   .     S
C587   H588    1.109   .     S
C587   H1581   1.103   .     S
C587   H1582   1.099   .     S
H589   C2571   1.103   1_554 S
H590   C2571   1.099   1_554 S
O591   C592    1.420   .     S
C592   C595    1.532   .     S
C592   H594    1.112   .     S
C592   H593    1.110   .     S
C595   C598    1.517   .     S
C595   H597    1.112   .     S
C595   H596    1.106   .     S
C598   H601    1.111   .     S
C598   H600    1.101   .     S
C598   H599    1.109   .     S
O602   C603    1.420   .     S
C603   H605    1.114   .     S
C603   C606    1.519   .     S
C603   H852    1.107   .     S
H604   C851    1.107   1_455 S
C606   H608    1.111   .     S
C606   H607    1.109   .     S
C606   C857    1.519   .     S
C609   H610    1.109   .     S
C609   H612    1.106   .     S
C609   H611    1.108   .     S
C609   C854    1.519   1_455 S
O613   C614    1.422   .     S
C614   H615    1.111   .     S
C614   H616    1.114   .     S
C614   C617    1.540   .     S
C617   C620    1.512   .     S
C617   H619    1.108   .     S
C617   H618    1.105   .     S
C620   H623    1.109   .     S
C620   H622    1.107   .     S
C620   H621    1.105   .     S
O624   C625    1.412   .     S
C625   C628    1.526   .     S
C625   H626    1.103   .     S
C625   H627    1.115   .     S
C628   H629    1.108   .     S
C628   H630    1.108   .     S
C628   C631    1.520   .     S
C631   H634    1.110   .     S
C631   H632    1.100   .     S
C631   H633    1.102   .     S
O635   C636    1.416   .     S
C636   C639    1.511   .     S
C636   H638    1.118   .     S
C636   H637    1.112   .     S
C639   H640    1.110   .     S
C639   H641    1.105   .     S
C639   C642    1.513   .     S
C642   H643    1.109   .     S
C642   H645    1.103   .     S
C642   H644    1.107   .     S
O646   C647    1.407   .     S
C647   C650    1.520   .     S
C647   H648    1.112   .     S
C647   H649    1.109   .     S
C650   H652    1.106   .     S
C650   H651    1.104   .     S
C650   C2637   1.519   1_554 S
C653   H655    1.098   .     S
C653   C1642   1.519   .     S
C653   H1646   1.106   .     S
C653   H1896   1.104   1_455 S
H654   C2637   1.106   1_554 S
H656   C2885   1.104   1_554 S
O657   C658    1.415   .     S
C658   C661    1.533   .     S
C658   H659    1.112   .     S
C658   H660    1.112   .     S
C661   H662    1.107   .     S
C661   H663    1.112   .     S
C661   C664    1.516   .     S
C664   H666    1.109   .     S
C664   H667    1.107   .     S
C664   H169    1.102   1_565 S
O668   C669    1.412   .     S
C669   H670    1.107   .     S
C669   H671    1.113   .     S
C669   C672    1.527   .     S
C672   C675    1.520   .     S
C672   H673    1.106   .     S
C672   H674    1.108   .     S
C675   H676    1.109   .     S
C675   H1669   1.103   .     S
C675   H1670   1.099   .     S
H677   C2659   1.103   1_554 S
H678   C2659   1.099   1_554 S
O679   C680    1.420   .     S
C680   H681    1.110   .     S
C680   C683    1.532   .     S
C680   H682    1.112   .     S
C683   C686    1.517   .     S
C683   H684    1.106   .     S
C683   H685    1.113   .     S
C686   H689    1.112   .     S
C686   H688    1.101   .     S
H687   C190    1.109   1_565 S
O690   C691    1.420   .     S
C691   H692    1.107   .     S
C691   H693    1.114   .     S
C691   C694    1.519   .     S
C694   H695    1.109   .     S
C694   C697    1.519   .     S
C694   H696    1.111   .     S
C697   H699    1.108   .     S
C697   H698    1.109   .     S
C697   H700    1.106   .     S
O701   C702    1.422   .     S
C702   H704    1.114   .     S
C702   H703    1.111   .     S
C702   C705    1.541   .     S
C705   H707    1.108   .     S
C705   H706    1.105   .     S
C705   C708    1.512   .     S
C708   H711    1.109   .     S
C708   H710    1.107   .     S
C708   H709    1.105   .     S
O712   C713    1.412   .     S
C713   H714    1.103   .     S
C713   C716    1.526   .     S
C713   H715    1.115   .     S
C716   H718    1.108   .     S
C716   H717    1.108   .     S
C716   C719    1.520   .     S
C719   H722    1.110   .     S
C719   H720    1.099   .     S
C719   H721    1.102   .     S
O723   C724    1.416   .     S
C724   C727    1.511   .     S
C724   H726    1.118   .     S
C724   H725    1.112   .     S
C727   H729    1.105   .     S
C727   H728    1.110   .     S
C730   H732    1.107   .     S
C730   H733    1.103   .     S
C730   H731    1.109   .     S
C730   C231    1.513   1_565 S
O734   C735    1.408   .     S
C735   H736    1.112   .     S
C735   H737    1.109   .     S
C735   C738    1.520   .     S
C738   H740    1.105   .     S
C738   H739    1.104   .     S
C738   C2725   1.519   1_554 S
C741   H743    1.098   .     S
C741   C1730   1.519   .     S
C741   H1734   1.106   .     S
C741   H1736   1.104   .     S
H742   C2725   1.106   1_554 S
H744   C2725   1.104   1_554 S
O745   C761    1.308   .     A
O745   Zn773   2.059   .     S
O746   C762    1.305   .     A
O746   Zn526   2.059   1_655 S
O747   C762    1.310   .     A
O747   Zn525   2.053   1_655 S
O748   C761    1.305   .     A
O748   Zn774   2.053   .     S
O749   C763    1.297   .     A
O749   Zn526   2.048   1_655 S
O750   C764    1.311   .     A
O750   Zn773   2.048   .     S
O751   Zn774   2.042   .     S
O751   C764    1.307   .     A
O752   Zn525   2.042   1_655 S
O752   C763    1.306   .     A
O753   C765    1.308   .     A
O753   Zn279   2.059   1_565 S
O754   C766    1.305   .     A
O754   Zn776   2.059   .     S
O755   Zn775   2.053   .     S
O755   C766    1.310   .     A
O756   C765    1.305   .     A
O756   Zn280   2.053   1_565 S
O757   C767    1.297   .     A
O757   Zn280   2.048   1_565 S
O758   Zn775   2.048   .     S
O758   C768    1.312   .     A
O759   Zn776   2.042   .     S
O759   C768    1.307   .     A
O760   C767    1.306   .     A
O760   Zn279   2.042   1_565 S
C761   C804    1.467   .     S
C762   C803    1.472   .     S
C763   C802    1.452   .     S
C764   C801    1.477   .     S
C765   C808    1.467   .     S
C766   C807    1.472   .     S
C767   C806    1.451   .     S
C768   C805    1.477   .     S
N769   C780    1.368   .     A
N769   Zn773   2.042   .     S
N770   Zn774   2.042   .     S
N770   C777    1.368   .     S
N771   Zn775   2.042   .     S
N771   C784    1.368   .     S
N772   Zn776   2.042   .     S
N772   C781    1.368   .     A
C777   F809    1.350   .     S
C777   C2764   1.426   1_554 S
C778   F810    1.347   .     S
C778   N521    1.369   1_655 S
C778   C1771   1.428   .     S
C779   F811    1.351   .     S
C779   N522    1.367   1_655 A
C779   C2762   1.428   1_554 S
C780   F812    1.351   .     S
C780   C1769   1.426   .     S
C781   F813    1.350   .     S
C781   C2768   1.426   1_554 S
C782   F814    1.347   .     S
C782   N275    1.369   1_565 A
C782   C1775   1.428   .     S
C783   F815    1.351   .     S
C783   N276    1.367   1_565 S
C783   C2766   1.428   1_554 S
C784   F816    1.351   .     S
C784   C1773   1.426   .     S
C785   C802    1.400   .     A
C785   O817    1.382   .     S
C785   C795    1.388   .     A
C786   C801    1.415   .     A
C786   O828    1.377   .     S
C786   C796    1.396   .     A
C787   C801    1.409   .     A
C787   C793    1.388   .     A
C787   O839    1.378   .     S
C788   C802    1.402   .     A
C788   C794    1.396   .     A
C788   O850    1.385   .     S
C789   C804    1.408   .     A
C789   O861    1.384   .     S
C789   C799    1.394   .     A
C790   C803    1.416   .     A
C790   O872    1.383   .     S
C790   C800    1.392   .     A
C791   C797    1.394   .     A
C791   C803    1.417   .     A
C791   O883    1.388   .     S
C792   O894    1.381   .     S
C792   C798    1.392   .     A
C792   C804    1.406   .     A
C793   C806    1.400   .     A
C793   O905    1.382   .     S
C794   O916    1.377   .     S
C794   C805    1.415   .     A
C795   C805    1.409   .     A
C795   O927    1.378   .     S
C796   O938    1.385   .     S
C796   C806    1.402   .     A
C797   C808    1.408   .     A
C797   O949    1.384   .     S
C798   C807    1.416   .     A
C798   O960    1.383   .     S
C799   O971    1.388   .     S
C799   C807    1.417   .     A
C800   O982    1.381   .     S
C800   C808    1.406   .     A
O817   C818    1.415   .     S
C818   H820    1.112   .     S
C818   C821    1.533   .     S
C818   H819    1.112   .     S
C821   H822    1.107   .     S
C821   C824    1.516   .     S
C821   H823    1.112   .     S
C824   H827    1.107   .     S
C824   H826    1.109   .     S
C824   H825    1.102   .     S
O828   C829    1.412   .     S
C829   H830    1.107   .     S
C829   H831    1.113   .     S
C829   C832    1.527   .     S
C832   H833    1.107   .     S
C832   H834    1.108   .     S
C832   C835    1.520   .     S
C835   H836    1.109   .     S
C835   H1829   1.103   .     S
C835   H1830   1.099   .     S
H837   C2819   1.103   1_554 S
H838   C2819   1.099   1_554 S
O839   C840    1.420   .     S
C840   C843    1.532   .     S
C840   H842    1.112   .     S
C840   H841    1.110   .     S
C843   C846    1.517   .     S
C843   H845    1.112   .     S
C843   H844    1.106   .     S
C846   H849    1.111   .     S
C846   H848    1.101   .     S
C846   H847    1.109   .     S
O850   C851    1.420   .     S
C851   H853    1.114   .     S
C851   C854    1.519   .     S
C851   H604    1.107   1_655 S
C854   H856    1.111   .     S
C854   H855    1.109   .     S
C854   C609    1.519   1_655 S
C857   H858    1.109   .     S
C857   H860    1.106   .     S
C857   H859    1.108   .     S
O861   C862    1.422   .     S
C862   H863    1.111   .     S
C862   H864    1.114   .     S
C862   C865    1.540   .     S
C865   C868    1.512   .     S
C865   H867    1.108   .     S
C865   H866    1.105   .     S
C868   H871    1.109   .     S
C868   H870    1.107   .     S
C868   H869    1.105   .     S
O872   C873    1.412   .     S
C873   C876    1.526   .     S
C873   H874    1.103   .     S
C873   H875    1.115   .     S
C876   H877    1.108   .     S
C876   H878    1.108   .     S
C876   C879    1.520   .     S
C879   H882    1.110   .     S
C879   H880    1.100   .     S
C879   H881    1.102   .     S
O883   C884    1.416   .     S
C884   C887    1.511   .     S
C884   H886    1.118   .     S
C884   H885    1.112   .     S
C887   H888    1.110   .     S
C887   H889    1.105   .     S
C887   C890    1.513   .     S
C890   H891    1.109   .     S
C890   H893    1.103   .     S
C890   H892    1.107   .     S
O894   C895    1.407   .     S
C895   C898    1.520   .     S
C895   H896    1.112   .     S
C895   H897    1.109   .     S
C898   H900    1.106   .     S
C898   H899    1.104   .     S
C898   C2885   1.519   1_554 S
C901   H903    1.098   .     S
C901   C1890   1.519   .     S
C901   H1894   1.106   .     S
C901   H1648   1.104   .     S
H902   C2885   1.106   1_554 S
H904   C2637   1.104   1_654 S
O905   C906    1.415   .     S
C906   C909    1.533   .     S
C906   H907    1.112   .     S
C906   H908    1.112   .     S
C909   H910    1.107   .     S
C909   H911    1.112   .     S
C909   C912    1.516   .     S
C912   H914    1.109   .     S
C912   H915    1.107   .     S
C912   H417    1.102   1_565 S
O916   C917    1.412   .     S
C917   H918    1.107   .     S
C917   H919    1.113   .     S
C917   C920    1.527   .     S
C920   C923    1.520   .     S
C920   H921    1.106   .     S
C920   H922    1.108   .     S
C923   H924    1.109   .     S
C923   H1917   1.103   .     S
C923   H1918   1.099   .     S
H925   C2907   1.103   1_554 S
H926   C2907   1.099   1_554 S
O927   C928    1.420   .     S
C928   H929    1.110   .     S
C928   C931    1.532   .     S
C928   H930    1.112   .     S
C931   C934    1.517   .     S
C931   H932    1.106   .     S
C931   H933    1.113   .     S
C934   H937    1.112   .     S
C934   H936    1.101   .     S
H935   C438    1.109   1_565 S
O938   C939    1.420   .     S
C939   H940    1.107   .     S
C939   H941    1.114   .     S
C939   C942    1.519   .     S
C942   H943    1.109   .     S
C942   C945    1.519   .     S
C942   H944    1.111   .     S
C945   H947    1.108   .     S
C945   H946    1.109   .     S
C945   H948    1.106   .     S
O949   C950    1.422   .     S
C950   H952    1.114   .     S
C950   H951    1.111   .     S
C950   C953    1.541   .     S
C953   H955    1.108   .     S
C953   H954    1.105   .     S
C953   C956    1.512   .     S
C956   H959    1.109   .     S
C956   H958    1.107   .     S
C956   H957    1.105   .     S
O960   C961    1.412   .     S
C961   H962    1.103   .     S
C961   C964    1.526   .     S
C961   H963    1.115   .     S
C964   H966    1.108   .     S
C964   H965    1.108   .     S
C964   C967    1.520   .     S
C967   H970    1.110   .     S
C967   H968    1.099   .     S
C967   H969    1.102   .     S
O971   C972    1.416   .     S
C972   C975    1.511   .     S
C972   H974    1.118   .     S
C972   H973    1.112   .     S
C975   H977    1.105   .     S
C975   H976    1.110   .     S
C978   H980    1.107   .     S
C978   H981    1.103   .     S
C978   H979    1.109   .     S
C978   C479    1.513   1_565 S
O982   C983    1.408   .     S
C983   H984    1.112   .     S
C983   H985    1.109   .     S
C983   C986    1.520   .     S
C986   H988    1.105   .     S
C986   H987    1.104   .     S
C986   C2973   1.519   1_554 S
C989   H991    1.098   .     S
C989   C1978   1.519   .     S
C989   H1982   1.106   .     S
C989   H1984   1.104   .     S
H990   C2973   1.106   1_554 S
H992   C2973   1.104   1_554 S
O993   C1009   1.308   .     A
O993   Zn1021  2.059   .     S
O994   C1010   1.305   .     A
O994   Zn1270  2.059   .     S
O995   C1010   1.310   .     A
O995   Zn1269  2.053   .     S
O996   C1009   1.305   .     A
O996   Zn1022  2.053   .     S
O997   C1011   1.297   .     A
O997   Zn1270  2.048   .     S
O998   C1012   1.311   .     A
O998   Zn1021  2.048   .     S
O999   Zn1022  2.042   .     S
O999   C1012   1.307   .     A
O1000  Zn1269  2.042   .     S
O1000  C1011   1.306   .     A
O1001  C1013   1.308   .     A
O1001  Zn1519  2.059   .     S
O1002  C1014   1.305   .     A
O1002  Zn1024  2.059   .     S
O1003  Zn1023  2.053   .     S
O1003  C1014   1.310   .     A
O1004  C1013   1.305   .     A
O1004  Zn1520  2.053   .     S
O1005  C1015   1.297   .     A
O1005  Zn1520  2.048   .     S
O1006  Zn1023  2.048   .     S
O1006  C1016   1.312   .     A
O1007  Zn1024  2.042   .     S
O1007  C1016   1.307   .     A
O1008  C1015   1.306   .     A
O1008  Zn1519  2.042   .     S
C1009  C1052   1.467   .     S
C1010  C1051   1.472   .     S
C1011  C1050   1.452   .     S
C1012  C1049   1.477   .     S
C1013  C1056   1.467   .     S
C1014  C1055   1.472   .     S
C1015  C1054   1.451   .     S
C1016  C1053   1.477   .     S
N1017  C1028   1.368   .     A
N1017  Zn1021  2.042   .     S
N1017  C1274   1.369   1_455 S
N1018  C1275   1.367   1_455 A
N1018  Zn1022  2.042   .     S
N1018  C1025   1.368   .     S
N1019  C1526   1.369   1_545 A
N1019  Zn1023  2.042   .     S
N1019  C1032   1.368   .     S
N1020  Zn1024  2.042   .     S
N1020  C1029   1.368   .     A
N1020  C1527   1.367   1_545 S
Zn1021 O1248   2.042   1_455 S
Zn1021 O1243   2.053   1_455 S
Zn1022 O1245   2.048   1_455 S
Zn1022 O1242   2.059   1_455 S
Zn1023 O1504   2.042   1_545 S
Zn1023 O1497   2.059   1_545 S
Zn1024 O1501   2.048   1_545 S
Zn1024 O1500   2.053   1_545 S
C1025  F1057   1.350   .     S
C1026  F1058   1.347   .     S
C1026  N1265   1.369   .     S
C1026  C2019   1.428   .     S
C1027  F1059   1.351   .     S
C1027  N1266   1.367   .     A
C1028  F1060   1.351   .     S
C1028  C2017   1.426   .     S
C1029  F1061   1.350   .     S
C1030  F1062   1.347   .     S
C1030  N1515   1.369   .     A
C1030  C2023   1.428   .     S
C1031  F1063   1.351   .     S
C1031  N1516   1.367   .     S
C1032  F1064   1.351   .     S
C1032  C2021   1.426   .     S
C1033  C1050   1.400   .     A
C1033  O1065   1.382   .     S
C1033  C1043   1.388   .     A
C1034  C1049   1.415   .     A
C1034  O1076   1.377   .     S
C1034  C1044   1.396   .     A
C1035  C1049   1.409   .     A
C1035  C1041   1.388   .     A
C1035  O1087   1.378   .     S
C1036  C1050   1.402   .     A
C1036  C1042   1.396   .     A
C1036  O1098   1.385   .     S
C1037  C1052   1.408   .     A
C1037  O1109   1.384   .     S
C1037  C1047   1.394   .     A
C1038  C1051   1.416   .     A
C1038  O1120   1.383   .     S
C1038  C1048   1.392   .     A
C1039  C1045   1.394   .     A
C1039  C1051   1.417   .     A
C1039  O1131   1.388   .     S
C1040  O1142   1.381   .     S
C1040  C1046   1.392   .     A
C1040  C1052   1.406   .     A
C1041  C1054   1.400   .     A
C1041  O1153   1.382   .     S
C1042  O1164   1.377   .     S
C1042  C1053   1.415   .     A
C1043  C1053   1.409   .     A
C1043  O1175   1.378   .     S
C1044  O1186   1.385   .     S
C1044  C1054   1.402   .     A
C1045  C1056   1.408   .     A
C1045  O1197   1.384   .     S
C1046  C1055   1.416   .     A
C1046  O1208   1.383   .     S
C1047  O1219   1.388   .     S
C1047  C1055   1.417   .     A
C1048  O1230   1.381   .     S
C1048  C1056   1.406   .     A
O1065  C1066   1.415   .     S
C1066  H1068   1.112   .     S
C1066  C1069   1.533   .     S
C1066  H1067   1.112   .     S
C1069  H1070   1.107   .     S
C1069  C1072   1.516   .     S
C1069  H1071   1.112   .     S
C1072  H1075   1.107   .     S
C1072  H1074   1.109   .     S
C1072  H1073   1.102   .     S
O1076  C1077   1.412   .     S
C1077  H1078   1.107   .     S
C1077  H1079   1.113   .     S
C1077  C1080   1.527   .     S
C1080  H1081   1.107   .     S
C1080  H1082   1.108   .     S
C1080  C1083   1.520   .     S
C1083  H1084   1.109   .     S
C1083  H2077   1.103   .     S
C1083  H2078   1.099   .     S
O1087  C1088   1.420   .     S
C1088  C1091   1.532   .     S
C1088  H1090   1.112   .     S
C1088  H1089   1.110   .     S
C1091  C1094   1.517   .     S
C1091  H1093   1.112   .     S
C1091  H1092   1.106   .     S
C1094  H1097   1.111   .     S
C1094  H1096   1.101   .     S
C1094  H1095   1.109   .     S
O1098  C1099   1.420   .     S
C1099  H1101   1.114   .     S
C1099  C1102   1.519   .     S
C1099  H1348   1.107   .     S
H1100  C1347   1.107   1_455 S
C1102  H1104   1.111   .     S
C1102  H1103   1.109   .     S
C1102  C1353   1.519   .     S
C1105  H1106   1.109   .     S
C1105  H1108   1.106   .     S
C1105  H1107   1.108   .     S
C1105  C1350   1.519   1_455 S
O1109  C1110   1.422   .     S
C1110  H1111   1.111   .     S
C1110  H1112   1.114   .     S
C1110  C1113   1.540   .     S
C1113  C1116   1.512   .     S
C1113  H1115   1.108   .     S
C1113  H1114   1.105   .     S
C1116  H1119   1.109   .     S
C1116  H1118   1.107   .     S
C1116  H1117   1.105   .     S
O1120  C1121   1.412   .     S
C1121  C1124   1.526   .     S
C1121  H1122   1.103   .     S
C1121  H1123   1.115   .     S
C1124  H1125   1.108   .     S
C1124  H1126   1.108   .     S
C1124  C1127   1.520   .     S
C1127  H1130   1.110   .     S
C1127  H1128   1.100   .     S
C1127  H1129   1.102   .     S
O1131  C1132   1.416   .     S
C1132  C1135   1.511   .     S
C1132  H1134   1.118   .     S
C1132  H1133   1.112   .     S
C1135  H1136   1.110   .     S
C1135  H1137   1.105   .     S
C1135  C1138   1.513   .     S
C1138  H1139   1.109   .     S
C1138  H1141   1.103   .     S
C1138  H1140   1.107   .     S
O1142  C1143   1.407   .     S
C1143  C1146   1.520   .     S
C1143  H1144   1.112   .     S
C1143  H1145   1.109   .     S
C1146  H1148   1.106   .     S
C1146  H1147   1.104   .     S
C1149  H1151   1.098   .     S
C1149  C2138   1.519   .     S
C1149  H2142   1.106   .     S
C1149  H2392   1.104   1_455 S
O1153  C1154   1.415   .     S
C1154  C1157   1.533   .     S
C1154  H1155   1.112   .     S
C1154  H1156   1.112   .     S
C1157  H1158   1.107   .     S
C1157  H1159   1.112   .     S
C1157  C1160   1.516   .     S
C1160  H1162   1.109   .     S
C1160  H1163   1.107   .     S
C1160  H1657   1.102   .     S
H1161  C1656   1.102   1_545 S
O1164  C1165   1.412   .     S
C1165  H1166   1.107   .     S
C1165  H1167   1.113   .     S
C1165  C1168   1.527   .     S
C1168  C1171   1.520   .     S
C1168  H1169   1.106   .     S
C1168  H1170   1.108   .     S
C1171  H1172   1.109   .     S
C1171  H2165   1.103   .     S
C1171  H2166   1.099   .     S
O1175  C1176   1.420   .     S
C1176  H1177   1.110   .     S
C1176  C1179   1.532   .     S
C1176  H1178   1.112   .     S
C1179  C1182   1.517   .     S
C1179  H1180   1.106   .     S
C1179  H1181   1.113   .     S
C1182  H1185   1.112   .     S
C1182  H1184   1.101   .     S
C1182  H1679   1.109   1_545 S
H1183  C1678   1.109   .     S
O1186  C1187   1.420   .     S
C1187  H1188   1.107   .     S
C1187  H1189   1.114   .     S
C1187  C1190   1.519   .     S
C1190  H1191   1.109   .     S
C1190  C1193   1.519   .     S
C1190  H1192   1.111   .     S
C1193  H1195   1.108   .     S
C1193  H1194   1.109   .     S
C1193  H1196   1.106   .     S
O1197  C1198   1.422   .     S
C1198  H1200   1.114   .     S
C1198  H1199   1.111   .     S
C1198  C1201   1.541   .     S
C1201  H1203   1.108   .     S
C1201  H1202   1.105   .     S
C1201  C1204   1.512   .     S
C1204  H1207   1.109   .     S
C1204  H1206   1.107   .     S
C1204  H1205   1.105   .     S
O1208  C1209   1.412   .     S
C1209  H1210   1.103   .     S
C1209  C1212   1.526   .     S
C1209  H1211   1.115   .     S
C1212  H1214   1.108   .     S
C1212  H1213   1.108   .     S
C1212  C1215   1.520   .     S
C1215  H1218   1.110   .     S
C1215  H1216   1.099   .     S
C1215  H1217   1.102   .     S
O1219  C1220   1.416   .     S
C1220  C1223   1.511   .     S
C1220  H1222   1.118   .     S
C1220  H1221   1.112   .     S
C1223  H1225   1.105   .     S
C1223  H1224   1.110   .     S
C1223  C1722   1.513   1_545 S
C1226  H1228   1.107   .     S
C1226  H1229   1.103   .     S
C1226  H1227   1.109   .     S
C1226  C1719   1.513   .     S
O1230  C1231   1.408   .     S
C1231  H1232   1.112   .     S
C1231  H1233   1.109   .     S
C1231  C1234   1.520   .     S
C1234  H1236   1.105   .     S
C1234  H1235   1.104   .     S
C1237  H1239   1.098   .     S
C1237  C2226   1.519   .     S
C1237  H2230   1.106   .     S
C1237  H2232   1.104   .     S
O1241  C1257   1.308   .     A
O1241  Zn1269  2.059   .     S
O1242  C1258   1.305   .     A
O1242  Zn1022  2.059   1_655 S
O1243  C1258   1.310   .     A
O1243  Zn1021  2.053   1_655 S
O1244  C1257   1.305   .     A
O1244  Zn1270  2.053   .     S
O1245  C1259   1.297   .     A
O1245  Zn1022  2.048   1_655 S
O1246  C1260   1.311   .     A
O1246  Zn1269  2.048   .     S
O1247  Zn1270  2.042   .     S
O1247  C1260   1.307   .     A
O1248  Zn1021  2.042   1_655 S
O1248  C1259   1.306   .     A
O1249  C1261   1.308   .     A
O1249  Zn1767  2.059   .     S
O1250  C1262   1.305   .     A
O1250  Zn1272  2.059   .     S
O1251  Zn1271  2.053   .     S
O1251  C1262   1.310   .     A
O1252  C1261   1.305   .     A
O1252  Zn1768  2.053   .     S
O1253  C1263   1.297   .     A
O1253  Zn1768  2.048   .     S
O1254  Zn1271  2.048   .     S
O1254  C1264   1.312   .     A
O1255  Zn1272  2.042   .     S
O1255  C1264   1.307   .     A
O1256  C1263   1.306   .     A
O1256  Zn1767  2.042   .     S
C1257  C1300   1.467   .     S
C1258  C1299   1.472   .     S
C1259  C1298   1.452   .     S
C1260  C1297   1.477   .     S
C1261  C1304   1.467   .     S
C1262  C1303   1.472   .     S
C1263  C1302   1.451   .     S
C1264  C1301   1.477   .     S
N1265  C1276   1.368   .     A
N1265  Zn1269  2.042   .     S
N1266  Zn1270  2.042   .     S
N1266  C1273   1.368   .     S
N1267  C1774   1.369   1_545 A
N1267  Zn1271  2.042   .     S
N1267  C1280   1.368   .     S
N1268  Zn1272  2.042   .     S
N1268  C1277   1.368   .     A
N1268  C1775   1.367   1_545 S
Zn1271 O1752   2.042   1_545 S
Zn1271 O1745   2.059   1_545 S
Zn1272 O1749   2.048   1_545 S
Zn1272 O1748   2.053   1_545 S
C1273  F1305   1.350   .     S
C1274  F1306   1.347   .     S
C1274  N1017   1.369   1_655 S
C1274  C2267   1.428   .     S
C1275  F1307   1.351   .     S
C1275  N1018   1.367   1_655 A
C1276  F1308   1.351   .     S
C1276  C2265   1.426   .     S
C1277  F1309   1.350   .     S
C1278  F1310   1.347   .     S
C1278  N1763   1.369   .     A
C1278  C2271   1.428   .     S
C1279  F1311   1.351   .     S
C1279  N1764   1.367   .     S
C1280  F1312   1.351   .     S
C1280  C2269   1.426   .     S
C1281  C1298   1.400   .     A
C1281  O1313   1.382   .     S
C1281  C1291   1.388   .     A
C1282  C1297   1.415   .     A
C1282  O1324   1.377   .     S
C1282  C1292   1.396   .     A
C1283  C1297   1.409   .     A
C1283  C1289   1.388   .     A
C1283  O1335   1.378   .     S
C1284  C1298   1.402   .     A
C1284  C1290   1.396   .     A
C1284  O1346   1.385   .     S
C1285  C1300   1.408   .     A
C1285  O1357   1.384   .     S
C1285  C1295   1.394   .     A
C1286  C1299   1.416   .     A
C1286  O1368   1.383   .     S
C1286  C1296   1.392   .     A
C1287  C1293   1.394   .     A
C1287  C1299   1.417   .     A
C1287  O1379   1.388   .     S
C1288  O1390   1.381   .     S
C1288  C1294   1.392   .     A
C1288  C1300   1.406   .     A
C1289  C1302   1.400   .     A
C1289  O1401   1.382   .     S
C1290  O1412   1.377   .     S
C1290  C1301   1.415   .     A
C1291  C1301   1.409   .     A
C1291  O1423   1.378   .     S
C1292  O1434   1.385   .     S
C1292  C1302   1.402   .     A
C1293  C1304   1.408   .     A
C1293  O1445   1.384   .     S
C1294  C1303   1.416   .     A
C1294  O1456   1.383   .     S
C1295  O1467   1.388   .     S
C1295  C1303   1.417   .     A
C1296  O1478   1.381   .     S
C1296  C1304   1.406   .     A
O1313  C1314   1.415   .     S
C1314  H1316   1.112   .     S
C1314  C1317   1.533   .     S
C1314  H1315   1.112   .     S
C1317  H1318   1.107   .     S
C1317  C1320   1.516   .     S
C1317  H1319   1.112   .     S
C1320  H1323   1.107   .     S
C1320  H1322   1.109   .     S
C1320  H1321   1.102   .     S
O1324  C1325   1.412   .     S
C1325  H1326   1.107   .     S
C1325  H1327   1.113   .     S
C1325  C1328   1.527   .     S
C1328  H1329   1.107   .     S
C1328  H1330   1.108   .     S
C1328  C1331   1.520   .     S
C1331  H1332   1.109   .     S
C1331  H2325   1.103   .     S
C1331  H2326   1.099   .     S
O1335  C1336   1.420   .     S
C1336  C1339   1.532   .     S
C1336  H1338   1.112   .     S
C1336  H1337   1.110   .     S
C1339  C1342   1.517   .     S
C1339  H1341   1.112   .     S
C1339  H1340   1.106   .     S
C1342  H1345   1.111   .     S
C1342  H1344   1.101   .     S
C1342  H1343   1.109   .     S
O1346  C1347   1.420   .     S
C1347  H1349   1.114   .     S
C1347  C1350   1.519   .     S
C1347  H1100   1.107   1_655 S
C1350  H1352   1.111   .     S
C1350  H1351   1.109   .     S
C1350  C1105   1.519   1_655 S
C1353  H1354   1.109   .     S
C1353  H1356   1.106   .     S
C1353  H1355   1.108   .     S
O1357  C1358   1.422   .     S
C1358  H1359   1.111   .     S
C1358  H1360   1.114   .     S
C1358  C1361   1.540   .     S
C1361  C1364   1.512   .     S
C1361  H1363   1.108   .     S
C1361  H1362   1.105   .     S
C1364  H1367   1.109   .     S
C1364  H1366   1.107   .     S
C1364  H1365   1.105   .     S
O1368  C1369   1.412   .     S
C1369  C1372   1.526   .     S
C1369  H1370   1.103   .     S
C1369  H1371   1.115   .     S
C1372  H1373   1.108   .     S
C1372  H1374   1.108   .     S
C1372  C1375   1.520   .     S
C1375  H1378   1.110   .     S
C1375  H1376   1.100   .     S
C1375  H1377   1.102   .     S
O1379  C1380   1.416   .     S
C1380  C1383   1.511   .     S
C1380  H1382   1.118   .     S
C1380  H1381   1.112   .     S
C1383  H1384   1.110   .     S
C1383  H1385   1.105   .     S
C1383  C1386   1.513   .     S
C1386  H1387   1.109   .     S
C1386  H1389   1.103   .     S
C1386  H1388   1.107   .     S
O1390  C1391   1.407   .     S
C1391  C1394   1.520   .     S
C1391  H1392   1.112   .     S
C1391  H1393   1.109   .     S
C1394  H1396   1.106   .     S
C1394  H1395   1.104   .     S
C1397  H1399   1.098   .     S
C1397  C2386   1.519   .     S
C1397  H2390   1.106   .     S
C1397  H2144   1.104   .     S
H1400  C157    1.104   1_655 S
O1401  C1402   1.415   .     S
C1402  C1405   1.533   .     S
C1402  H1403   1.112   .     S
C1402  H1404   1.112   .     S
C1405  H1406   1.107   .     S
C1405  H1407   1.112   .     S
C1405  C1408   1.516   .     S
C1408  H1410   1.109   .     S
C1408  H1411   1.107   .     S
C1408  H1905   1.102   .     S
H1409  C1904   1.102   1_545 S
O1412  C1413   1.412   .     S
C1413  H1414   1.107   .     S
C1413  H1415   1.113   .     S
C1413  C1416   1.527   .     S
C1416  C1419   1.520   .     S
C1416  H1417   1.106   .     S
C1416  H1418   1.108   .     S
C1419  H1420   1.109   .     S
C1419  H2413   1.103   .     S
C1419  H2414   1.099   .     S
O1423  C1424   1.420   .     S
C1424  H1425   1.110   .     S
C1424  C1427   1.532   .     S
C1424  H1426   1.112   .     S
C1427  C1430   1.517   .     S
C1427  H1428   1.106   .     S
C1427  H1429   1.113   .     S
C1430  H1433   1.112   .     S
C1430  H1432   1.101   .     S
C1430  H1927   1.109   1_545 S
H1431  C1926   1.109   .     S
O1434  C1435   1.420   .     S
C1435  H1436   1.107   .     S
C1435  H1437   1.114   .     S
C1435  C1438   1.519   .     S
C1438  H1439   1.109   .     S
C1438  C1441   1.519   .     S
C1438  H1440   1.111   .     S
C1441  H1443   1.108   .     S
C1441  H1442   1.109   .     S
C1441  H1444   1.106   .     S
O1445  C1446   1.422   .     S
C1446  H1448   1.114   .     S
C1446  H1447   1.111   .     S
C1446  C1449   1.541   .     S
C1449  H1451   1.108   .     S
C1449  H1450   1.105   .     S
C1449  C1452   1.512   .     S
C1452  H1455   1.109   .     S
C1452  H1454   1.107   .     S
C1452  H1453   1.105   .     S
O1456  C1457   1.412   .     S
C1457  H1458   1.103   .     S
C1457  C1460   1.526   .     S
C1457  H1459   1.115   .     S
C1460  H1462   1.108   .     S
C1460  H1461   1.108   .     S
C1460  C1463   1.520   .     S
C1463  H1466   1.110   .     S
C1463  H1464   1.099   .     S
C1463  H1465   1.102   .     S
O1467  C1468   1.416   .     S
C1468  C1471   1.511   .     S
C1468  H1470   1.118   .     S
C1468  H1469   1.112   .     S
C1471  H1473   1.105   .     S
C1471  H1472   1.110   .     S
C1471  C1970   1.513   1_545 S
C1474  H1476   1.107   .     S
C1474  H1477   1.103   .     S
C1474  H1475   1.109   .     S
C1474  C1967   1.513   .     S
O1478  C1479   1.408   .     S
C1479  H1480   1.112   .     S
C1479  H1481   1.109   .     S
C1479  C1482   1.520   .     S
C1482  H1484   1.105   .     S
C1482  H1483   1.104   .     S
C1485  H1487   1.098   .     S
C1485  C2474   1.519   .     S
C1485  H2478   1.106   .     S
C1485  H2480   1.104   .     S
O1489  C1505   1.308   .     A
O1489  Zn1517  2.059   .     S
O1490  C1506   1.305   .     A
O1490  Zn1766  2.059   .     S
O1491  C1506   1.310   .     A
O1491  Zn1765  2.053   .     S
O1492  C1505   1.305   .     A
O1492  Zn1518  2.053   .     S
O1493  C1507   1.297   .     A
O1493  Zn1766  2.048   .     S
O1494  C1508   1.311   .     A
O1494  Zn1517  2.048   .     S
O1495  Zn1518  2.042   .     S
O1495  C1508   1.307   .     A
O1496  Zn1765  2.042   .     S
O1496  C1507   1.306   .     A
O1497  C1509   1.308   .     A
O1497  Zn1023  2.059   1_565 S
O1498  C1510   1.305   .     A
O1498  Zn1520  2.059   .     S
O1499  Zn1519  2.053   .     S
O1499  C1510   1.310   .     A
O1500  C1509   1.305   .     A
O1500  Zn1024  2.053   1_565 S
O1501  C1511   1.297   .     A
O1501  Zn1024  2.048   1_565 S
O1502  Zn1519  2.048   .     S
O1502  C1512   1.312   .     A
O1503  Zn1520  2.042   .     S
O1503  C1512   1.307   .     A
O1504  C1511   1.306   .     A
O1504  Zn1023  2.042   1_565 S
C1505  C1548   1.467   .     S
C1506  C1547   1.472   .     S
C1507  C1546   1.452   .     S
C1508  C1545   1.477   .     S
C1509  C1552   1.467   .     S
C1510  C1551   1.472   .     S
C1511  C1550   1.451   .     S
C1512  C1549   1.477   .     S
N1513  C1524   1.368   .     A
N1513  Zn1517  2.042   .     S
N1513  C1770   1.369   1_455 S
N1514  C1771   1.367   1_455 A
N1514  Zn1518  2.042   .     S
N1514  C1521   1.368   .     S
N1515  Zn1519  2.042   .     S
N1515  C1528   1.368   .     S
N1516  Zn1520  2.042   .     S
N1516  C1525   1.368   .     A
Zn1517 O1744   2.042   1_455 S
Zn1517 O1739   2.053   1_455 S
Zn1518 O1741   2.048   1_455 S
Zn1518 O1738   2.059   1_455 S
C1521  F1553   1.350   .     S
C1522  F1554   1.347   .     S
C1522  N1761   1.369   .     S
C1522  C2515   1.428   .     S
C1523  F1555   1.351   .     S
C1523  N1762   1.367   .     A
C1524  F1556   1.351   .     S
C1524  C2513   1.426   .     S
C1525  F1557   1.350   .     S
C1526  F1558   1.347   .     S
C1526  N1019   1.369   1_565 A
C1526  C2519   1.428   .     S
C1527  F1559   1.351   .     S
C1527  N1020   1.367   1_565 S
C1528  F1560   1.351   .     S
C1528  C2517   1.426   .     S
C1529  C1546   1.400   .     A
C1529  O1561   1.382   .     S
C1529  C1539   1.388   .     A
C1530  C1545   1.415   .     A
C1530  O1572   1.377   .     S
C1530  C1540   1.396   .     A
C1531  C1545   1.409   .     A
C1531  C1537   1.388   .     A
C1531  O1583   1.378   .     S
C1532  C1546   1.402   .     A
C1532  C1538   1.396   .     A
C1532  O1594   1.385   .     S
C1533  C1548   1.408   .     A
C1533  O1605   1.384   .     S
C1533  C1543   1.394   .     A
C1534  C1547   1.416   .     A
C1534  O1616   1.383   .     S
C1534  C1544   1.392   .     A
C1535  C1541   1.394   .     A
C1535  C1547   1.417   .     A
C1535  O1627   1.388   .     S
C1536  O1638   1.381   .     S
C1536  C1542   1.392   .     A
C1536  C1548   1.406   .     A
C1537  C1550   1.400   .     A
C1537  O1649   1.382   .     S
C1538  O1660   1.377   .     S
C1538  C1549   1.415   .     A
C1539  C1549   1.409   .     A
C1539  O1671   1.378   .     S
C1540  O1682   1.385   .     S
C1540  C1550   1.402   .     A
C1541  C1552   1.408   .     A
C1541  O1693   1.384   .     S
C1542  C1551   1.416   .     A
C1542  O1704   1.383   .     S
C1543  O1715   1.388   .     S
C1543  C1551   1.417   .     A
C1544  O1726   1.381   .     S
C1544  C1552   1.406   .     A
O1561  C1562   1.415   .     S
C1562  H1564   1.112   .     S
C1562  C1565   1.533   .     S
C1562  H1563   1.112   .     S
C1565  H1566   1.107   .     S
C1565  C1568   1.516   .     S
C1565  H1567   1.112   .     S
C1568  H1571   1.107   .     S
C1568  H1570   1.109   .     S
C1568  H1569   1.102   .     S
O1572  C1573   1.412   .     S
C1573  H1574   1.107   .     S
C1573  H1575   1.113   .     S
C1573  C1576   1.527   .     S
C1576  H1577   1.107   .     S
C1576  H1578   1.108   .     S
C1576  C1579   1.520   .     S
C1579  H1580   1.109   .     S
C1579  H2573   1.103   .     S
C1579  H2574   1.099   .     S
O1583  C1584   1.420   .     S
C1584  C1587   1.532   .     S
C1584  H1586   1.112   .     S
C1584  H1585   1.110   .     S
C1587  C1590   1.517   .     S
C1587  H1589   1.112   .     S
C1587  H1588   1.106   .     S
C1590  H1593   1.111   .     S
C1590  H1592   1.101   .     S
C1590  H1591   1.109   .     S
O1594  C1595   1.420   .     S
C1595  H1597   1.114   .     S
C1595  C1598   1.519   .     S
C1595  H1844   1.107   .     S
H1596  C1843   1.107   1_455 S
C1598  H1600   1.111   .     S
C1598  H1599   1.109   .     S
C1598  C1849   1.519   .     S
C1601  H1602   1.109   .     S
C1601  H1604   1.106   .     S
C1601  H1603   1.108   .     S
C1601  C1846   1.519   1_455 S
O1605  C1606   1.422   .     S
C1606  H1607   1.111   .     S
C1606  H1608   1.114   .     S
C1606  C1609   1.540   .     S
C1609  C1612   1.512   .     S
C1609  H1611   1.108   .     S
C1609  H1610   1.105   .     S
C1612  H1615   1.109   .     S
C1612  H1614   1.107   .     S
C1612  H1613   1.105   .     S
O1616  C1617   1.412   .     S
C1617  C1620   1.526   .     S
C1617  H1618   1.103   .     S
C1617  H1619   1.115   .     S
C1620  H1621   1.108   .     S
C1620  H1622   1.108   .     S
C1620  C1623   1.520   .     S
C1623  H1626   1.110   .     S
C1623  H1624   1.100   .     S
C1623  H1625   1.102   .     S
O1627  C1628   1.416   .     S
C1628  C1631   1.511   .     S
C1628  H1630   1.118   .     S
C1628  H1629   1.112   .     S
C1631  H1632   1.110   .     S
C1631  H1633   1.105   .     S
C1631  C1634   1.513   .     S
C1634  H1635   1.109   .     S
C1634  H1637   1.103   .     S
C1634  H1636   1.107   .     S
O1638  C1639   1.407   .     S
C1639  C1642   1.520   .     S
C1639  H1640   1.112   .     S
C1639  H1641   1.109   .     S
C1642  H1644   1.106   .     S
C1642  H1643   1.104   .     S
C1645  H1647   1.098   .     S
C1645  C2634   1.519   .     S
C1645  H2638   1.106   .     S
C1645  H2888   1.104   1_455 S
O1649  C1650   1.415   .     S
C1650  C1653   1.533   .     S
C1650  H1651   1.112   .     S
C1650  H1652   1.112   .     S
C1653  H1654   1.107   .     S
C1653  H1655   1.112   .     S
C1653  C1656   1.516   .     S
C1656  H1658   1.109   .     S
C1656  H1659   1.107   .     S
C1656  H1161   1.102   1_565 S
O1660  C1661   1.412   .     S
C1661  H1662   1.107   .     S
C1661  H1663   1.113   .     S
C1661  C1664   1.527   .     S
C1664  C1667   1.520   .     S
C1664  H1665   1.106   .     S
C1664  H1666   1.108   .     S
C1667  H1668   1.109   .     S
C1667  H2661   1.103   .     S
C1667  H2662   1.099   .     S
O1671  C1672   1.420   .     S
C1672  H1673   1.110   .     S
C1672  C1675   1.532   .     S
C1672  H1674   1.112   .     S
C1675  C1678   1.517   .     S
C1675  H1676   1.106   .     S
C1675  H1677   1.113   .     S
C1678  H1681   1.112   .     S
C1678  H1680   1.101   .     S
H1679  C1182   1.109   1_565 S
O1682  C1683   1.420   .     S
C1683  H1684   1.107   .     S
C1683  H1685   1.114   .     S
C1683  C1686   1.519   .     S
C1686  H1687   1.109   .     S
C1686  C1689   1.519   .     S
C1686  H1688   1.111   .     S
C1689  H1691   1.108   .     S
C1689  H1690   1.109   .     S
C1689  H1692   1.106   .     S
O1693  C1694   1.422   .     S
C1694  H1696   1.114   .     S
C1694  H1695   1.111   .     S
C1694  C1697   1.541   .     S
C1697  H1699   1.108   .     S
C1697  H1698   1.105   .     S
C1697  C1700   1.512   .     S
C1700  H1703   1.109   .     S
C1700  H1702   1.107   .     S
C1700  H1701   1.105   .     S
O1704  C1705   1.412   .     S
C1705  H1706   1.103   .     S
C1705  C1708   1.526   .     S
C1705  H1707   1.115   .     S
C1708  H1710   1.108   .     S
C1708  H1709   1.108   .     S
C1708  C1711   1.520   .     S
C1711  H1714   1.110   .     S
C1711  H1712   1.099   .     S
C1711  H1713   1.102   .     S
O1715  C1716   1.416   .     S
C1716  C1719   1.511   .     S
C1716  H1718   1.118   .     S
C1716  H1717   1.112   .     S
C1719  H1721   1.105   .     S
C1719  H1720   1.110   .     S
C1722  H1724   1.107   .     S
C1722  H1725   1.103   .     S
C1722  H1723   1.109   .     S
C1722  C1223   1.513   1_565 S
O1726  C1727   1.408   .     S
C1727  H1728   1.112   .     S
C1727  H1729   1.109   .     S
C1727  C1730   1.520   .     S
C1730  H1732   1.105   .     S
C1730  H1731   1.104   .     S
C1733  H1735   1.098   .     S
C1733  C2722   1.519   .     S
C1733  H2726   1.106   .     S
C1733  H2728   1.104   .     S
O1737  C1753   1.308   .     A
O1737  Zn1765  2.059   .     S
O1738  C1754   1.305   .     A
O1738  Zn1518  2.059   1_655 S
O1739  C1754   1.310   .     A
O1739  Zn1517  2.053   1_655 S
O1740  C1753   1.305   .     A
O1740  Zn1766  2.053   .     S
O1741  C1755   1.297   .     A
O1741  Zn1518  2.048   1_655 S
O1742  C1756   1.311   .     A
O1742  Zn1765  2.048   .     S
O1743  Zn1766  2.042   .     S
O1743  C1756   1.307   .     A
O1744  Zn1517  2.042   1_655 S
O1744  C1755   1.306   .     A
O1745  C1757   1.308   .     A
O1745  Zn1271  2.059   1_565 S
O1746  C1758   1.305   .     A
O1746  Zn1768  2.059   .     S
O1747  Zn1767  2.053   .     S
O1747  C1758   1.310   .     A
O1748  C1757   1.305   .     A
O1748  Zn1272  2.053   1_565 S
O1749  C1759   1.297   .     A
O1749  Zn1272  2.048   1_565 S
O1750  Zn1767  2.048   .     S
O1750  C1760   1.312   .     A
O1751  Zn1768  2.042   .     S
O1751  C1760   1.307   .     A
O1752  C1759   1.306   .     A
O1752  Zn1271  2.042   1_565 S
C1753  C1796   1.467   .     S
C1754  C1795   1.472   .     S
C1755  C1794   1.452   .     S
C1756  C1793   1.477   .     S
C1757  C1800   1.467   .     S
C1758  C1799   1.472   .     S
C1759  C1798   1.451   .     S
C1760  C1797   1.477   .     S
N1761  C1772   1.368   .     A
N1761  Zn1765  2.042   .     S
N1762  Zn1766  2.042   .     S
N1762  C1769   1.368   .     S
N1763  Zn1767  2.042   .     S
N1763  C1776   1.368   .     S
N1764  Zn1768  2.042   .     S
N1764  C1773   1.368   .     A
C1769  F1801   1.350   .     S
C1770  F1802   1.347   .     S
C1770  N1513   1.369   1_655 S
C1770  C2763   1.428   .     S
C1771  F1803   1.351   .     S
C1771  N1514   1.367   1_655 A
C1772  F1804   1.351   .     S
C1772  C2761   1.426   .     S
C1773  F1805   1.350   .     S
C1774  F1806   1.347   .     S
C1774  N1267   1.369   1_565 A
C1774  C2767   1.428   .     S
C1775  F1807   1.351   .     S
C1775  N1268   1.367   1_565 S
C1776  F1808   1.351   .     S
C1776  C2765   1.426   .     S
C1777  C1794   1.400   .     A
C1777  O1809   1.382   .     S
C1777  C1787   1.388   .     A
C1778  C1793   1.415   .     A
C1778  O1820   1.377   .     S
C1778  C1788   1.396   .     A
C1779  C1793   1.409   .     A
C1779  C1785   1.388   .     A
C1779  O1831   1.378   .     S
C1780  C1794   1.402   .     A
C1780  C1786   1.396   .     A
C1780  O1842   1.385   .     S
C1781  C1796   1.408   .     A
C1781  O1853   1.384   .     S
C1781  C1791   1.394   .     A
C1782  C1795   1.416   .     A
C1782  O1864   1.383   .     S
C1782  C1792   1.392   .     A
C1783  C1789   1.394   .     A
C1783  C1795   1.417   .     A
C1783  O1875   1.388   .     S
C1784  O1886   1.381   .     S
C1784  C1790   1.392   .     A
C1784  C1796   1.406   .     A
C1785  C1798   1.400   .     A
C1785  O1897   1.382   .     S
C1786  O1908   1.377   .     S
C1786  C1797   1.415   .     A
C1787  C1797   1.409   .     A
C1787  O1919   1.378   .     S
C1788  O1930   1.385   .     S
C1788  C1798   1.402   .     A
C1789  C1800   1.408   .     A
C1789  O1941   1.384   .     S
C1790  C1799   1.416   .     A
C1790  O1952   1.383   .     S
C1791  O1963   1.388   .     S
C1791  C1799   1.417   .     A
C1792  O1974   1.381   .     S
C1792  C1800   1.406   .     A
O1809  C1810   1.415   .     S
C1810  H1812   1.112   .     S
C1810  C1813   1.533   .     S
C1810  H1811   1.112   .     S
C1813  H1814   1.107   .     S
C1813  C1816   1.516   .     S
C1813  H1815   1.112   .     S
C1816  H1819   1.107   .     S
C1816  H1818   1.109   .     S
C1816  H1817   1.102   .     S
O1820  C1821   1.412   .     S
C1821  H1822   1.107   .     S
C1821  H1823   1.113   .     S
C1821  C1824   1.527   .     S
C1824  H1825   1.107   .     S
C1824  H1826   1.108   .     S
C1824  C1827   1.520   .     S
C1827  H1828   1.109   .     S
C1827  H2821   1.103   .     S
C1827  H2822   1.099   .     S
O1831  C1832   1.420   .     S
C1832  C1835   1.532   .     S
C1832  H1834   1.112   .     S
C1832  H1833   1.110   .     S
C1835  C1838   1.517   .     S
C1835  H1837   1.112   .     S
C1835  H1836   1.106   .     S
C1838  H1841   1.111   .     S
C1838  H1840   1.101   .     S
C1838  H1839   1.109   .     S
O1842  C1843   1.420   .     S
C1843  H1845   1.114   .     S
C1843  C1846   1.519   .     S
C1843  H1596   1.107   1_655 S
C1846  H1848   1.111   .     S
C1846  H1847   1.109   .     S
C1846  C1601   1.519   1_655 S
C1849  H1850   1.109   .     S
C1849  H1852   1.106   .     S
C1849  H1851   1.108   .     S
O1853  C1854   1.422   .     S
C1854  H1855   1.111   .     S
C1854  H1856   1.114   .     S
C1854  C1857   1.540   .     S
C1857  C1860   1.512   .     S
C1857  H1859   1.108   .     S
C1857  H1858   1.105   .     S
C1860  H1863   1.109   .     S
C1860  H1862   1.107   .     S
C1860  H1861   1.105   .     S
O1864  C1865   1.412   .     S
C1865  C1868   1.526   .     S
C1865  H1866   1.103   .     S
C1865  H1867   1.115   .     S
C1868  H1869   1.108   .     S
C1868  H1870   1.108   .     S
C1868  C1871   1.520   .     S
C1871  H1874   1.110   .     S
C1871  H1872   1.100   .     S
C1871  H1873   1.102   .     S
O1875  C1876   1.416   .     S
C1876  C1879   1.511   .     S
C1876  H1878   1.118   .     S
C1876  H1877   1.112   .     S
C1879  H1880   1.110   .     S
C1879  H1881   1.105   .     S
C1879  C1882   1.513   .     S
C1882  H1883   1.109   .     S
C1882  H1885   1.103   .     S
C1882  H1884   1.107   .     S
O1886  C1887   1.407   .     S
C1887  C1890   1.520   .     S
C1887  H1888   1.112   .     S
C1887  H1889   1.109   .     S
C1890  H1892   1.106   .     S
C1890  H1891   1.104   .     S
C1893  H1895   1.098   .     S
C1893  C2882   1.519   .     S
C1893  H2886   1.106   .     S
C1893  H2640   1.104   .     S
H1896  C653    1.104   1_655 S
O1897  C1898   1.415   .     S
C1898  C1901   1.533   .     S
C1898  H1899   1.112   .     S
C1898  H1900   1.112   .     S
C1901  H1902   1.107   .     S
C1901  H1903   1.112   .     S
C1901  C1904   1.516   .     S
C1904  H1906   1.109   .     S
C1904  H1907   1.107   .     S
C1904  H1409   1.102   1_565 S
O1908  C1909   1.412   .     S
C1909  H1910   1.107   .     S
C1909  H1911   1.113   .     S
C1909  C1912   1.527   .     S
C1912  C1915   1.520   .     S
C1912  H1913   1.106   .     S
C1912  H1914   1.108   .     S
C1915  H1916   1.109   .     S
C1915  H2909   1.103   .     S
C1915  H2910   1.099   .     S
O1919  C1920   1.420   .     S
C1920  H1921   1.110   .     S
C1920  C1923   1.532   .     S
C1920  H1922   1.112   .     S
C1923  C1926   1.517   .     S
C1923  H1924   1.106   .     S
C1923  H1925   1.113   .     S
C1926  H1929   1.112   .     S
C1926  H1928   1.101   .     S
H1927  C1430   1.109   1_565 S
O1930  C1931   1.420   .     S
C1931  H1932   1.107   .     S
C1931  H1933   1.114   .     S
C1931  C1934   1.519   .     S
C1934  H1935   1.109   .     S
C1934  C1937   1.519   .     S
C1934  H1936   1.111   .     S
C1937  H1939   1.108   .     S
C1937  H1938   1.109   .     S
C1937  H1940   1.106   .     S
O1941  C1942   1.422   .     S
C1942  H1944   1.114   .     S
C1942  H1943   1.111   .     S
C1942  C1945   1.541   .     S
C1945  H1947   1.108   .     S
C1945  H1946   1.105   .     S
C1945  C1948   1.512   .     S
C1948  H1951   1.109   .     S
C1948  H1950   1.107   .     S
C1948  H1949   1.105   .     S
O1952  C1953   1.412   .     S
C1953  H1954   1.103   .     S
C1953  C1956   1.526   .     S
C1953  H1955   1.115   .     S
C1956  H1958   1.108   .     S
C1956  H1957   1.108   .     S
C1956  C1959   1.520   .     S
C1959  H1962   1.110   .     S
C1959  H1960   1.099   .     S
C1959  H1961   1.102   .     S
O1963  C1964   1.416   .     S
C1964  C1967   1.511   .     S
C1964  H1966   1.118   .     S
C1964  H1965   1.112   .     S
C1967  H1969   1.105   .     S
C1967  H1968   1.110   .     S
C1970  H1972   1.107   .     S
C1970  H1973   1.103   .     S
C1970  H1971   1.109   .     S
C1970  C1471   1.513   1_565 S
O1974  C1975   1.408   .     S
C1975  H1976   1.112   .     S
C1975  H1977   1.109   .     S
C1975  C1978   1.520   .     S
C1978  H1980   1.105   .     S
C1978  H1979   1.104   .     S
C1981  H1983   1.098   .     S
C1981  C2970   1.519   .     S
C1981  H2974   1.106   .     S
C1981  H2976   1.104   .     S
O1985  C2001   1.308   .     A
O1985  Zn2013  2.059   .     S
O1986  C2002   1.305   .     A
O1986  Zn2262  2.059   .     S
O1987  C2002   1.310   .     A
O1987  Zn2261  2.053   .     S
O1988  C2001   1.305   .     A
O1988  Zn2014  2.053   .     S
O1989  C2003   1.297   .     A
O1989  Zn2262  2.048   .     S
O1990  C2004   1.311   .     A
O1990  Zn2013  2.048   .     S
O1991  Zn2014  2.042   .     S
O1991  C2004   1.307   .     A
O1992  Zn2261  2.042   .     S
O1992  C2003   1.306   .     A
O1993  C2005   1.308   .     A
O1993  Zn2511  2.059   .     S
O1994  C2006   1.305   .     A
O1994  Zn2016  2.059   .     S
O1995  Zn2015  2.053   .     S
O1995  C2006   1.310   .     A
O1996  C2005   1.305   .     A
O1996  Zn2512  2.053   .     S
O1997  C2007   1.297   .     A
O1997  Zn2512  2.048   .     S
O1998  Zn2015  2.048   .     S
O1998  C2008   1.312   .     A
O1999  Zn2016  2.042   .     S
O1999  C2008   1.307   .     A
O2000  C2007   1.306   .     A
O2000  Zn2511  2.042   .     S
C2001  C2044   1.467   .     S
C2002  C2043   1.472   .     S
C2003  C2042   1.452   .     S
C2004  C2041   1.477   .     S
C2005  C2048   1.467   .     S
C2006  C2047   1.472   .     S
C2007  C2046   1.451   .     S
C2008  C2045   1.477   .     S
N2009  C2020   1.368   .     A
N2009  Zn2013  2.042   .     S
N2009  C2266   1.369   1_455 S
N2010  C2267   1.367   1_455 A
N2010  Zn2014  2.042   .     S
N2010  C2017   1.368   .     S
N2011  C2518   1.369   1_545 A
N2011  Zn2015  2.042   .     S
N2011  C2024   1.368   .     S
N2012  Zn2016  2.042   .     S
N2012  C2021   1.368   .     A
N2012  C2519   1.367   1_545 S
Zn2013 O2240   2.042   1_455 S
Zn2013 O2235   2.053   1_455 S
Zn2014 O2237   2.048   1_455 S
Zn2014 O2234   2.059   1_455 S
Zn2015 O2496   2.042   1_545 S
Zn2015 O2489   2.059   1_545 S
Zn2016 O2493   2.048   1_545 S
Zn2016 O2492   2.053   1_545 S
C2017  F2049   1.350   .     S
C2018  F2050   1.347   .     S
C2018  N2257   1.369   .     S
C2018  C35     1.428   1_556 S
C2019  F2051   1.351   .     S
C2019  N2258   1.367   .     A
C2020  F2052   1.351   .     S
C2020  C33     1.426   1_556 S
C2021  F2053   1.350   .     S
C2022  F2054   1.347   .     S
C2022  N2507   1.369   .     A
C2022  C39     1.428   1_556 S
C2023  F2055   1.351   .     S
C2023  N2508   1.367   .     S
C2024  F2056   1.351   .     S
C2024  C37     1.426   1_556 S
C2025  C2042   1.400   .     A
C2025  O2057   1.382   .     S
C2025  C2035   1.388   .     A
C2026  C2041   1.415   .     A
C2026  O2068   1.377   .     S
C2026  C2036   1.396   .     A
C2027  C2041   1.409   .     A
C2027  C2033   1.388   .     A
C2027  O2079   1.378   .     S
C2028  C2042   1.402   .     A
C2028  C2034   1.396   .     A
C2028  O2090   1.385   .     S
C2029  C2044   1.408   .     A
C2029  O2101   1.384   .     S
C2029  C2039   1.394   .     A
C2030  C2043   1.416   .     A
C2030  O2112   1.383   .     S
C2030  C2040   1.392   .     A
C2031  C2037   1.394   .     A
C2031  C2043   1.417   .     A
C2031  O2123   1.388   .     S
C2032  O2134   1.381   .     S
C2032  C2038   1.392   .     A
C2032  C2044   1.406   .     A
C2033  C2046   1.400   .     A
C2033  O2145   1.382   .     S
C2034  O2156   1.377   .     S
C2034  C2045   1.415   .     A
C2035  C2045   1.409   .     A
C2035  O2167   1.378   .     S
C2036  O2178   1.385   .     S
C2036  C2046   1.402   .     A
C2037  C2048   1.408   .     A
C2037  O2189   1.384   .     S
C2038  C2047   1.416   .     A
C2038  O2200   1.383   .     S
C2039  O2211   1.388   .     S
C2039  C2047   1.417   .     A
C2040  O2222   1.381   .     S
C2040  C2048   1.406   .     A
O2057  C2058   1.415   .     S
C2058  H2060   1.112   .     S
C2058  C2061   1.533   .     S
C2058  H2059   1.112   .     S
C2061  H2062   1.107   .     S
C2061  C2064   1.516   .     S
C2061  H2063   1.112   .     S
C2064  H2067   1.107   .     S
C2064  H2066   1.109   .     S
C2064  H2065   1.102   .     S
O2068  C2069   1.412   .     S
C2069  H2070   1.107   .     S
C2069  H2071   1.113   .     S
C2069  C2072   1.527   .     S
C2072  H2073   1.107   .     S
C2072  H2074   1.108   .     S
C2072  C2075   1.520   .     S
C2075  H2076   1.109   .     S
C2075  H93     1.103   1_556 S
C2075  H94     1.099   1_556 S
O2079  C2080   1.420   .     S
C2080  C2083   1.532   .     S
C2080  H2082   1.112   .     S
C2080  H2081   1.110   .     S
C2083  C2086   1.517   .     S
C2083  H2085   1.112   .     S
C2083  H2084   1.106   .     S
C2086  H2089   1.111   .     S
C2086  H2088   1.101   .     S
C2086  H2087   1.109   .     S
O2090  C2091   1.420   .     S
C2091  H2093   1.114   .     S
C2091  C2094   1.519   .     S
C2091  H2340   1.107   .     S
H2092  C2339   1.107   1_455 S
C2094  H2096   1.111   .     S
C2094  H2095   1.109   .     S
C2094  C2345   1.519   .     S
C2097  H2098   1.109   .     S
C2097  H2100   1.106   .     S
C2097  H2099   1.108   .     S
C2097  C2342   1.519   1_455 S
O2101  C2102   1.422   .     S
C2102  H2103   1.111   .     S
C2102  H2104   1.114   .     S
C2102  C2105   1.540   .     S
C2105  C2108   1.512   .     S
C2105  H2107   1.108   .     S
C2105  H2106   1.105   .     S
C2108  H2111   1.109   .     S
C2108  H2110   1.107   .     S
C2108  H2109   1.105   .     S
O2112  C2113   1.412   .     S
C2113  C2116   1.526   .     S
C2113  H2114   1.103   .     S
C2113  H2115   1.115   .     S
C2116  H2117   1.108   .     S
C2116  H2118   1.108   .     S
C2116  C2119   1.520   .     S
C2119  H2122   1.110   .     S
C2119  H2120   1.100   .     S
C2119  H2121   1.102   .     S
O2123  C2124   1.416   .     S
C2124  C2127   1.511   .     S
C2124  H2126   1.118   .     S
C2124  H2125   1.112   .     S
C2127  H2128   1.110   .     S
C2127  H2129   1.105   .     S
C2127  C2130   1.513   .     S
C2130  H2131   1.109   .     S
C2130  H2133   1.103   .     S
C2130  H2132   1.107   .     S
O2134  C2135   1.407   .     S
C2135  C2138   1.520   .     S
C2135  H2136   1.112   .     S
C2135  H2137   1.109   .     S
C2138  H2140   1.106   .     S
C2138  H2139   1.104   .     S
C2141  H2143   1.098   .     S
C2141  C154    1.519   1_556 S
C2141  H158    1.106   1_556 S
C2141  H408    1.104   1_456 S
O2145  C2146   1.415   .     S
C2146  C2149   1.533   .     S
C2146  H2147   1.112   .     S
C2146  H2148   1.112   .     S
C2149  H2150   1.107   .     S
C2149  H2151   1.112   .     S
C2149  C2152   1.516   .     S
C2152  H2154   1.109   .     S
C2152  H2155   1.107   .     S
C2152  H2649   1.102   .     S
H2153  C2648   1.102   1_545 S
O2156  C2157   1.412   .     S
C2157  H2158   1.107   .     S
C2157  H2159   1.113   .     S
C2157  C2160   1.527   .     S
C2160  C2163   1.520   .     S
C2160  H2161   1.106   .     S
C2160  H2162   1.108   .     S
C2163  H2164   1.109   .     S
C2163  H181    1.103   1_556 S
C2163  H182    1.099   1_556 S
O2167  C2168   1.420   .     S
C2168  H2169   1.110   .     S
C2168  C2171   1.532   .     S
C2168  H2170   1.112   .     S
C2171  C2174   1.517   .     S
C2171  H2172   1.106   .     S
C2171  H2173   1.113   .     S
C2174  H2177   1.112   .     S
C2174  H2176   1.101   .     S
C2174  H2671   1.109   1_545 S
H2175  C2670   1.109   .     S
O2178  C2179   1.420   .     S
C2179  H2180   1.107   .     S
C2179  H2181   1.114   .     S
C2179  C2182   1.519   .     S
C2182  H2183   1.109   .     S
C2182  C2185   1.519   .     S
C2182  H2184   1.111   .     S
C2185  H2187   1.108   .     S
C2185  H2186   1.109   .     S
C2185  H2188   1.106   .     S
O2189  C2190   1.422   .     S
C2190  H2192   1.114   .     S
C2190  H2191   1.111   .     S
C2190  C2193   1.541   .     S
C2193  H2195   1.108   .     S
C2193  H2194   1.105   .     S
C2193  C2196   1.512   .     S
C2196  H2199   1.109   .     S
C2196  H2198   1.107   .     S
C2196  H2197   1.105   .     S
O2200  C2201   1.412   .     S
C2201  H2202   1.103   .     S
C2201  C2204   1.526   .     S
C2201  H2203   1.115   .     S
C2204  H2206   1.108   .     S
C2204  H2205   1.108   .     S
C2204  C2207   1.520   .     S
C2207  H2210   1.110   .     S
C2207  H2208   1.099   .     S
C2207  H2209   1.102   .     S
O2211  C2212   1.416   .     S
C2212  C2215   1.511   .     S
C2212  H2214   1.118   .     S
C2212  H2213   1.112   .     S
C2215  H2217   1.105   .     S
C2215  H2216   1.110   .     S
C2215  C2714   1.513   1_545 S
C2218  H2220   1.107   .     S
C2218  H2221   1.103   .     S
C2218  H2219   1.109   .     S
C2218  C2711   1.513   .     S
O2222  C2223   1.408   .     S
C2223  H2224   1.112   .     S
C2223  H2225   1.109   .     S
C2223  C2226   1.520   .     S
C2226  H2228   1.105   .     S
C2226  H2227   1.104   .     S
C2229  H2231   1.098   .     S
C2229  C242    1.519   1_556 S
C2229  H246    1.106   1_556 S
C2229  H248    1.104   1_556 S
O2233  C2249   1.308   .     A
O2233  Zn2261  2.059   .     S
O2234  C2250   1.305   .     A
O2234  Zn2014  2.059   1_655 S
O2235  C2250   1.310   .     A
O2235  Zn2013  2.053   1_655 S
O2236  C2249   1.305   .     A
O2236  Zn2262  2.053   .     S
O2237  C2251   1.297   .     A
O2237  Zn2014  2.048   1_655 S
O2238  C2252   1.311   .     A
O2238  Zn2261  2.048   .     S
O2239  Zn2262  2.042   .     S
O2239  C2252   1.307   .     A
O2240  Zn2013  2.042   1_655 S
O2240  C2251   1.306   .     A
O2241  C2253   1.308   .     A
O2241  Zn2759  2.059   .     S
O2242  C2254   1.305   .     A
O2242  Zn2264  2.059   .     S
O2243  Zn2263  2.053   .     S
O2243  C2254   1.310   .     A
O2244  C2253   1.305   .     A
O2244  Zn2760  2.053   .     S
O2245  C2255   1.297   .     A
O2245  Zn2760  2.048   .     S
O2246  Zn2263  2.048   .     S
O2246  C2256   1.312   .     A
O2247  Zn2264  2.042   .     S
O2247  C2256   1.307   .     A
O2248  C2255   1.306   .     A
O2248  Zn2759  2.042   .     S
C2249  C2292   1.467   .     S
C2250  C2291   1.472   .     S
C2251  C2290   1.452   .     S
C2252  C2289   1.477   .     S
C2253  C2296   1.467   .     S
C2254  C2295   1.472   .     S
C2255  C2294   1.451   .     S
C2256  C2293   1.477   .     S
N2257  C2268   1.368   .     A
N2257  Zn2261  2.042   .     S
N2258  Zn2262  2.042   .     S
N2258  C2265   1.368   .     S
N2259  C2766   1.369   1_545 A
N2259  Zn2263  2.042   .     S
N2259  C2272   1.368   .     S
N2260  Zn2264  2.042   .     S
N2260  C2269   1.368   .     A
N2260  C2767   1.367   1_545 S
Zn2263 O2744   2.042   1_545 S
Zn2263 O2737   2.059   1_545 S
Zn2264 O2741   2.048   1_545 S
Zn2264 O2740   2.053   1_545 S
C2265  F2297   1.350   .     S
C2266  F2298   1.347   .     S
C2266  N2009   1.369   1_655 S
C2266  C283    1.428   1_556 S
C2267  F2299   1.351   .     S
C2267  N2010   1.367   1_655 A
C2268  F2300   1.351   .     S
C2268  C281    1.426   1_556 S
C2269  F2301   1.350   .     S
C2270  F2302   1.347   .     S
C2270  N2755   1.369   .     A
C2270  C287    1.428   1_556 S
C2271  F2303   1.351   .     S
C2271  N2756   1.367   .     S
C2272  F2304   1.351   .     S
C2272  C285    1.426   1_556 S
C2273  C2290   1.400   .     A
C2273  O2305   1.382   .     S
C2273  C2283   1.388   .     A
C2274  C2289   1.415   .     A
C2274  O2316   1.377   .     S
C2274  C2284   1.396   .     A
C2275  C2289   1.409   .     A
C2275  C2281   1.388   .     A
C2275  O2327   1.378   .     S
C2276  C2290   1.402   .     A
C2276  C2282   1.396   .     A
C2276  O2338   1.385   .     S
C2277  C2292   1.408   .     A
C2277  O2349   1.384   .     S
C2277  C2287   1.394   .     A
C2278  C2291   1.416   .     A
C2278  O2360   1.383   .     S
C2278  C2288   1.392   .     A
C2279  C2285   1.394   .     A
C2279  C2291   1.417   .     A
C2279  O2371   1.388   .     S
C2280  O2382   1.381   .     S
C2280  C2286   1.392   .     A
C2280  C2292   1.406   .     A
C2281  C2294   1.400   .     A
C2281  O2393   1.382   .     S
C2282  O2404   1.377   .     S
C2282  C2293   1.415   .     A
C2283  C2293   1.409   .     A
C2283  O2415   1.378   .     S
C2284  O2426   1.385   .     S
C2284  C2294   1.402   .     A
C2285  C2296   1.408   .     A
C2285  O2437   1.384   .     S
C2286  C2295   1.416   .     A
C2286  O2448   1.383   .     S
C2287  O2459   1.388   .     S
C2287  C2295   1.417   .     A
C2288  O2470   1.381   .     S
C2288  C2296   1.406   .     A
O2305  C2306   1.415   .     S
C2306  H2308   1.112   .     S
C2306  C2309   1.533   .     S
C2306  H2307   1.112   .     S
C2309  H2310   1.107   .     S
C2309  C2312   1.516   .     S
C2309  H2311   1.112   .     S
C2312  H2315   1.107   .     S
C2312  H2314   1.109   .     S
C2312  H2313   1.102   .     S
O2316  C2317   1.412   .     S
C2317  H2318   1.107   .     S
C2317  H2319   1.113   .     S
C2317  C2320   1.527   .     S
C2320  H2321   1.107   .     S
C2320  H2322   1.108   .     S
C2320  C2323   1.520   .     S
C2323  H2324   1.109   .     S
C2323  H341    1.103   1_556 S
C2323  H342    1.099   1_556 S
O2327  C2328   1.420   .     S
C2328  C2331   1.532   .     S
C2328  H2330   1.112   .     S
C2328  H2329   1.110   .     S
C2331  C2334   1.517   .     S
C2331  H2333   1.112   .     S
C2331  H2332   1.106   .     S
C2334  H2337   1.111   .     S
C2334  H2336   1.101   .     S
C2334  H2335   1.109   .     S
O2338  C2339   1.420   .     S
C2339  H2341   1.114   .     S
C2339  C2342   1.519   .     S
C2339  H2092   1.107   1_655 S
C2342  H2344   1.111   .     S
C2342  H2343   1.109   .     S
C2342  C2097   1.519   1_655 S
C2345  H2346   1.109   .     S
C2345  H2348   1.106   .     S
C2345  H2347   1.108   .     S
O2349  C2350   1.422   .     S
C2350  H2351   1.111   .     S
C2350  H2352   1.114   .     S
C2350  C2353   1.540   .     S
C2353  C2356   1.512   .     S
C2353  H2355   1.108   .     S
C2353  H2354   1.105   .     S
C2356  H2359   1.109   .     S
C2356  H2358   1.107   .     S
C2356  H2357   1.105   .     S
O2360  C2361   1.412   .     S
C2361  C2364   1.526   .     S
C2361  H2362   1.103   .     S
C2361  H2363   1.115   .     S
C2364  H2365   1.108   .     S
C2364  H2366   1.108   .     S
C2364  C2367   1.520   .     S
C2367  H2370   1.110   .     S
C2367  H2368   1.100   .     S
C2367  H2369   1.102   .     S
O2371  C2372   1.416   .     S
C2372  C2375   1.511   .     S
C2372  H2374   1.118   .     S
C2372  H2373   1.112   .     S
C2375  H2376   1.110   .     S
C2375  H2377   1.105   .     S
C2375  C2378   1.513   .     S
C2378  H2379   1.109   .     S
C2378  H2381   1.103   .     S
C2378  H2380   1.107   .     S
O2382  C2383   1.407   .     S
C2383  C2386   1.520   .     S
C2383  H2384   1.112   .     S
C2383  H2385   1.109   .     S
C2386  H2388   1.106   .     S
C2386  H2387   1.104   .     S
C2389  H2391   1.098   .     S
C2389  C402    1.519   1_556 S
C2389  H406    1.106   1_556 S
C2389  H160    1.104   1_556 S
H2392  C1149   1.104   1_655 S
O2393  C2394   1.415   .     S
C2394  C2397   1.533   .     S
C2394  H2395   1.112   .     S
C2394  H2396   1.112   .     S
C2397  H2398   1.107   .     S
C2397  H2399   1.112   .     S
C2397  C2400   1.516   .     S
C2400  H2402   1.109   .     S
C2400  H2403   1.107   .     S
C2400  H2897   1.102   .     S
H2401  C2896   1.102   1_545 S
O2404  C2405   1.412   .     S
C2405  H2406   1.107   .     S
C2405  H2407   1.113   .     S
C2405  C2408   1.527   .     S
C2408  C2411   1.520   .     S
C2408  H2409   1.106   .     S
C2408  H2410   1.108   .     S
C2411  H2412   1.109   .     S
C2411  H429    1.103   1_556 S
C2411  H430    1.099   1_556 S
O2415  C2416   1.420   .     S
C2416  H2417   1.110   .     S
C2416  C2419   1.532   .     S
C2416  H2418   1.112   .     S
C2419  C2422   1.517   .     S
C2419  H2420   1.106   .     S
C2419  H2421   1.113   .     S
C2422  H2425   1.112   .     S
C2422  H2424   1.101   .     S
C2422  H2919   1.109   1_545 S
H2423  C2918   1.109   .     S
O2426  C2427   1.420   .     S
C2427  H2428   1.107   .     S
C2427  H2429   1.114   .     S
C2427  C2430   1.519   .     S
C2430  H2431   1.109   .     S
C2430  C2433   1.519   .     S
C2430  H2432   1.111   .     S
C2433  H2435   1.108   .     S
C2433  H2434   1.109   .     S
C2433  H2436   1.106   .     S
O2437  C2438   1.422   .     S
C2438  H2440   1.114   .     S
C2438  H2439   1.111   .     S
C2438  C2441   1.541   .     S
C2441  H2443   1.108   .     S
C2441  H2442   1.105   .     S
C2441  C2444   1.512   .     S
C2444  H2447   1.109   .     S
C2444  H2446   1.107   .     S
C2444  H2445   1.105   .     S
O2448  C2449   1.412   .     S
C2449  H2450   1.103   .     S
C2449  C2452   1.526   .     S
C2449  H2451   1.115   .     S
C2452  H2454   1.108   .     S
C2452  H2453   1.108   .     S
C2452  C2455   1.520   .     S
C2455  H2458   1.110   .     S
C2455  H2456   1.099   .     S
C2455  H2457   1.102   .     S
O2459  C2460   1.416   .     S
C2460  C2463   1.511   .     S
C2460  H2462   1.118   .     S
C2460  H2461   1.112   .     S
C2463  H2465   1.105   .     S
C2463  H2464   1.110   .     S
C2463  C2962   1.513   1_545 S
C2466  H2468   1.107   .     S
C2466  H2469   1.103   .     S
C2466  H2467   1.109   .     S
C2466  C2959   1.513   .     S
O2470  C2471   1.408   .     S
C2471  H2472   1.112   .     S
C2471  H2473   1.109   .     S
C2471  C2474   1.520   .     S
C2474  H2476   1.105   .     S
C2474  H2475   1.104   .     S
C2477  H2479   1.098   .     S
C2477  C490    1.519   1_556 S
C2477  H494    1.106   1_556 S
C2477  H496    1.104   1_556 S
O2481  C2497   1.308   .     A
O2481  Zn2509  2.059   .     S
O2482  C2498   1.305   .     A
O2482  Zn2758  2.059   .     S
O2483  C2498   1.310   .     A
O2483  Zn2757  2.053   .     S
O2484  C2497   1.305   .     A
O2484  Zn2510  2.053   .     S
O2485  C2499   1.297   .     A
O2485  Zn2758  2.048   .     S
O2486  C2500   1.311   .     A
O2486  Zn2509  2.048   .     S
O2487  Zn2510  2.042   .     S
O2487  C2500   1.307   .     A
O2488  Zn2757  2.042   .     S
O2488  C2499   1.306   .     A
O2489  C2501   1.308   .     A
O2489  Zn2015  2.059   1_565 S
O2490  C2502   1.305   .     A
O2490  Zn2512  2.059   .     S
O2491  Zn2511  2.053   .     S
O2491  C2502   1.310   .     A
O2492  C2501   1.305   .     A
O2492  Zn2016  2.053   1_565 S
O2493  C2503   1.297   .     A
O2493  Zn2016  2.048   1_565 S
O2494  Zn2511  2.048   .     S
O2494  C2504   1.312   .     A
O2495  Zn2512  2.042   .     S
O2495  C2504   1.307   .     A
O2496  C2503   1.306   .     A
O2496  Zn2015  2.042   1_565 S
C2497  C2540   1.467   .     S
C2498  C2539   1.472   .     S
C2499  C2538   1.452   .     S
C2500  C2537   1.477   .     S
C2501  C2544   1.467   .     S
C2502  C2543   1.472   .     S
C2503  C2542   1.451   .     S
C2504  C2541   1.477   .     S
N2505  C2516   1.368   .     A
N2505  Zn2509  2.042   .     S
N2505  C2762   1.369   1_455 S
N2506  C2763   1.367   1_455 A
N2506  Zn2510  2.042   .     S
N2506  C2513   1.368   .     S
N2507  Zn2511  2.042   .     S
N2507  C2520   1.368   .     S
N2508  Zn2512  2.042   .     S
N2508  C2517   1.368   .     A
Zn2509 O2736   2.042   1_455 S
Zn2509 O2731   2.053   1_455 S
Zn2510 O2733   2.048   1_455 S
Zn2510 O2730   2.059   1_455 S
C2513  F2545   1.350   .     S
C2514  F2546   1.347   .     S
C2514  N2753   1.369   .     S
C2514  C531    1.428   1_556 S
C2515  F2547   1.351   .     S
C2515  N2754   1.367   .     A
C2516  F2548   1.351   .     S
C2516  C529    1.426   1_556 S
C2517  F2549   1.350   .     S
C2518  F2550   1.347   .     S
C2518  N2011   1.369   1_565 A
C2518  C535    1.428   1_556 S
C2519  F2551   1.351   .     S
C2519  N2012   1.367   1_565 S
C2520  F2552   1.351   .     S
C2520  C533    1.426   1_556 S
C2521  C2538   1.400   .     A
C2521  O2553   1.382   .     S
C2521  C2531   1.388   .     A
C2522  C2537   1.415   .     A
C2522  O2564   1.377   .     S
C2522  C2532   1.396   .     A
C2523  C2537   1.409   .     A
C2523  C2529   1.388   .     A
C2523  O2575   1.378   .     S
C2524  C2538   1.402   .     A
C2524  C2530   1.396   .     A
C2524  O2586   1.385   .     S
C2525  C2540   1.408   .     A
C2525  O2597   1.384   .     S
C2525  C2535   1.394   .     A
C2526  C2539   1.416   .     A
C2526  O2608   1.383   .     S
C2526  C2536   1.392   .     A
C2527  C2533   1.394   .     A
C2527  C2539   1.417   .     A
C2527  O2619   1.388   .     S
C2528  O2630   1.381   .     S
C2528  C2534   1.392   .     A
C2528  C2540   1.406   .     A
C2529  C2542   1.400   .     A
C2529  O2641   1.382   .     S
C2530  O2652   1.377   .     S
C2530  C2541   1.415   .     A
C2531  C2541   1.409   .     A
C2531  O2663   1.378   .     S
C2532  O2674   1.385   .     S
C2532  C2542   1.402   .     A
C2533  C2544   1.408   .     A
C2533  O2685   1.384   .     S
C2534  C2543   1.416   .     A
C2534  O2696   1.383   .     S
C2535  O2707   1.388   .     S
C2535  C2543   1.417   .     A
C2536  O2718   1.381   .     S
C2536  C2544   1.406   .     A
O2553  C2554   1.415   .     S
C2554  H2556   1.112   .     S
C2554  C2557   1.533   .     S
C2554  H2555   1.112   .     S
C2557  H2558   1.107   .     S
C2557  C2560   1.516   .     S
C2557  H2559   1.112   .     S
C2560  H2563   1.107   .     S
C2560  H2562   1.109   .     S
C2560  H2561   1.102   .     S
O2564  C2565   1.412   .     S
C2565  H2566   1.107   .     S
C2565  H2567   1.113   .     S
C2565  C2568   1.527   .     S
C2568  H2569   1.107   .     S
C2568  H2570   1.108   .     S
C2568  C2571   1.520   .     S
C2571  H2572   1.109   .     S
C2571  H589    1.103   1_556 S
C2571  H590    1.099   1_556 S
O2575  C2576   1.420   .     S
C2576  C2579   1.532   .     S
C2576  H2578   1.112   .     S
C2576  H2577   1.110   .     S
C2579  C2582   1.517   .     S
C2579  H2581   1.112   .     S
C2579  H2580   1.106   .     S
C2582  H2585   1.111   .     S
C2582  H2584   1.101   .     S
C2582  H2583   1.109   .     S
O2586  C2587   1.420   .     S
C2587  H2589   1.114   .     S
C2587  C2590   1.519   .     S
C2587  H2836   1.107   .     S
H2588  C2835   1.107   1_455 S
C2590  H2592   1.111   .     S
C2590  H2591   1.109   .     S
C2590  C2841   1.519   .     S
C2593  H2594   1.109   .     S
C2593  H2596   1.106   .     S
C2593  H2595   1.108   .     S
C2593  C2838   1.519   1_455 S
O2597  C2598   1.422   .     S
C2598  H2599   1.111   .     S
C2598  H2600   1.114   .     S
C2598  C2601   1.540   .     S
C2601  C2604   1.512   .     S
C2601  H2603   1.108   .     S
C2601  H2602   1.105   .     S
C2604  H2607   1.109   .     S
C2604  H2606   1.107   .     S
C2604  H2605   1.105   .     S
O2608  C2609   1.412   .     S
C2609  C2612   1.526   .     S
C2609  H2610   1.103   .     S
C2609  H2611   1.115   .     S
C2612  H2613   1.108   .     S
C2612  H2614   1.108   .     S
C2612  C2615   1.520   .     S
C2615  H2618   1.110   .     S
C2615  H2616   1.100   .     S
C2615  H2617   1.102   .     S
O2619  C2620   1.416   .     S
C2620  C2623   1.511   .     S
C2620  H2622   1.118   .     S
C2620  H2621   1.112   .     S
C2623  H2624   1.110   .     S
C2623  H2625   1.105   .     S
C2623  C2626   1.513   .     S
C2626  H2627   1.109   .     S
C2626  H2629   1.103   .     S
C2626  H2628   1.107   .     S
O2630  C2631   1.407   .     S
C2631  C2634   1.520   .     S
C2631  H2632   1.112   .     S
C2631  H2633   1.109   .     S
C2634  H2636   1.106   .     S
C2634  H2635   1.104   .     S
C2637  H2639   1.098   .     S
C2637  C650    1.519   1_556 S
C2637  H654    1.106   1_556 S
C2637  H904    1.104   1_456 S
O2641  C2642   1.415   .     S
C2642  C2645   1.533   .     S
C2642  H2643   1.112   .     S
C2642  H2644   1.112   .     S
C2645  H2646   1.107   .     S
C2645  H2647   1.112   .     S
C2645  C2648   1.516   .     S
C2648  H2650   1.109   .     S
C2648  H2651   1.107   .     S
C2648  H2153   1.102   1_565 S
O2652  C2653   1.412   .     S
C2653  H2654   1.107   .     S
C2653  H2655   1.113   .     S
C2653  C2656   1.527   .     S
C2656  C2659   1.520   .     S
C2656  H2657   1.106   .     S
C2656  H2658   1.108   .     S
C2659  H2660   1.109   .     S
C2659  H677    1.103   1_556 S
C2659  H678    1.099   1_556 S
O2663  C2664   1.420   .     S
C2664  H2665   1.110   .     S
C2664  C2667   1.532   .     S
C2664  H2666   1.112   .     S
C2667  C2670   1.517   .     S
C2667  H2668   1.106   .     S
C2667  H2669   1.113   .     S
C2670  H2673   1.112   .     S
C2670  H2672   1.101   .     S
H2671  C2174   1.109   1_565 S
O2674  C2675   1.420   .     S
C2675  H2676   1.107   .     S
C2675  H2677   1.114   .     S
C2675  C2678   1.519   .     S
C2678  H2679   1.109   .     S
C2678  C2681   1.519   .     S
C2678  H2680   1.111   .     S
C2681  H2683   1.108   .     S
C2681  H2682   1.109   .     S
C2681  H2684   1.106   .     S
O2685  C2686   1.422   .     S
C2686  H2688   1.114   .     S
C2686  H2687   1.111   .     S
C2686  C2689   1.541   .     S
C2689  H2691   1.108   .     S
C2689  H2690   1.105   .     S
C2689  C2692   1.512   .     S
C2692  H2695   1.109   .     S
C2692  H2694   1.107   .     S
C2692  H2693   1.105   .     S
O2696  C2697   1.412   .     S
C2697  H2698   1.103   .     S
C2697  C2700   1.526   .     S
C2697  H2699   1.115   .     S
C2700  H2702   1.108   .     S
C2700  H2701   1.108   .     S
C2700  C2703   1.520   .     S
C2703  H2706   1.110   .     S
C2703  H2704   1.099   .     S
C2703  H2705   1.102   .     S
O2707  C2708   1.416   .     S
C2708  C2711   1.511   .     S
C2708  H2710   1.118   .     S
C2708  H2709   1.112   .     S
C2711  H2713   1.105   .     S
C2711  H2712   1.110   .     S
C2714  H2716   1.107   .     S
C2714  H2717   1.103   .     S
C2714  H2715   1.109   .     S
C2714  C2215   1.513   1_565 S
O2718  C2719   1.408   .     S
C2719  H2720   1.112   .     S
C2719  H2721   1.109   .     S
C2719  C2722   1.520   .     S
C2722  H2724   1.105   .     S
C2722  H2723   1.104   .     S
C2725  H2727   1.098   .     S
C2725  C738    1.519   1_556 S
C2725  H742    1.106   1_556 S
C2725  H744    1.104   1_556 S
O2729  C2745   1.308   .     A
O2729  Zn2757  2.059   .     S
O2730  C2746   1.305   .     A
O2730  Zn2510  2.059   1_655 S
O2731  C2746   1.310   .     A
O2731  Zn2509  2.053   1_655 S
O2732  C2745   1.305   .     A
O2732  Zn2758  2.053   .     S
O2733  C2747   1.297   .     A
O2733  Zn2510  2.048   1_655 S
O2734  C2748   1.311   .     A
O2734  Zn2757  2.048   .     S
O2735  Zn2758  2.042   .     S
O2735  C2748   1.307   .     A
O2736  Zn2509  2.042   1_655 S
O2736  C2747   1.306   .     A
O2737  C2749   1.308   .     A
O2737  Zn2263  2.059   1_565 S
O2738  C2750   1.305   .     A
O2738  Zn2760  2.059   .     S
O2739  Zn2759  2.053   .     S
O2739  C2750   1.310   .     A
O2740  C2749   1.305   .     A
O2740  Zn2264  2.053   1_565 S
O2741  C2751   1.297   .     A
O2741  Zn2264  2.048   1_565 S
O2742  Zn2759  2.048   .     S
O2742  C2752   1.312   .     A
O2743  Zn2760  2.042   .     S
O2743  C2752   1.307   .     A
O2744  C2751   1.306   .     A
O2744  Zn2263  2.042   1_565 S
C2745  C2788   1.467   .     S
C2746  C2787   1.472   .     S
C2747  C2786   1.452   .     S
C2748  C2785   1.477   .     S
C2749  C2792   1.467   .     S
C2750  C2791   1.472   .     S
C2751  C2790   1.451   .     S
C2752  C2789   1.477   .     S
N2753  C2764   1.368   .     A
N2753  Zn2757  2.042   .     S
N2754  Zn2758  2.042   .     S
N2754  C2761   1.368   .     S
N2755  Zn2759  2.042   .     S
N2755  C2768   1.368   .     S
N2756  Zn2760  2.042   .     S
N2756  C2765   1.368   .     A
C2761  F2793   1.350   .     S
C2762  F2794   1.347   .     S
C2762  N2505   1.369   1_655 S
C2762  C779    1.428   1_556 S
C2763  F2795   1.351   .     S
C2763  N2506   1.367   1_655 A
C2764  F2796   1.351   .     S
C2764  C777    1.426   1_556 S
C2765  F2797   1.350   .     S
C2766  F2798   1.347   .     S
C2766  N2259   1.369   1_565 A
C2766  C783    1.428   1_556 S
C2767  F2799   1.351   .     S
C2767  N2260   1.367   1_565 S
C2768  F2800   1.351   .     S
C2768  C781    1.426   1_556 S
C2769  C2786   1.400   .     A
C2769  O2801   1.382   .     S
C2769  C2779   1.388   .     A
C2770  C2785   1.415   .     A
C2770  O2812   1.377   .     S
C2770  C2780   1.396   .     A
C2771  C2785   1.409   .     A
C2771  C2777   1.388   .     A
C2771  O2823   1.378   .     S
C2772  C2786   1.402   .     A
C2772  C2778   1.396   .     A
C2772  O2834   1.385   .     S
C2773  C2788   1.408   .     A
C2773  O2845   1.384   .     S
C2773  C2783   1.394   .     A
C2774  C2787   1.416   .     A
C2774  O2856   1.383   .     S
C2774  C2784   1.392   .     A
C2775  C2781   1.394   .     A
C2775  C2787   1.417   .     A
C2775  O2867   1.388   .     S
C2776  O2878   1.381   .     S
C2776  C2782   1.392   .     A
C2776  C2788   1.406   .     A
C2777  C2790   1.400   .     A
C2777  O2889   1.382   .     S
C2778  O2900   1.377   .     S
C2778  C2789   1.415   .     A
C2779  C2789   1.409   .     A
C2779  O2911   1.378   .     S
C2780  O2922   1.385   .     S
C2780  C2790   1.402   .     A
C2781  C2792   1.408   .     A
C2781  O2933   1.384   .     S
C2782  C2791   1.416   .     A
C2782  O2944   1.383   .     S
C2783  O2955   1.388   .     S
C2783  C2791   1.417   .     A
C2784  O2966   1.381   .     S
C2784  C2792   1.406   .     A
O2801  C2802   1.415   .     S
C2802  H2804   1.112   .     S
C2802  C2805   1.533   .     S
C2802  H2803   1.112   .     S
C2805  H2806   1.107   .     S
C2805  C2808   1.516   .     S
C2805  H2807   1.112   .     S
C2808  H2811   1.107   .     S
C2808  H2810   1.109   .     S
C2808  H2809   1.102   .     S
O2812  C2813   1.412   .     S
C2813  H2814   1.107   .     S
C2813  H2815   1.113   .     S
C2813  C2816   1.527   .     S
C2816  H2817   1.107   .     S
C2816  H2818   1.108   .     S
C2816  C2819   1.520   .     S
C2819  H2820   1.109   .     S
C2819  H837    1.103   1_556 S
C2819  H838    1.099   1_556 S
O2823  C2824   1.420   .     S
C2824  C2827   1.532   .     S
C2824  H2826   1.112   .     S
C2824  H2825   1.110   .     S
C2827  C2830   1.517   .     S
C2827  H2829   1.112   .     S
C2827  H2828   1.106   .     S
C2830  H2833   1.111   .     S
C2830  H2832   1.101   .     S
C2830  H2831   1.109   .     S
O2834  C2835   1.420   .     S
C2835  H2837   1.114   .     S
C2835  C2838   1.519   .     S
C2835  H2588   1.107   1_655 S
C2838  H2840   1.111   .     S
C2838  H2839   1.109   .     S
C2838  C2593   1.519   1_655 S
C2841  H2842   1.109   .     S
C2841  H2844   1.106   .     S
C2841  H2843   1.108   .     S
O2845  C2846   1.422   .     S
C2846  H2847   1.111   .     S
C2846  H2848   1.114   .     S
C2846  C2849   1.540   .     S
C2849  C2852   1.512   .     S
C2849  H2851   1.108   .     S
C2849  H2850   1.105   .     S
C2852  H2855   1.109   .     S
C2852  H2854   1.107   .     S
C2852  H2853   1.105   .     S
O2856  C2857   1.412   .     S
C2857  C2860   1.526   .     S
C2857  H2858   1.103   .     S
C2857  H2859   1.115   .     S
C2860  H2861   1.108   .     S
C2860  H2862   1.108   .     S
C2860  C2863   1.520   .     S
C2863  H2866   1.110   .     S
C2863  H2864   1.100   .     S
C2863  H2865   1.102   .     S
O2867  C2868   1.416   .     S
C2868  C2871   1.511   .     S
C2868  H2870   1.118   .     S
C2868  H2869   1.112   .     S
C2871  H2872   1.110   .     S
C2871  H2873   1.105   .     S
C2871  C2874   1.513   .     S
C2874  H2875   1.109   .     S
C2874  H2877   1.103   .     S
C2874  H2876   1.107   .     S
O2878  C2879   1.407   .     S
C2879  C2882   1.520   .     S
C2879  H2880   1.112   .     S
C2879  H2881   1.109   .     S
C2882  H2884   1.106   .     S
C2882  H2883   1.104   .     S
C2885  H2887   1.098   .     S
C2885  C898    1.519   1_556 S
C2885  H902    1.106   1_556 S
C2885  H656    1.104   1_556 S
H2888  C1645   1.104   1_655 S
O2889  C2890   1.415   .     S
C2890  C2893   1.533   .     S
C2890  H2891   1.112   .     S
C2890  H2892   1.112   .     S
C2893  H2894   1.107   .     S
C2893  H2895   1.112   .     S
C2893  C2896   1.516   .     S
C2896  H2898   1.109   .     S
C2896  H2899   1.107   .     S
C2896  H2401   1.102   1_565 S
O2900  C2901   1.412   .     S
C2901  H2902   1.107   .     S
C2901  H2903   1.113   .     S
C2901  C2904   1.527   .     S
C2904  C2907   1.520   .     S
C2904  H2905   1.106   .     S
C2904  H2906   1.108   .     S
C2907  H2908   1.109   .     S
C2907  H925    1.103   1_556 S
C2907  H926    1.099   1_556 S
O2911  C2912   1.420   .     S
C2912  H2913   1.110   .     S
C2912  C2915   1.532   .     S
C2912  H2914   1.112   .     S
C2915  C2918   1.517   .     S
C2915  H2916   1.106   .     S
C2915  H2917   1.113   .     S
C2918  H2921   1.112   .     S
C2918  H2920   1.101   .     S
H2919  C2422   1.109   1_565 S
O2922  C2923   1.420   .     S
C2923  H2924   1.107   .     S
C2923  H2925   1.114   .     S
C2923  C2926   1.519   .     S
C2926  H2927   1.109   .     S
C2926  C2929   1.519   .     S
C2926  H2928   1.111   .     S
C2929  H2931   1.108   .     S
C2929  H2930   1.109   .     S
C2929  H2932   1.106   .     S
O2933  C2934   1.422   .     S
C2934  H2936   1.114   .     S
C2934  H2935   1.111   .     S
C2934  C2937   1.541   .     S
C2937  H2939   1.108   .     S
C2937  H2938   1.105   .     S
C2937  C2940   1.512   .     S
C2940  H2943   1.109   .     S
C2940  H2942   1.107   .     S
C2940  H2941   1.105   .     S
O2944  C2945   1.412   .     S
C2945  H2946   1.103   .     S
C2945  C2948   1.526   .     S
C2945  H2947   1.115   .     S
C2948  H2950   1.108   .     S
C2948  H2949   1.108   .     S
C2948  C2951   1.520   .     S
C2951  H2954   1.110   .     S
C2951  H2952   1.099   .     S
C2951  H2953   1.102   .     S
O2955  C2956   1.416   .     S
C2956  C2959   1.511   .     S
C2956  H2958   1.118   .     S
C2956  H2957   1.112   .     S
C2959  H2961   1.105   .     S
C2959  H2960   1.110   .     S
C2962  H2964   1.107   .     S
C2962  H2965   1.103   .     S
C2962  H2963   1.109   .     S
C2962  C2463   1.513   1_565 S
O2966  C2967   1.408   .     S
C2967  H2968   1.112   .     S
C2967  H2969   1.109   .     S
C2967  C2970   1.520   .     S
C2970  H2972   1.105   .     S
C2970  H2971   1.104   .     S
C2973  H2975   1.098   .     S
C2973  C986    1.519   1_556 S
C2973  H990    1.106   1_556 S
C2973  H992    1.104   1_556 S
