data_str_m3_o10_o18_pcu_sym.22
_audit_creation_date              2020-01-03
_audit_creation_method            'Materials Studio'
_symmetry_space_group_name_H-M    'P1'
_symmetry_Int_Tables_number       1
_symmetry_cell_setting            triclinic
loop_
_symmetry_equiv_pos_as_xyz
  x,y,z
_cell_length_a                    23.6409
_cell_length_b                    25.6741
_cell_length_c                    27.4461
_cell_angle_alpha                 93.6424
_cell_angle_beta                  92.9786
_cell_angle_gamma                 94.0547
loop_
_atom_site_label
_atom_site_type_symbol
_atom_site_fract_x
_atom_site_fract_y
_atom_site_fract_z
_atom_site_U_iso_or_equiv
_atom_site_adp_type
_atom_site_occupancy
O1     O     0.29719   0.24631   0.25309   0.00000  Uiso   1.00
O2     O     0.03614   0.08702   0.24690   0.00000  Uiso   1.00
O3     O     0.05822   0.23702   0.24501   0.00000  Uiso   1.00
O4     O     0.27512   0.09632   0.25498   0.00000  Uiso   1.00
C5     C     0.01496   0.26481   0.24881   0.00000  Uiso   1.00
C6     C     0.31838   0.06852   0.25122   0.00000  Uiso   1.00
O7     O     0.30328   0.17397   0.32247   0.00000  Uiso   1.00
O8     O     0.03005   0.15937   0.17753   0.00000  Uiso   1.00
O9     O     0.06431   0.16467   0.31439   0.00000  Uiso   1.00
O10    O     0.26902   0.16866   0.18561   0.00000  Uiso   1.00
C11    C     0.02114   0.17127   0.34102   0.00000  Uiso   1.00
C12    C     0.31241   0.16308   0.15892   0.00000  Uiso   1.00
Zn13   Zn    0.27033   0.17287   0.25539   0.00000  Uiso   1.00
Zn14   Zn    0.06300   0.16046   0.24460   0.00000  Uiso   1.00
C15    C     0.03328   0.18220   0.39312   0.00000  Uiso   1.00
C16    C     0.30261   0.16081   0.10611   0.00000  Uiso   1.00
C17    C     0.02667   0.23811   0.46635   0.00000  Uiso   1.00
C18    C     0.32128   0.12599   0.02534   0.00000  Uiso   1.00
C19    C     0.00462   0.21915   0.42002   0.00000  Uiso   1.00
C20    C     0.00433   0.13459   0.07482   0.00000  Uiso   1.00
C21    C     0.08215   0.16311   0.41298   0.00000  Uiso   1.00
C22    C     0.25423   0.18211   0.08750   0.00000  Uiso   1.00
C23    C     0.10863   0.18602   0.45641   0.00000  Uiso   1.00
C24    C     0.23700   0.17436   0.03807   0.00000  Uiso   1.00
C25    C     0.07907   0.22248   0.48439   0.00000  Uiso   1.00
C26    C     0.27009   0.14390   0.00719   0.00000  Uiso   1.00
C27    C     0.16380   0.17388   0.47227   0.00000  Uiso   1.00
C28    C     0.18544   0.19260   0.01965   0.00000  Uiso   1.00
C29    C     0.15486   0.22882   0.04697   0.00000  Uiso   1.00
C30    C     0.19867   0.14503   0.44171   0.00000  Uiso   1.00
C31    C     0.10276   0.24370   0.02932   0.00000  Uiso   1.00
C32    C     0.25109   0.13071   0.45895   0.00000  Uiso   1.00
H33    H     0.08097   0.27199   0.05094   0.00000  Uiso   1.00
H34    H     0.27635   0.10827   0.43462   0.00000  Uiso   1.00
H35    H     0.04253   0.11849   0.08892   0.00000  Uiso   1.00
H36    H     0.29991   0.23449   0.40466   0.00000  Uiso   1.00
H37    H     0.00408   0.26645   0.48715   0.00000  Uiso   1.00
H38    H     0.01414   0.10379   0.00167   0.00000  Uiso   1.00
H39    H     0.17115   0.24815   0.08137   0.00000  Uiso   1.00
H40    H     0.18742   0.13420   0.40367   0.00000  Uiso   1.00
C41    C     0.02267   0.31936   0.24785   0.00000  Uiso   1.00
C42    C     0.31068   0.01398   0.25222   0.00000  Uiso   1.00
N43    N     0.14695   0.15216   0.23739   0.00000  Uiso   1.00
N44    N     0.18638   0.18117   0.26260   0.00000  Uiso   1.00
H45    H     0.22843   0.20156   0.11313   0.00000  Uiso   1.00
H46    H     0.10006   0.13172   0.39238   0.00000  Uiso   1.00
H47    H     0.06534   0.00294   0.24337   0.00000  Uiso   1.00
H48    H     0.26800   0.33040   0.25671   0.00000  Uiso   1.00
N49    N     0.16338   0.10378   0.22082   0.00000  Uiso   1.00
O50    O     0.16007   0.06523   0.24932   0.00000  Uiso   1.00
O51    O     0.16731   0.09359   0.17416   0.00000  Uiso   1.00
N52    N     0.16989   0.22944   0.27947   0.00000  Uiso   1.00
O53    O     0.17320   0.26819   0.25121   0.00000  Uiso   1.00
O54    O     0.16608   0.23933   0.32618   0.00000  Uiso   1.00
O55    O     0.63052   0.24631   0.25309   0.00000  Uiso   1.00
O56    O     0.36948   0.08702   0.24690   0.00000  Uiso   1.00
O57    O     0.39155   0.23702   0.24501   0.00000  Uiso   1.00
O58    O     0.60845   0.09632   0.25498   0.00000  Uiso   1.00
C59    C     0.34829   0.26481   0.24881   0.00000  Uiso   1.00
C60    C     0.65171   0.06852   0.25122   0.00000  Uiso   1.00
O61    O     0.63662   0.17397   0.32247   0.00000  Uiso   1.00
O62    O     0.36338   0.15937   0.17753   0.00000  Uiso   1.00
O63    O     0.39764   0.16467   0.31439   0.00000  Uiso   1.00
O64    O     0.60236   0.16866   0.18561   0.00000  Uiso   1.00
C65    C     0.35447   0.17127   0.34102   0.00000  Uiso   1.00
C66    C     0.64574   0.16308   0.15892   0.00000  Uiso   1.00
Zn67   Zn    0.60366   0.17287   0.25539   0.00000  Uiso   1.00
Zn68   Zn    0.39634   0.16046   0.24460   0.00000  Uiso   1.00
C69    C     0.36662   0.18220   0.39312   0.00000  Uiso   1.00
C70    C     0.63594   0.16081   0.10611   0.00000  Uiso   1.00
C71    C     0.36001   0.23811   0.46635   0.00000  Uiso   1.00
C72    C     0.65461   0.12599   0.02534   0.00000  Uiso   1.00
C73    C     0.33795   0.21915   0.42002   0.00000  Uiso   1.00
C74    C     0.33766   0.13459   0.07482   0.00000  Uiso   1.00
C75    C     0.41549   0.16311   0.41298   0.00000  Uiso   1.00
C76    C     0.58757   0.18211   0.08750   0.00000  Uiso   1.00
C77    C     0.44196   0.18602   0.45641   0.00000  Uiso   1.00
C78    C     0.57033   0.17436   0.03807   0.00000  Uiso   1.00
C79    C     0.41240   0.22248   0.48439   0.00000  Uiso   1.00
C80    C     0.60342   0.14390   0.00719   0.00000  Uiso   1.00
C81    C     0.49713   0.17388   0.47227   0.00000  Uiso   1.00
C82    C     0.51877   0.19260   0.01965   0.00000  Uiso   1.00
C83    C     0.48819   0.22882   0.04697   0.00000  Uiso   1.00
C84    C     0.53200   0.14503   0.44171   0.00000  Uiso   1.00
C85    C     0.43609   0.24370   0.02932   0.00000  Uiso   1.00
C86    C     0.58442   0.13071   0.45895   0.00000  Uiso   1.00
H87    H     0.41431   0.27199   0.05094   0.00000  Uiso   1.00
H88    H     0.60968   0.10827   0.43462   0.00000  Uiso   1.00
H89    H     0.37586   0.11849   0.08892   0.00000  Uiso   1.00
H90    H     0.63325   0.23449   0.40466   0.00000  Uiso   1.00
H91    H     0.33742   0.26645   0.48715   0.00000  Uiso   1.00
H92    H     0.34747   0.10379   0.00167   0.00000  Uiso   1.00
H93    H     0.50449   0.24815   0.08137   0.00000  Uiso   1.00
H94    H     0.52076   0.13420   0.40367   0.00000  Uiso   1.00
C95    C     0.35600   0.31936   0.24785   0.00000  Uiso   1.00
C96    C     0.64401   0.01398   0.25222   0.00000  Uiso   1.00
N97    N     0.48029   0.15216   0.23739   0.00000  Uiso   1.00
N98    N     0.51971   0.18117   0.26260   0.00000  Uiso   1.00
H99    H     0.56176   0.20156   0.11313   0.00000  Uiso   1.00
H100   H     0.43339   0.13172   0.39238   0.00000  Uiso   1.00
H101   H     0.39868   0.00294   0.24337   0.00000  Uiso   1.00
H102   H     0.60134   0.33040   0.25671   0.00000  Uiso   1.00
N103   N     0.49672   0.10378   0.22082   0.00000  Uiso   1.00
O104   O     0.49340   0.06523   0.24932   0.00000  Uiso   1.00
O105   O     0.50065   0.09359   0.17416   0.00000  Uiso   1.00
N106   N     0.50322   0.22944   0.27947   0.00000  Uiso   1.00
O107   O     0.50654   0.26819   0.25121   0.00000  Uiso   1.00
O108   O     0.49942   0.23933   0.32618   0.00000  Uiso   1.00
O109   O     0.96386   0.24631   0.25309   0.00000  Uiso   1.00
O110   O     0.70281   0.08702   0.24690   0.00000  Uiso   1.00
O111   O     0.72488   0.23702   0.24501   0.00000  Uiso   1.00
O112   O     0.94178   0.09632   0.25498   0.00000  Uiso   1.00
C113   C     0.68162   0.26481   0.24881   0.00000  Uiso   1.00
C114   C     0.98505   0.06852   0.25122   0.00000  Uiso   1.00
O115   O     0.96995   0.17397   0.32247   0.00000  Uiso   1.00
O116   O     0.69672   0.15937   0.17753   0.00000  Uiso   1.00
O117   O     0.73098   0.16467   0.31439   0.00000  Uiso   1.00
O118   O     0.93569   0.16866   0.18561   0.00000  Uiso   1.00
C119   C     0.68781   0.17127   0.34102   0.00000  Uiso   1.00
C120   C     0.97907   0.16308   0.15892   0.00000  Uiso   1.00
Zn121  Zn    0.93700   0.17287   0.25539   0.00000  Uiso   1.00
Zn122  Zn    0.72967   0.16046   0.24460   0.00000  Uiso   1.00
C123   C     0.69995   0.18220   0.39312   0.00000  Uiso   1.00
C124   C     0.96927   0.16081   0.10611   0.00000  Uiso   1.00
C125   C     0.69334   0.23811   0.46635   0.00000  Uiso   1.00
C126   C     0.98795   0.12599   0.02534   0.00000  Uiso   1.00
C127   C     0.67128   0.21915   0.42002   0.00000  Uiso   1.00
C128   C     0.67100   0.13459   0.07482   0.00000  Uiso   1.00
C129   C     0.74882   0.16311   0.41298   0.00000  Uiso   1.00
C130   C     0.92090   0.18211   0.08750   0.00000  Uiso   1.00
C131   C     0.77530   0.18602   0.45641   0.00000  Uiso   1.00
C132   C     0.90367   0.17436   0.03807   0.00000  Uiso   1.00
C133   C     0.74574   0.22248   0.48439   0.00000  Uiso   1.00
C134   C     0.93675   0.14390   0.00719   0.00000  Uiso   1.00
C135   C     0.83046   0.17388   0.47227   0.00000  Uiso   1.00
C136   C     0.85211   0.19260   0.01965   0.00000  Uiso   1.00
C137   C     0.82152   0.22882   0.04697   0.00000  Uiso   1.00
C138   C     0.86534   0.14503   0.44171   0.00000  Uiso   1.00
C139   C     0.76943   0.24370   0.02932   0.00000  Uiso   1.00
C140   C     0.91775   0.13071   0.45895   0.00000  Uiso   1.00
H141   H     0.74764   0.27199   0.05094   0.00000  Uiso   1.00
H142   H     0.94301   0.10827   0.43462   0.00000  Uiso   1.00
H143   H     0.70920   0.11849   0.08892   0.00000  Uiso   1.00
H144   H     0.96658   0.23449   0.40466   0.00000  Uiso   1.00
H145   H     0.67075   0.26645   0.48715   0.00000  Uiso   1.00
H146   H     0.68080   0.10379   0.00167   0.00000  Uiso   1.00
H147   H     0.83782   0.24815   0.08137   0.00000  Uiso   1.00
H148   H     0.85409   0.13420   0.40367   0.00000  Uiso   1.00
C149   C     0.68933   0.31936   0.24785   0.00000  Uiso   1.00
C150   C     0.97735   0.01398   0.25222   0.00000  Uiso   1.00
N151   N     0.81362   0.15216   0.23739   0.00000  Uiso   1.00
N152   N     0.85305   0.18117   0.26260   0.00000  Uiso   1.00
H153   H     0.89509   0.20156   0.11313   0.00000  Uiso   1.00
H154   H     0.76673   0.13172   0.39238   0.00000  Uiso   1.00
H155   H     0.73201   0.00294   0.24337   0.00000  Uiso   1.00
H156   H     0.93467   0.33040   0.25671   0.00000  Uiso   1.00
N157   N     0.83005   0.10378   0.22082   0.00000  Uiso   1.00
O158   O     0.82673   0.06523   0.24932   0.00000  Uiso   1.00
O159   O     0.83398   0.09359   0.17416   0.00000  Uiso   1.00
N160   N     0.83656   0.22944   0.27947   0.00000  Uiso   1.00
O161   O     0.83987   0.26819   0.25121   0.00000  Uiso   1.00
O162   O     0.83275   0.23933   0.32618   0.00000  Uiso   1.00
O163   O     0.29719   0.57964   0.25309   0.00000  Uiso   1.00
O164   O     0.03614   0.42036   0.24690   0.00000  Uiso   1.00
O165   O     0.05822   0.57035   0.24501   0.00000  Uiso   1.00
O166   O     0.27512   0.42965   0.25498   0.00000  Uiso   1.00
C167   C     0.01496   0.59815   0.24881   0.00000  Uiso   1.00
C168   C     0.31838   0.40186   0.25122   0.00000  Uiso   1.00
O169   O     0.30328   0.50730   0.32247   0.00000  Uiso   1.00
O170   O     0.03005   0.49270   0.17753   0.00000  Uiso   1.00
O171   O     0.06431   0.49801   0.31439   0.00000  Uiso   1.00
O172   O     0.26902   0.50199   0.18561   0.00000  Uiso   1.00
C173   C     0.02114   0.50461   0.34102   0.00000  Uiso   1.00
C174   C     0.31241   0.49641   0.15892   0.00000  Uiso   1.00
Zn175  Zn    0.27033   0.50621   0.25539   0.00000  Uiso   1.00
Zn176  Zn    0.06300   0.49379   0.24460   0.00000  Uiso   1.00
C177   C     0.03328   0.51554   0.39312   0.00000  Uiso   1.00
C178   C     0.30261   0.49415   0.10611   0.00000  Uiso   1.00
C179   C     0.02667   0.57144   0.46635   0.00000  Uiso   1.00
C180   C     0.32128   0.45933   0.02534   0.00000  Uiso   1.00
C181   C     0.00462   0.55248   0.42002   0.00000  Uiso   1.00
C182   C     0.00433   0.46792   0.07482   0.00000  Uiso   1.00
C183   C     0.08215   0.49645   0.41298   0.00000  Uiso   1.00
C184   C     0.25423   0.51544   0.08750   0.00000  Uiso   1.00
C185   C     0.10863   0.51936   0.45641   0.00000  Uiso   1.00
C186   C     0.23700   0.50770   0.03807   0.00000  Uiso   1.00
C187   C     0.07907   0.55581   0.48439   0.00000  Uiso   1.00
C188   C     0.27009   0.47723   0.00719   0.00000  Uiso   1.00
C189   C     0.16380   0.50722   0.47227   0.00000  Uiso   1.00
C190   C     0.18544   0.52593   0.01965   0.00000  Uiso   1.00
C191   C     0.15486   0.56216   0.04697   0.00000  Uiso   1.00
C192   C     0.19867   0.47836   0.44171   0.00000  Uiso   1.00
C193   C     0.10276   0.57703   0.02932   0.00000  Uiso   1.00
C194   C     0.25109   0.46404   0.45895   0.00000  Uiso   1.00
H195   H     0.08097   0.60533   0.05094   0.00000  Uiso   1.00
H196   H     0.27635   0.44160   0.43462   0.00000  Uiso   1.00
H197   H     0.04253   0.45182   0.08892   0.00000  Uiso   1.00
H198   H     0.29991   0.56783   0.40466   0.00000  Uiso   1.00
H199   H     0.00408   0.59978   0.48715   0.00000  Uiso   1.00
H200   H     0.01414   0.43713   0.00167   0.00000  Uiso   1.00
H201   H     0.17115   0.58148   0.08137   0.00000  Uiso   1.00
H202   H     0.18742   0.46753   0.40367   0.00000  Uiso   1.00
C203   C     0.02267   0.65269   0.24785   0.00000  Uiso   1.00
C204   C     0.31068   0.34731   0.25222   0.00000  Uiso   1.00
N205   N     0.14695   0.48550   0.23739   0.00000  Uiso   1.00
N206   N     0.18638   0.51450   0.26260   0.00000  Uiso   1.00
H207   H     0.22843   0.53489   0.11313   0.00000  Uiso   1.00
H208   H     0.10006   0.46506   0.39238   0.00000  Uiso   1.00
H209   H     0.06534   0.33627   0.24337   0.00000  Uiso   1.00
H210   H     0.26800   0.66373   0.25671   0.00000  Uiso   1.00
N211   N     0.16338   0.43711   0.22082   0.00000  Uiso   1.00
O212   O     0.16007   0.39856   0.24932   0.00000  Uiso   1.00
O213   O     0.16731   0.42692   0.17416   0.00000  Uiso   1.00
N214   N     0.16989   0.56277   0.27947   0.00000  Uiso   1.00
O215   O     0.17320   0.60153   0.25121   0.00000  Uiso   1.00
O216   O     0.16608   0.57266   0.32618   0.00000  Uiso   1.00
O217   O     0.63052   0.57964   0.25309   0.00000  Uiso   1.00
O218   O     0.36948   0.42036   0.24690   0.00000  Uiso   1.00
O219   O     0.39155   0.57035   0.24501   0.00000  Uiso   1.00
O220   O     0.60845   0.42965   0.25498   0.00000  Uiso   1.00
C221   C     0.34829   0.59815   0.24881   0.00000  Uiso   1.00
C222   C     0.65171   0.40186   0.25122   0.00000  Uiso   1.00
O223   O     0.63662   0.50730   0.32247   0.00000  Uiso   1.00
O224   O     0.36338   0.49270   0.17753   0.00000  Uiso   1.00
O225   O     0.39764   0.49801   0.31439   0.00000  Uiso   1.00
O226   O     0.60236   0.50199   0.18561   0.00000  Uiso   1.00
C227   C     0.35447   0.50461   0.34102   0.00000  Uiso   1.00
C228   C     0.64574   0.49641   0.15892   0.00000  Uiso   1.00
Zn229  Zn    0.60366   0.50621   0.25539   0.00000  Uiso   1.00
Zn230  Zn    0.39634   0.49379   0.24460   0.00000  Uiso   1.00
C231   C     0.36662   0.51554   0.39312   0.00000  Uiso   1.00
C232   C     0.63594   0.49415   0.10611   0.00000  Uiso   1.00
C233   C     0.36001   0.57144   0.46635   0.00000  Uiso   1.00
C234   C     0.65461   0.45933   0.02534   0.00000  Uiso   1.00
C235   C     0.33795   0.55248   0.42002   0.00000  Uiso   1.00
C236   C     0.33766   0.46792   0.07482   0.00000  Uiso   1.00
C237   C     0.41549   0.49645   0.41298   0.00000  Uiso   1.00
C238   C     0.58757   0.51544   0.08750   0.00000  Uiso   1.00
C239   C     0.44196   0.51936   0.45641   0.00000  Uiso   1.00
C240   C     0.57033   0.50770   0.03807   0.00000  Uiso   1.00
C241   C     0.41240   0.55581   0.48439   0.00000  Uiso   1.00
C242   C     0.60342   0.47723   0.00719   0.00000  Uiso   1.00
C243   C     0.49713   0.50722   0.47227   0.00000  Uiso   1.00
C244   C     0.51877   0.52593   0.01965   0.00000  Uiso   1.00
C245   C     0.48819   0.56216   0.04697   0.00000  Uiso   1.00
C246   C     0.53200   0.47836   0.44171   0.00000  Uiso   1.00
C247   C     0.43609   0.57703   0.02932   0.00000  Uiso   1.00
C248   C     0.58442   0.46404   0.45895   0.00000  Uiso   1.00
H249   H     0.41431   0.60533   0.05094   0.00000  Uiso   1.00
H250   H     0.60968   0.44160   0.43462   0.00000  Uiso   1.00
H251   H     0.37586   0.45182   0.08892   0.00000  Uiso   1.00
H252   H     0.63325   0.56783   0.40466   0.00000  Uiso   1.00
H253   H     0.33742   0.59978   0.48715   0.00000  Uiso   1.00
H254   H     0.34747   0.43713   0.00167   0.00000  Uiso   1.00
H255   H     0.50449   0.58148   0.08137   0.00000  Uiso   1.00
H256   H     0.52076   0.46753   0.40367   0.00000  Uiso   1.00
C257   C     0.35600   0.65269   0.24785   0.00000  Uiso   1.00
C258   C     0.64401   0.34731   0.25222   0.00000  Uiso   1.00
N259   N     0.48029   0.48550   0.23739   0.00000  Uiso   1.00
N260   N     0.51971   0.51450   0.26260   0.00000  Uiso   1.00
H261   H     0.56176   0.53489   0.11313   0.00000  Uiso   1.00
H262   H     0.43339   0.46506   0.39238   0.00000  Uiso   1.00
H263   H     0.39868   0.33627   0.24337   0.00000  Uiso   1.00
H264   H     0.60134   0.66373   0.25671   0.00000  Uiso   1.00
N265   N     0.49672   0.43711   0.22082   0.00000  Uiso   1.00
O266   O     0.49340   0.39856   0.24932   0.00000  Uiso   1.00
O267   O     0.50065   0.42692   0.17416   0.00000  Uiso   1.00
N268   N     0.50322   0.56277   0.27947   0.00000  Uiso   1.00
O269   O     0.50654   0.60153   0.25121   0.00000  Uiso   1.00
O270   O     0.49942   0.57266   0.32618   0.00000  Uiso   1.00
O271   O     0.96386   0.57964   0.25309   0.00000  Uiso   1.00
O272   O     0.70281   0.42036   0.24690   0.00000  Uiso   1.00
O273   O     0.72488   0.57035   0.24501   0.00000  Uiso   1.00
O274   O     0.94178   0.42965   0.25498   0.00000  Uiso   1.00
C275   C     0.68162   0.59815   0.24881   0.00000  Uiso   1.00
C276   C     0.98505   0.40186   0.25122   0.00000  Uiso   1.00
O277   O     0.96995   0.50730   0.32247   0.00000  Uiso   1.00
O278   O     0.69672   0.49270   0.17753   0.00000  Uiso   1.00
O279   O     0.73098   0.49801   0.31439   0.00000  Uiso   1.00
O280   O     0.93569   0.50199   0.18561   0.00000  Uiso   1.00
C281   C     0.68781   0.50461   0.34102   0.00000  Uiso   1.00
C282   C     0.97907   0.49641   0.15892   0.00000  Uiso   1.00
Zn283  Zn    0.93700   0.50621   0.25539   0.00000  Uiso   1.00
Zn284  Zn    0.72967   0.49379   0.24460   0.00000  Uiso   1.00
C285   C     0.69995   0.51554   0.39312   0.00000  Uiso   1.00
C286   C     0.96927   0.49415   0.10611   0.00000  Uiso   1.00
C287   C     0.69334   0.57144   0.46635   0.00000  Uiso   1.00
C288   C     0.98795   0.45933   0.02534   0.00000  Uiso   1.00
C289   C     0.67128   0.55248   0.42002   0.00000  Uiso   1.00
C290   C     0.67100   0.46792   0.07482   0.00000  Uiso   1.00
C291   C     0.74882   0.49645   0.41298   0.00000  Uiso   1.00
C292   C     0.92090   0.51544   0.08750   0.00000  Uiso   1.00
C293   C     0.77530   0.51936   0.45641   0.00000  Uiso   1.00
C294   C     0.90367   0.50770   0.03807   0.00000  Uiso   1.00
C295   C     0.74574   0.55581   0.48439   0.00000  Uiso   1.00
C296   C     0.93675   0.47723   0.00719   0.00000  Uiso   1.00
C297   C     0.83046   0.50722   0.47227   0.00000  Uiso   1.00
C298   C     0.85211   0.52593   0.01965   0.00000  Uiso   1.00
C299   C     0.82152   0.56216   0.04697   0.00000  Uiso   1.00
C300   C     0.86534   0.47836   0.44171   0.00000  Uiso   1.00
C301   C     0.76943   0.57703   0.02932   0.00000  Uiso   1.00
C302   C     0.91775   0.46404   0.45895   0.00000  Uiso   1.00
H303   H     0.74764   0.60533   0.05094   0.00000  Uiso   1.00
H304   H     0.94301   0.44160   0.43462   0.00000  Uiso   1.00
H305   H     0.70920   0.45182   0.08892   0.00000  Uiso   1.00
H306   H     0.96658   0.56783   0.40466   0.00000  Uiso   1.00
H307   H     0.67075   0.59978   0.48715   0.00000  Uiso   1.00
H308   H     0.68080   0.43713   0.00167   0.00000  Uiso   1.00
H309   H     0.83782   0.58148   0.08137   0.00000  Uiso   1.00
H310   H     0.85409   0.46753   0.40367   0.00000  Uiso   1.00
C311   C     0.68933   0.65269   0.24785   0.00000  Uiso   1.00
C312   C     0.97735   0.34731   0.25222   0.00000  Uiso   1.00
N313   N     0.81362   0.48550   0.23739   0.00000  Uiso   1.00
N314   N     0.85305   0.51450   0.26260   0.00000  Uiso   1.00
H315   H     0.89509   0.53489   0.11313   0.00000  Uiso   1.00
H316   H     0.76673   0.46506   0.39238   0.00000  Uiso   1.00
H317   H     0.73201   0.33627   0.24337   0.00000  Uiso   1.00
H318   H     0.93467   0.66373   0.25671   0.00000  Uiso   1.00
N319   N     0.83005   0.43711   0.22082   0.00000  Uiso   1.00
O320   O     0.82673   0.39856   0.24932   0.00000  Uiso   1.00
O321   O     0.83398   0.42692   0.17416   0.00000  Uiso   1.00
N322   N     0.83656   0.56277   0.27947   0.00000  Uiso   1.00
O323   O     0.83987   0.60153   0.25121   0.00000  Uiso   1.00
O324   O     0.83275   0.57266   0.32618   0.00000  Uiso   1.00
O325   O     0.29719   0.91298   0.25309   0.00000  Uiso   1.00
O326   O     0.03614   0.75369   0.24690   0.00000  Uiso   1.00
O327   O     0.05822   0.90368   0.24501   0.00000  Uiso   1.00
O328   O     0.27512   0.76298   0.25498   0.00000  Uiso   1.00
C329   C     0.01496   0.93148   0.24881   0.00000  Uiso   1.00
C330   C     0.31838   0.73519   0.25122   0.00000  Uiso   1.00
O331   O     0.30328   0.84063   0.32247   0.00000  Uiso   1.00
O332   O     0.03005   0.82603   0.17753   0.00000  Uiso   1.00
O333   O     0.06431   0.83134   0.31439   0.00000  Uiso   1.00
O334   O     0.26902   0.83533   0.18561   0.00000  Uiso   1.00
C335   C     0.02114   0.83794   0.34102   0.00000  Uiso   1.00
C336   C     0.31241   0.82975   0.15892   0.00000  Uiso   1.00
Zn337  Zn    0.27033   0.83954   0.25539   0.00000  Uiso   1.00
Zn338  Zn    0.06300   0.82713   0.24460   0.00000  Uiso   1.00
C339   C     0.03328   0.84887   0.39312   0.00000  Uiso   1.00
C340   C     0.30261   0.82748   0.10611   0.00000  Uiso   1.00
C341   C     0.02667   0.90478   0.46635   0.00000  Uiso   1.00
C342   C     0.32128   0.79266   0.02534   0.00000  Uiso   1.00
C343   C     0.00462   0.88582   0.42002   0.00000  Uiso   1.00
C344   C     0.00433   0.80126   0.07482   0.00000  Uiso   1.00
C345   C     0.08215   0.82978   0.41298   0.00000  Uiso   1.00
C346   C     0.25423   0.84877   0.08750   0.00000  Uiso   1.00
C347   C     0.10863   0.85269   0.45641   0.00000  Uiso   1.00
C348   C     0.23700   0.84103   0.03807   0.00000  Uiso   1.00
C349   C     0.07907   0.88915   0.48439   0.00000  Uiso   1.00
C350   C     0.27009   0.81057   0.00719   0.00000  Uiso   1.00
C351   C     0.16380   0.84055   0.47227   0.00000  Uiso   1.00
C352   C     0.18544   0.85926   0.01965   0.00000  Uiso   1.00
C353   C     0.15486   0.89549   0.04697   0.00000  Uiso   1.00
C354   C     0.19867   0.81170   0.44171   0.00000  Uiso   1.00
C355   C     0.10276   0.91036   0.02932   0.00000  Uiso   1.00
C356   C     0.25109   0.79738   0.45895   0.00000  Uiso   1.00
H357   H     0.08097   0.93866   0.05094   0.00000  Uiso   1.00
H358   H     0.27635   0.77493   0.43462   0.00000  Uiso   1.00
H359   H     0.04253   0.78515   0.08892   0.00000  Uiso   1.00
H360   H     0.29991   0.90116   0.40466   0.00000  Uiso   1.00
H361   H     0.00408   0.93312   0.48715   0.00000  Uiso   1.00
H362   H     0.01414   0.77046   0.00167   0.00000  Uiso   1.00
H363   H     0.17115   0.91481   0.08137   0.00000  Uiso   1.00
H364   H     0.18742   0.80086   0.40367   0.00000  Uiso   1.00
C365   C     0.02267   0.98603   0.24785   0.00000  Uiso   1.00
C366   C     0.31068   0.68064   0.25222   0.00000  Uiso   1.00
N367   N     0.14695   0.81883   0.23739   0.00000  Uiso   1.00
N368   N     0.18638   0.84784   0.26260   0.00000  Uiso   1.00
H369   H     0.22843   0.86823   0.11313   0.00000  Uiso   1.00
H370   H     0.10006   0.79839   0.39238   0.00000  Uiso   1.00
H371   H     0.06534   0.66961   0.24337   0.00000  Uiso   1.00
H372   H     0.26800   0.99706   0.25671   0.00000  Uiso   1.00
N373   N     0.16338   0.77044   0.22082   0.00000  Uiso   1.00
O374   O     0.16007   0.73190   0.24932   0.00000  Uiso   1.00
O375   O     0.16731   0.76025   0.17416   0.00000  Uiso   1.00
N376   N     0.16989   0.89610   0.27947   0.00000  Uiso   1.00
O377   O     0.17320   0.93486   0.25121   0.00000  Uiso   1.00
O378   O     0.16608   0.90600   0.32618   0.00000  Uiso   1.00
O379   O     0.63052   0.91298   0.25309   0.00000  Uiso   1.00
O380   O     0.36948   0.75369   0.24690   0.00000  Uiso   1.00
O381   O     0.39155   0.90368   0.24501   0.00000  Uiso   1.00
O382   O     0.60845   0.76298   0.25498   0.00000  Uiso   1.00
C383   C     0.34829   0.93148   0.24881   0.00000  Uiso   1.00
C384   C     0.65171   0.73519   0.25122   0.00000  Uiso   1.00
O385   O     0.63662   0.84063   0.32247   0.00000  Uiso   1.00
O386   O     0.36338   0.82603   0.17753   0.00000  Uiso   1.00
O387   O     0.39764   0.83134   0.31439   0.00000  Uiso   1.00
O388   O     0.60236   0.83533   0.18561   0.00000  Uiso   1.00
C389   C     0.35447   0.83794   0.34102   0.00000  Uiso   1.00
C390   C     0.64574   0.82975   0.15892   0.00000  Uiso   1.00
Zn391  Zn    0.60366   0.83954   0.25539   0.00000  Uiso   1.00
Zn392  Zn    0.39634   0.82713   0.24460   0.00000  Uiso   1.00
C393   C     0.36662   0.84887   0.39312   0.00000  Uiso   1.00
C394   C     0.63594   0.82748   0.10611   0.00000  Uiso   1.00
C395   C     0.36001   0.90478   0.46635   0.00000  Uiso   1.00
C396   C     0.65461   0.79266   0.02534   0.00000  Uiso   1.00
C397   C     0.33795   0.88582   0.42002   0.00000  Uiso   1.00
C398   C     0.33766   0.80126   0.07482   0.00000  Uiso   1.00
C399   C     0.41549   0.82978   0.41298   0.00000  Uiso   1.00
C400   C     0.58757   0.84877   0.08750   0.00000  Uiso   1.00
C401   C     0.44196   0.85269   0.45641   0.00000  Uiso   1.00
C402   C     0.57033   0.84103   0.03807   0.00000  Uiso   1.00
C403   C     0.41240   0.88915   0.48439   0.00000  Uiso   1.00
C404   C     0.60342   0.81057   0.00719   0.00000  Uiso   1.00
C405   C     0.49713   0.84055   0.47227   0.00000  Uiso   1.00
C406   C     0.51877   0.85926   0.01965   0.00000  Uiso   1.00
C407   C     0.48819   0.89549   0.04697   0.00000  Uiso   1.00
C408   C     0.53200   0.81170   0.44171   0.00000  Uiso   1.00
C409   C     0.43609   0.91036   0.02932   0.00000  Uiso   1.00
C410   C     0.58442   0.79738   0.45895   0.00000  Uiso   1.00
H411   H     0.41431   0.93866   0.05094   0.00000  Uiso   1.00
H412   H     0.60968   0.77493   0.43462   0.00000  Uiso   1.00
H413   H     0.37586   0.78515   0.08892   0.00000  Uiso   1.00
H414   H     0.63325   0.90116   0.40466   0.00000  Uiso   1.00
H415   H     0.33742   0.93312   0.48715   0.00000  Uiso   1.00
H416   H     0.34747   0.77046   0.00167   0.00000  Uiso   1.00
H417   H     0.50449   0.91481   0.08137   0.00000  Uiso   1.00
H418   H     0.52076   0.80086   0.40367   0.00000  Uiso   1.00
C419   C     0.35600   0.98603   0.24785   0.00000  Uiso   1.00
C420   C     0.64401   0.68064   0.25222   0.00000  Uiso   1.00
N421   N     0.48029   0.81883   0.23739   0.00000  Uiso   1.00
N422   N     0.51971   0.84784   0.26260   0.00000  Uiso   1.00
H423   H     0.56176   0.86823   0.11313   0.00000  Uiso   1.00
H424   H     0.43339   0.79839   0.39238   0.00000  Uiso   1.00
H425   H     0.39868   0.66961   0.24337   0.00000  Uiso   1.00
H426   H     0.60134   0.99706   0.25671   0.00000  Uiso   1.00
N427   N     0.49672   0.77044   0.22082   0.00000  Uiso   1.00
O428   O     0.49340   0.73190   0.24932   0.00000  Uiso   1.00
O429   O     0.50065   0.76025   0.17416   0.00000  Uiso   1.00
N430   N     0.50322   0.89610   0.27947   0.00000  Uiso   1.00
O431   O     0.50654   0.93486   0.25121   0.00000  Uiso   1.00
O432   O     0.49942   0.90600   0.32618   0.00000  Uiso   1.00
O433   O     0.96386   0.91298   0.25309   0.00000  Uiso   1.00
O434   O     0.70281   0.75369   0.24690   0.00000  Uiso   1.00
O435   O     0.72488   0.90368   0.24501   0.00000  Uiso   1.00
O436   O     0.94178   0.76298   0.25498   0.00000  Uiso   1.00
C437   C     0.68162   0.93148   0.24881   0.00000  Uiso   1.00
C438   C     0.98505   0.73519   0.25122   0.00000  Uiso   1.00
O439   O     0.96995   0.84063   0.32247   0.00000  Uiso   1.00
O440   O     0.69672   0.82603   0.17753   0.00000  Uiso   1.00
O441   O     0.73098   0.83134   0.31439   0.00000  Uiso   1.00
O442   O     0.93569   0.83533   0.18561   0.00000  Uiso   1.00
C443   C     0.68781   0.83794   0.34102   0.00000  Uiso   1.00
C444   C     0.97907   0.82975   0.15892   0.00000  Uiso   1.00
Zn445  Zn    0.93700   0.83954   0.25539   0.00000  Uiso   1.00
Zn446  Zn    0.72967   0.82713   0.24460   0.00000  Uiso   1.00
C447   C     0.69995   0.84887   0.39312   0.00000  Uiso   1.00
C448   C     0.96927   0.82748   0.10611   0.00000  Uiso   1.00
C449   C     0.69334   0.90478   0.46635   0.00000  Uiso   1.00
C450   C     0.98795   0.79266   0.02534   0.00000  Uiso   1.00
C451   C     0.67128   0.88582   0.42002   0.00000  Uiso   1.00
C452   C     0.67100   0.80126   0.07482   0.00000  Uiso   1.00
C453   C     0.74882   0.82978   0.41298   0.00000  Uiso   1.00
C454   C     0.92090   0.84877   0.08750   0.00000  Uiso   1.00
C455   C     0.77530   0.85269   0.45641   0.00000  Uiso   1.00
C456   C     0.90367   0.84103   0.03807   0.00000  Uiso   1.00
C457   C     0.74574   0.88915   0.48439   0.00000  Uiso   1.00
C458   C     0.93675   0.81057   0.00719   0.00000  Uiso   1.00
C459   C     0.83046   0.84055   0.47227   0.00000  Uiso   1.00
C460   C     0.85211   0.85926   0.01965   0.00000  Uiso   1.00
C461   C     0.82152   0.89549   0.04697   0.00000  Uiso   1.00
C462   C     0.86534   0.81170   0.44171   0.00000  Uiso   1.00
C463   C     0.76943   0.91036   0.02932   0.00000  Uiso   1.00
C464   C     0.91775   0.79738   0.45895   0.00000  Uiso   1.00
H465   H     0.74764   0.93866   0.05094   0.00000  Uiso   1.00
H466   H     0.94301   0.77493   0.43462   0.00000  Uiso   1.00
H467   H     0.70920   0.78515   0.08892   0.00000  Uiso   1.00
H468   H     0.96658   0.90116   0.40466   0.00000  Uiso   1.00
H469   H     0.67075   0.93312   0.48715   0.00000  Uiso   1.00
H470   H     0.68080   0.77046   0.00167   0.00000  Uiso   1.00
H471   H     0.83782   0.91481   0.08137   0.00000  Uiso   1.00
H472   H     0.85409   0.80086   0.40367   0.00000  Uiso   1.00
C473   C     0.68933   0.98603   0.24785   0.00000  Uiso   1.00
C474   C     0.97735   0.68064   0.25222   0.00000  Uiso   1.00
N475   N     0.81362   0.81883   0.23739   0.00000  Uiso   1.00
N476   N     0.85305   0.84784   0.26260   0.00000  Uiso   1.00
H477   H     0.89509   0.86823   0.11313   0.00000  Uiso   1.00
H478   H     0.76673   0.79839   0.39238   0.00000  Uiso   1.00
H479   H     0.73201   0.66961   0.24337   0.00000  Uiso   1.00
H480   H     0.93467   0.99706   0.25671   0.00000  Uiso   1.00
N481   N     0.83005   0.77044   0.22082   0.00000  Uiso   1.00
O482   O     0.82673   0.73190   0.24932   0.00000  Uiso   1.00
O483   O     0.83398   0.76025   0.17416   0.00000  Uiso   1.00
N484   N     0.83656   0.89610   0.27947   0.00000  Uiso   1.00
O485   O     0.83987   0.93486   0.25121   0.00000  Uiso   1.00
O486   O     0.83275   0.90600   0.32618   0.00000  Uiso   1.00
O487   O     0.29719   0.24631   0.75309   0.00000  Uiso   1.00
O488   O     0.03614   0.08702   0.74690   0.00000  Uiso   1.00
O489   O     0.05822   0.23702   0.74501   0.00000  Uiso   1.00
O490   O     0.27512   0.09632   0.75498   0.00000  Uiso   1.00
C491   C     0.01496   0.26481   0.74881   0.00000  Uiso   1.00
C492   C     0.31838   0.06852   0.75122   0.00000  Uiso   1.00
O493   O     0.30328   0.17397   0.82247   0.00000  Uiso   1.00
O494   O     0.03005   0.15937   0.67753   0.00000  Uiso   1.00
O495   O     0.06431   0.16467   0.81439   0.00000  Uiso   1.00
O496   O     0.26902   0.16866   0.68561   0.00000  Uiso   1.00
C497   C     0.02114   0.17127   0.84102   0.00000  Uiso   1.00
C498   C     0.31241   0.16308   0.65892   0.00000  Uiso   1.00
Zn499  Zn    0.27033   0.17287   0.75539   0.00000  Uiso   1.00
Zn500  Zn    0.06300   0.16046   0.74460   0.00000  Uiso   1.00
C501   C     0.03328   0.18220   0.89312   0.00000  Uiso   1.00
C502   C     0.30261   0.16081   0.60611   0.00000  Uiso   1.00
C503   C     0.02667   0.23811   0.96635   0.00000  Uiso   1.00
C504   C     0.32128   0.12599   0.52534   0.00000  Uiso   1.00
C505   C     0.00462   0.21915   0.92002   0.00000  Uiso   1.00
C506   C     0.00433   0.13459   0.57482   0.00000  Uiso   1.00
C507   C     0.08215   0.16311   0.91298   0.00000  Uiso   1.00
C508   C     0.25423   0.18211   0.58750   0.00000  Uiso   1.00
C509   C     0.10863   0.18602   0.95641   0.00000  Uiso   1.00
C510   C     0.23700   0.17436   0.53807   0.00000  Uiso   1.00
C511   C     0.07907   0.22248   0.98439   0.00000  Uiso   1.00
C512   C     0.27009   0.14390   0.50719   0.00000  Uiso   1.00
C513   C     0.16380   0.17388   0.97227   0.00000  Uiso   1.00
C514   C     0.18544   0.19260   0.51965   0.00000  Uiso   1.00
C515   C     0.15486   0.22882   0.54697   0.00000  Uiso   1.00
C516   C     0.19867   0.14503   0.94171   0.00000  Uiso   1.00
C517   C     0.10276   0.24370   0.52932   0.00000  Uiso   1.00
C518   C     0.25109   0.13071   0.95895   0.00000  Uiso   1.00
H519   H     0.08097   0.27199   0.55094   0.00000  Uiso   1.00
H520   H     0.27635   0.10827   0.93462   0.00000  Uiso   1.00
H521   H     0.04253   0.11849   0.58892   0.00000  Uiso   1.00
H522   H     0.29991   0.23449   0.90466   0.00000  Uiso   1.00
H523   H     0.00408   0.26645   0.98715   0.00000  Uiso   1.00
H524   H     0.01414   0.10379   0.50167   0.00000  Uiso   1.00
H525   H     0.17115   0.24815   0.58137   0.00000  Uiso   1.00
H526   H     0.18742   0.13420   0.90367   0.00000  Uiso   1.00
C527   C     0.02267   0.31936   0.74785   0.00000  Uiso   1.00
C528   C     0.31068   0.01398   0.75222   0.00000  Uiso   1.00
N529   N     0.14695   0.15216   0.73739   0.00000  Uiso   1.00
N530   N     0.18638   0.18117   0.76260   0.00000  Uiso   1.00
H531   H     0.22843   0.20156   0.61313   0.00000  Uiso   1.00
H532   H     0.10006   0.13172   0.89238   0.00000  Uiso   1.00
H533   H     0.06534   0.00294   0.74337   0.00000  Uiso   1.00
H534   H     0.26800   0.33040   0.75671   0.00000  Uiso   1.00
N535   N     0.16338   0.10378   0.72082   0.00000  Uiso   1.00
O536   O     0.16007   0.06523   0.74932   0.00000  Uiso   1.00
O537   O     0.16731   0.09359   0.67416   0.00000  Uiso   1.00
N538   N     0.16989   0.22944   0.77947   0.00000  Uiso   1.00
O539   O     0.17320   0.26819   0.75121   0.00000  Uiso   1.00
O540   O     0.16608   0.23933   0.82618   0.00000  Uiso   1.00
O541   O     0.63052   0.24631   0.75309   0.00000  Uiso   1.00
O542   O     0.36948   0.08702   0.74690   0.00000  Uiso   1.00
O543   O     0.39155   0.23702   0.74501   0.00000  Uiso   1.00
O544   O     0.60845   0.09632   0.75498   0.00000  Uiso   1.00
C545   C     0.34829   0.26481   0.74881   0.00000  Uiso   1.00
C546   C     0.65171   0.06852   0.75122   0.00000  Uiso   1.00
O547   O     0.63662   0.17397   0.82247   0.00000  Uiso   1.00
O548   O     0.36338   0.15937   0.67753   0.00000  Uiso   1.00
O549   O     0.39764   0.16467   0.81439   0.00000  Uiso   1.00
O550   O     0.60236   0.16866   0.68561   0.00000  Uiso   1.00
C551   C     0.35447   0.17127   0.84102   0.00000  Uiso   1.00
C552   C     0.64574   0.16308   0.65892   0.00000  Uiso   1.00
Zn553  Zn    0.60366   0.17287   0.75539   0.00000  Uiso   1.00
Zn554  Zn    0.39634   0.16046   0.74460   0.00000  Uiso   1.00
C555   C     0.36662   0.18220   0.89312   0.00000  Uiso   1.00
C556   C     0.63594   0.16081   0.60611   0.00000  Uiso   1.00
C557   C     0.36001   0.23811   0.96635   0.00000  Uiso   1.00
C558   C     0.65461   0.12599   0.52534   0.00000  Uiso   1.00
C559   C     0.33795   0.21915   0.92002   0.00000  Uiso   1.00
C560   C     0.33766   0.13459   0.57482   0.00000  Uiso   1.00
C561   C     0.41549   0.16311   0.91298   0.00000  Uiso   1.00
C562   C     0.58757   0.18211   0.58750   0.00000  Uiso   1.00
C563   C     0.44196   0.18602   0.95641   0.00000  Uiso   1.00
C564   C     0.57033   0.17436   0.53807   0.00000  Uiso   1.00
C565   C     0.41240   0.22248   0.98439   0.00000  Uiso   1.00
C566   C     0.60342   0.14390   0.50719   0.00000  Uiso   1.00
C567   C     0.49713   0.17388   0.97227   0.00000  Uiso   1.00
C568   C     0.51877   0.19260   0.51965   0.00000  Uiso   1.00
C569   C     0.48819   0.22882   0.54697   0.00000  Uiso   1.00
C570   C     0.53200   0.14503   0.94171   0.00000  Uiso   1.00
C571   C     0.43609   0.24370   0.52932   0.00000  Uiso   1.00
C572   C     0.58442   0.13071   0.95895   0.00000  Uiso   1.00
H573   H     0.41431   0.27199   0.55094   0.00000  Uiso   1.00
H574   H     0.60968   0.10827   0.93462   0.00000  Uiso   1.00
H575   H     0.37586   0.11849   0.58892   0.00000  Uiso   1.00
H576   H     0.63325   0.23449   0.90466   0.00000  Uiso   1.00
H577   H     0.33742   0.26645   0.98715   0.00000  Uiso   1.00
H578   H     0.34747   0.10379   0.50167   0.00000  Uiso   1.00
H579   H     0.50449   0.24815   0.58137   0.00000  Uiso   1.00
H580   H     0.52076   0.13420   0.90367   0.00000  Uiso   1.00
C581   C     0.35600   0.31936   0.74785   0.00000  Uiso   1.00
C582   C     0.64401   0.01398   0.75222   0.00000  Uiso   1.00
N583   N     0.48029   0.15216   0.73739   0.00000  Uiso   1.00
N584   N     0.51971   0.18117   0.76260   0.00000  Uiso   1.00
H585   H     0.56176   0.20156   0.61313   0.00000  Uiso   1.00
H586   H     0.43339   0.13172   0.89238   0.00000  Uiso   1.00
H587   H     0.39868   0.00294   0.74337   0.00000  Uiso   1.00
H588   H     0.60134   0.33040   0.75671   0.00000  Uiso   1.00
N589   N     0.49672   0.10378   0.72082   0.00000  Uiso   1.00
O590   O     0.49340   0.06523   0.74932   0.00000  Uiso   1.00
O591   O     0.50065   0.09359   0.67416   0.00000  Uiso   1.00
N592   N     0.50322   0.22944   0.77947   0.00000  Uiso   1.00
O593   O     0.50654   0.26819   0.75121   0.00000  Uiso   1.00
O594   O     0.49942   0.23933   0.82618   0.00000  Uiso   1.00
O595   O     0.96386   0.24631   0.75309   0.00000  Uiso   1.00
O596   O     0.70281   0.08702   0.74690   0.00000  Uiso   1.00
O597   O     0.72488   0.23702   0.74501   0.00000  Uiso   1.00
O598   O     0.94178   0.09632   0.75498   0.00000  Uiso   1.00
C599   C     0.68162   0.26481   0.74881   0.00000  Uiso   1.00
C600   C     0.98505   0.06852   0.75122   0.00000  Uiso   1.00
O601   O     0.96995   0.17397   0.82247   0.00000  Uiso   1.00
O602   O     0.69672   0.15937   0.67753   0.00000  Uiso   1.00
O603   O     0.73098   0.16467   0.81439   0.00000  Uiso   1.00
O604   O     0.93569   0.16866   0.68561   0.00000  Uiso   1.00
C605   C     0.68781   0.17127   0.84102   0.00000  Uiso   1.00
C606   C     0.97907   0.16308   0.65892   0.00000  Uiso   1.00
Zn607  Zn    0.93700   0.17287   0.75539   0.00000  Uiso   1.00
Zn608  Zn    0.72967   0.16046   0.74460   0.00000  Uiso   1.00
C609   C     0.69995   0.18220   0.89312   0.00000  Uiso   1.00
C610   C     0.96927   0.16081   0.60611   0.00000  Uiso   1.00
C611   C     0.69334   0.23811   0.96635   0.00000  Uiso   1.00
C612   C     0.98795   0.12599   0.52534   0.00000  Uiso   1.00
C613   C     0.67128   0.21915   0.92002   0.00000  Uiso   1.00
C614   C     0.67100   0.13459   0.57482   0.00000  Uiso   1.00
C615   C     0.74882   0.16311   0.91298   0.00000  Uiso   1.00
C616   C     0.92090   0.18211   0.58750   0.00000  Uiso   1.00
C617   C     0.77530   0.18602   0.95641   0.00000  Uiso   1.00
C618   C     0.90367   0.17436   0.53807   0.00000  Uiso   1.00
C619   C     0.74574   0.22248   0.98439   0.00000  Uiso   1.00
C620   C     0.93675   0.14390   0.50719   0.00000  Uiso   1.00
C621   C     0.83046   0.17388   0.97227   0.00000  Uiso   1.00
C622   C     0.85211   0.19260   0.51965   0.00000  Uiso   1.00
C623   C     0.82152   0.22882   0.54697   0.00000  Uiso   1.00
C624   C     0.86534   0.14503   0.94171   0.00000  Uiso   1.00
C625   C     0.76943   0.24370   0.52932   0.00000  Uiso   1.00
C626   C     0.91775   0.13071   0.95895   0.00000  Uiso   1.00
H627   H     0.74764   0.27199   0.55094   0.00000  Uiso   1.00
H628   H     0.94301   0.10827   0.93462   0.00000  Uiso   1.00
H629   H     0.70920   0.11849   0.58892   0.00000  Uiso   1.00
H630   H     0.96658   0.23449   0.90466   0.00000  Uiso   1.00
H631   H     0.67075   0.26645   0.98715   0.00000  Uiso   1.00
H632   H     0.68080   0.10379   0.50167   0.00000  Uiso   1.00
H633   H     0.83782   0.24815   0.58137   0.00000  Uiso   1.00
H634   H     0.85409   0.13420   0.90367   0.00000  Uiso   1.00
C635   C     0.68933   0.31936   0.74785   0.00000  Uiso   1.00
C636   C     0.97735   0.01398   0.75222   0.00000  Uiso   1.00
N637   N     0.81362   0.15216   0.73739   0.00000  Uiso   1.00
N638   N     0.85305   0.18117   0.76260   0.00000  Uiso   1.00
H639   H     0.89509   0.20156   0.61313   0.00000  Uiso   1.00
H640   H     0.76673   0.13172   0.89238   0.00000  Uiso   1.00
H641   H     0.73201   0.00294   0.74337   0.00000  Uiso   1.00
H642   H     0.93467   0.33040   0.75671   0.00000  Uiso   1.00
N643   N     0.83005   0.10378   0.72082   0.00000  Uiso   1.00
O644   O     0.82673   0.06523   0.74932   0.00000  Uiso   1.00
O645   O     0.83398   0.09359   0.67416   0.00000  Uiso   1.00
N646   N     0.83656   0.22944   0.77947   0.00000  Uiso   1.00
O647   O     0.83987   0.26819   0.75121   0.00000  Uiso   1.00
O648   O     0.83275   0.23933   0.82618   0.00000  Uiso   1.00
O649   O     0.29719   0.57964   0.75309   0.00000  Uiso   1.00
O650   O     0.03614   0.42036   0.74690   0.00000  Uiso   1.00
O651   O     0.05822   0.57035   0.74501   0.00000  Uiso   1.00
O652   O     0.27512   0.42965   0.75498   0.00000  Uiso   1.00
C653   C     0.01496   0.59815   0.74881   0.00000  Uiso   1.00
C654   C     0.31838   0.40186   0.75122   0.00000  Uiso   1.00
O655   O     0.30328   0.50730   0.82247   0.00000  Uiso   1.00
O656   O     0.03005   0.49270   0.67753   0.00000  Uiso   1.00
O657   O     0.06431   0.49801   0.81439   0.00000  Uiso   1.00
O658   O     0.26902   0.50199   0.68561   0.00000  Uiso   1.00
C659   C     0.02114   0.50461   0.84102   0.00000  Uiso   1.00
C660   C     0.31241   0.49641   0.65892   0.00000  Uiso   1.00
Zn661  Zn    0.27033   0.50621   0.75539   0.00000  Uiso   1.00
Zn662  Zn    0.06300   0.49379   0.74460   0.00000  Uiso   1.00
C663   C     0.03328   0.51554   0.89312   0.00000  Uiso   1.00
C664   C     0.30261   0.49415   0.60611   0.00000  Uiso   1.00
C665   C     0.02667   0.57144   0.96635   0.00000  Uiso   1.00
C666   C     0.32128   0.45933   0.52534   0.00000  Uiso   1.00
C667   C     0.00462   0.55248   0.92002   0.00000  Uiso   1.00
C668   C     0.00433   0.46792   0.57482   0.00000  Uiso   1.00
C669   C     0.08215   0.49645   0.91298   0.00000  Uiso   1.00
C670   C     0.25423   0.51544   0.58750   0.00000  Uiso   1.00
C671   C     0.10863   0.51936   0.95641   0.00000  Uiso   1.00
C672   C     0.23700   0.50770   0.53807   0.00000  Uiso   1.00
C673   C     0.07907   0.55581   0.98439   0.00000  Uiso   1.00
C674   C     0.27009   0.47723   0.50719   0.00000  Uiso   1.00
C675   C     0.16380   0.50722   0.97227   0.00000  Uiso   1.00
C676   C     0.18544   0.52593   0.51965   0.00000  Uiso   1.00
C677   C     0.15486   0.56216   0.54697   0.00000  Uiso   1.00
C678   C     0.19867   0.47836   0.94171   0.00000  Uiso   1.00
C679   C     0.10276   0.57703   0.52932   0.00000  Uiso   1.00
C680   C     0.25109   0.46404   0.95895   0.00000  Uiso   1.00
H681   H     0.08097   0.60533   0.55094   0.00000  Uiso   1.00
H682   H     0.27635   0.44160   0.93462   0.00000  Uiso   1.00
H683   H     0.04253   0.45182   0.58892   0.00000  Uiso   1.00
H684   H     0.29991   0.56783   0.90466   0.00000  Uiso   1.00
H685   H     0.00408   0.59978   0.98715   0.00000  Uiso   1.00
H686   H     0.01414   0.43713   0.50167   0.00000  Uiso   1.00
H687   H     0.17115   0.58148   0.58137   0.00000  Uiso   1.00
H688   H     0.18742   0.46753   0.90367   0.00000  Uiso   1.00
C689   C     0.02267   0.65269   0.74785   0.00000  Uiso   1.00
C690   C     0.31068   0.34731   0.75222   0.00000  Uiso   1.00
N691   N     0.14695   0.48550   0.73739   0.00000  Uiso   1.00
N692   N     0.18638   0.51450   0.76260   0.00000  Uiso   1.00
H693   H     0.22843   0.53489   0.61313   0.00000  Uiso   1.00
H694   H     0.10006   0.46506   0.89238   0.00000  Uiso   1.00
H695   H     0.06534   0.33627   0.74337   0.00000  Uiso   1.00
H696   H     0.26800   0.66373   0.75671   0.00000  Uiso   1.00
N697   N     0.16338   0.43711   0.72082   0.00000  Uiso   1.00
O698   O     0.16007   0.39856   0.74932   0.00000  Uiso   1.00
O699   O     0.16731   0.42692   0.67416   0.00000  Uiso   1.00
N700   N     0.16989   0.56277   0.77947   0.00000  Uiso   1.00
O701   O     0.17320   0.60153   0.75121   0.00000  Uiso   1.00
O702   O     0.16608   0.57266   0.82618   0.00000  Uiso   1.00
O703   O     0.63052   0.57964   0.75309   0.00000  Uiso   1.00
O704   O     0.36948   0.42036   0.74690   0.00000  Uiso   1.00
O705   O     0.39155   0.57035   0.74501   0.00000  Uiso   1.00
O706   O     0.60845   0.42965   0.75498   0.00000  Uiso   1.00
C707   C     0.34829   0.59815   0.74881   0.00000  Uiso   1.00
C708   C     0.65171   0.40186   0.75122   0.00000  Uiso   1.00
O709   O     0.63662   0.50730   0.82247   0.00000  Uiso   1.00
O710   O     0.36338   0.49270   0.67753   0.00000  Uiso   1.00
O711   O     0.39764   0.49801   0.81439   0.00000  Uiso   1.00
O712   O     0.60236   0.50199   0.68561   0.00000  Uiso   1.00
C713   C     0.35447   0.50461   0.84102   0.00000  Uiso   1.00
C714   C     0.64574   0.49641   0.65892   0.00000  Uiso   1.00
Zn715  Zn    0.60366   0.50621   0.75539   0.00000  Uiso   1.00
Zn716  Zn    0.39634   0.49379   0.74460   0.00000  Uiso   1.00
C717   C     0.36662   0.51554   0.89312   0.00000  Uiso   1.00
C718   C     0.63594   0.49415   0.60611   0.00000  Uiso   1.00
C719   C     0.36001   0.57144   0.96635   0.00000  Uiso   1.00
C720   C     0.65461   0.45933   0.52534   0.00000  Uiso   1.00
C721   C     0.33795   0.55248   0.92002   0.00000  Uiso   1.00
C722   C     0.33766   0.46792   0.57482   0.00000  Uiso   1.00
C723   C     0.41549   0.49645   0.91298   0.00000  Uiso   1.00
C724   C     0.58757   0.51544   0.58750   0.00000  Uiso   1.00
C725   C     0.44196   0.51936   0.95641   0.00000  Uiso   1.00
C726   C     0.57033   0.50770   0.53807   0.00000  Uiso   1.00
C727   C     0.41240   0.55581   0.98439   0.00000  Uiso   1.00
C728   C     0.60342   0.47723   0.50719   0.00000  Uiso   1.00
C729   C     0.49713   0.50722   0.97227   0.00000  Uiso   1.00
C730   C     0.51877   0.52593   0.51965   0.00000  Uiso   1.00
C731   C     0.48819   0.56216   0.54697   0.00000  Uiso   1.00
C732   C     0.53200   0.47836   0.94171   0.00000  Uiso   1.00
C733   C     0.43609   0.57703   0.52932   0.00000  Uiso   1.00
C734   C     0.58442   0.46404   0.95895   0.00000  Uiso   1.00
H735   H     0.41431   0.60533   0.55094   0.00000  Uiso   1.00
H736   H     0.60968   0.44160   0.93462   0.00000  Uiso   1.00
H737   H     0.37586   0.45182   0.58892   0.00000  Uiso   1.00
H738   H     0.63325   0.56783   0.90466   0.00000  Uiso   1.00
H739   H     0.33742   0.59978   0.98715   0.00000  Uiso   1.00
H740   H     0.34747   0.43713   0.50167   0.00000  Uiso   1.00
H741   H     0.50449   0.58148   0.58137   0.00000  Uiso   1.00
H742   H     0.52076   0.46753   0.90367   0.00000  Uiso   1.00
C743   C     0.35600   0.65269   0.74785   0.00000  Uiso   1.00
C744   C     0.64401   0.34731   0.75222   0.00000  Uiso   1.00
N745   N     0.48029   0.48550   0.73739   0.00000  Uiso   1.00
N746   N     0.51971   0.51450   0.76260   0.00000  Uiso   1.00
H747   H     0.56176   0.53489   0.61313   0.00000  Uiso   1.00
H748   H     0.43339   0.46506   0.89238   0.00000  Uiso   1.00
H749   H     0.39868   0.33627   0.74337   0.00000  Uiso   1.00
H750   H     0.60134   0.66373   0.75671   0.00000  Uiso   1.00
N751   N     0.49672   0.43711   0.72082   0.00000  Uiso   1.00
O752   O     0.49340   0.39856   0.74932   0.00000  Uiso   1.00
O753   O     0.50065   0.42692   0.67416   0.00000  Uiso   1.00
N754   N     0.50322   0.56277   0.77947   0.00000  Uiso   1.00
O755   O     0.50654   0.60153   0.75121   0.00000  Uiso   1.00
O756   O     0.49942   0.57266   0.82618   0.00000  Uiso   1.00
O757   O     0.96386   0.57964   0.75309   0.00000  Uiso   1.00
O758   O     0.70281   0.42036   0.74690   0.00000  Uiso   1.00
O759   O     0.72488   0.57035   0.74501   0.00000  Uiso   1.00
O760   O     0.94178   0.42965   0.75498   0.00000  Uiso   1.00
C761   C     0.68162   0.59815   0.74881   0.00000  Uiso   1.00
C762   C     0.98505   0.40186   0.75122   0.00000  Uiso   1.00
O763   O     0.96995   0.50730   0.82247   0.00000  Uiso   1.00
O764   O     0.69672   0.49270   0.67753   0.00000  Uiso   1.00
O765   O     0.73098   0.49801   0.81439   0.00000  Uiso   1.00
O766   O     0.93569   0.50199   0.68561   0.00000  Uiso   1.00
C767   C     0.68781   0.50461   0.84102   0.00000  Uiso   1.00
C768   C     0.97907   0.49641   0.65892   0.00000  Uiso   1.00
Zn769  Zn    0.93700   0.50621   0.75539   0.00000  Uiso   1.00
Zn770  Zn    0.72967   0.49379   0.74460   0.00000  Uiso   1.00
C771   C     0.69995   0.51554   0.89312   0.00000  Uiso   1.00
C772   C     0.96927   0.49415   0.60611   0.00000  Uiso   1.00
C773   C     0.69334   0.57144   0.96635   0.00000  Uiso   1.00
C774   C     0.98795   0.45933   0.52534   0.00000  Uiso   1.00
C775   C     0.67128   0.55248   0.92002   0.00000  Uiso   1.00
C776   C     0.67100   0.46792   0.57482   0.00000  Uiso   1.00
C777   C     0.74882   0.49645   0.91298   0.00000  Uiso   1.00
C778   C     0.92090   0.51544   0.58750   0.00000  Uiso   1.00
C779   C     0.77530   0.51936   0.95641   0.00000  Uiso   1.00
C780   C     0.90367   0.50770   0.53807   0.00000  Uiso   1.00
C781   C     0.74574   0.55581   0.98439   0.00000  Uiso   1.00
C782   C     0.93675   0.47723   0.50719   0.00000  Uiso   1.00
C783   C     0.83046   0.50722   0.97227   0.00000  Uiso   1.00
C784   C     0.85211   0.52593   0.51965   0.00000  Uiso   1.00
C785   C     0.82152   0.56216   0.54697   0.00000  Uiso   1.00
C786   C     0.86534   0.47836   0.94171   0.00000  Uiso   1.00
C787   C     0.76943   0.57703   0.52932   0.00000  Uiso   1.00
C788   C     0.91775   0.46404   0.95895   0.00000  Uiso   1.00
H789   H     0.74764   0.60533   0.55094   0.00000  Uiso   1.00
H790   H     0.94301   0.44160   0.93462   0.00000  Uiso   1.00
H791   H     0.70920   0.45182   0.58892   0.00000  Uiso   1.00
H792   H     0.96658   0.56783   0.90466   0.00000  Uiso   1.00
H793   H     0.67075   0.59978   0.98715   0.00000  Uiso   1.00
H794   H     0.68080   0.43713   0.50167   0.00000  Uiso   1.00
H795   H     0.83782   0.58148   0.58137   0.00000  Uiso   1.00
H796   H     0.85409   0.46753   0.90367   0.00000  Uiso   1.00
C797   C     0.68933   0.65269   0.74785   0.00000  Uiso   1.00
C798   C     0.97735   0.34731   0.75222   0.00000  Uiso   1.00
N799   N     0.81362   0.48550   0.73739   0.00000  Uiso   1.00
N800   N     0.85305   0.51450   0.76260   0.00000  Uiso   1.00
H801   H     0.89509   0.53489   0.61313   0.00000  Uiso   1.00
H802   H     0.76673   0.46506   0.89238   0.00000  Uiso   1.00
H803   H     0.73201   0.33627   0.74337   0.00000  Uiso   1.00
H804   H     0.93467   0.66373   0.75671   0.00000  Uiso   1.00
N805   N     0.83005   0.43711   0.72082   0.00000  Uiso   1.00
O806   O     0.82673   0.39856   0.74932   0.00000  Uiso   1.00
O807   O     0.83398   0.42692   0.67416   0.00000  Uiso   1.00
N808   N     0.83656   0.56277   0.77947   0.00000  Uiso   1.00
O809   O     0.83987   0.60153   0.75121   0.00000  Uiso   1.00
O810   O     0.83275   0.57266   0.82618   0.00000  Uiso   1.00
O811   O     0.29719   0.91298   0.75309   0.00000  Uiso   1.00
O812   O     0.03614   0.75369   0.74690   0.00000  Uiso   1.00
O813   O     0.05822   0.90368   0.74501   0.00000  Uiso   1.00
O814   O     0.27512   0.76298   0.75498   0.00000  Uiso   1.00
C815   C     0.01496   0.93148   0.74881   0.00000  Uiso   1.00
C816   C     0.31838   0.73519   0.75122   0.00000  Uiso   1.00
O817   O     0.30328   0.84063   0.82247   0.00000  Uiso   1.00
O818   O     0.03005   0.82603   0.67753   0.00000  Uiso   1.00
O819   O     0.06431   0.83134   0.81439   0.00000  Uiso   1.00
O820   O     0.26902   0.83533   0.68561   0.00000  Uiso   1.00
C821   C     0.02114   0.83794   0.84102   0.00000  Uiso   1.00
C822   C     0.31241   0.82975   0.65892   0.00000  Uiso   1.00
Zn823  Zn    0.27033   0.83954   0.75539   0.00000  Uiso   1.00
Zn824  Zn    0.06300   0.82713   0.74460   0.00000  Uiso   1.00
C825   C     0.03328   0.84887   0.89312   0.00000  Uiso   1.00
C826   C     0.30261   0.82748   0.60611   0.00000  Uiso   1.00
C827   C     0.02667   0.90478   0.96635   0.00000  Uiso   1.00
C828   C     0.32128   0.79266   0.52534   0.00000  Uiso   1.00
C829   C     0.00462   0.88582   0.92002   0.00000  Uiso   1.00
C830   C     0.00433   0.80126   0.57482   0.00000  Uiso   1.00
C831   C     0.08215   0.82978   0.91298   0.00000  Uiso   1.00
C832   C     0.25423   0.84877   0.58750   0.00000  Uiso   1.00
C833   C     0.10863   0.85269   0.95641   0.00000  Uiso   1.00
C834   C     0.23700   0.84103   0.53807   0.00000  Uiso   1.00
C835   C     0.07907   0.88915   0.98439   0.00000  Uiso   1.00
C836   C     0.27009   0.81057   0.50719   0.00000  Uiso   1.00
C837   C     0.16380   0.84055   0.97227   0.00000  Uiso   1.00
C838   C     0.18544   0.85926   0.51965   0.00000  Uiso   1.00
C839   C     0.15486   0.89549   0.54697   0.00000  Uiso   1.00
C840   C     0.19867   0.81170   0.94171   0.00000  Uiso   1.00
C841   C     0.10276   0.91036   0.52932   0.00000  Uiso   1.00
C842   C     0.25109   0.79738   0.95895   0.00000  Uiso   1.00
H843   H     0.08097   0.93866   0.55094   0.00000  Uiso   1.00
H844   H     0.27635   0.77493   0.93462   0.00000  Uiso   1.00
H845   H     0.04253   0.78515   0.58892   0.00000  Uiso   1.00
H846   H     0.29991   0.90116   0.90466   0.00000  Uiso   1.00
H847   H     0.00408   0.93312   0.98715   0.00000  Uiso   1.00
H848   H     0.01414   0.77046   0.50167   0.00000  Uiso   1.00
H849   H     0.17115   0.91481   0.58137   0.00000  Uiso   1.00
H850   H     0.18742   0.80086   0.90367   0.00000  Uiso   1.00
C851   C     0.02267   0.98603   0.74785   0.00000  Uiso   1.00
C852   C     0.31068   0.68064   0.75222   0.00000  Uiso   1.00
N853   N     0.14695   0.81883   0.73739   0.00000  Uiso   1.00
N854   N     0.18638   0.84784   0.76260   0.00000  Uiso   1.00
H855   H     0.22843   0.86823   0.61313   0.00000  Uiso   1.00
H856   H     0.10006   0.79839   0.89238   0.00000  Uiso   1.00
H857   H     0.06534   0.66961   0.74337   0.00000  Uiso   1.00
H858   H     0.26800   0.99706   0.75671   0.00000  Uiso   1.00
N859   N     0.16338   0.77044   0.72082   0.00000  Uiso   1.00
O860   O     0.16007   0.73190   0.74932   0.00000  Uiso   1.00
O861   O     0.16731   0.76025   0.67416   0.00000  Uiso   1.00
N862   N     0.16989   0.89610   0.77947   0.00000  Uiso   1.00
O863   O     0.17320   0.93486   0.75121   0.00000  Uiso   1.00
O864   O     0.16608   0.90600   0.82618   0.00000  Uiso   1.00
O865   O     0.63052   0.91298   0.75309   0.00000  Uiso   1.00
O866   O     0.36948   0.75369   0.74690   0.00000  Uiso   1.00
O867   O     0.39155   0.90368   0.74501   0.00000  Uiso   1.00
O868   O     0.60845   0.76298   0.75498   0.00000  Uiso   1.00
C869   C     0.34829   0.93148   0.74881   0.00000  Uiso   1.00
C870   C     0.65171   0.73519   0.75122   0.00000  Uiso   1.00
O871   O     0.63662   0.84063   0.82247   0.00000  Uiso   1.00
O872   O     0.36338   0.82603   0.67753   0.00000  Uiso   1.00
O873   O     0.39764   0.83134   0.81439   0.00000  Uiso   1.00
O874   O     0.60236   0.83533   0.68561   0.00000  Uiso   1.00
C875   C     0.35447   0.83794   0.84102   0.00000  Uiso   1.00
C876   C     0.64574   0.82975   0.65892   0.00000  Uiso   1.00
Zn877  Zn    0.60366   0.83954   0.75539   0.00000  Uiso   1.00
Zn878  Zn    0.39634   0.82713   0.74460   0.00000  Uiso   1.00
C879   C     0.36662   0.84887   0.89312   0.00000  Uiso   1.00
C880   C     0.63594   0.82748   0.60611   0.00000  Uiso   1.00
C881   C     0.36001   0.90478   0.96635   0.00000  Uiso   1.00
C882   C     0.65461   0.79266   0.52534   0.00000  Uiso   1.00
C883   C     0.33795   0.88582   0.92002   0.00000  Uiso   1.00
C884   C     0.33766   0.80126   0.57482   0.00000  Uiso   1.00
C885   C     0.41549   0.82978   0.91298   0.00000  Uiso   1.00
C886   C     0.58757   0.84877   0.58750   0.00000  Uiso   1.00
C887   C     0.44196   0.85269   0.95641   0.00000  Uiso   1.00
C888   C     0.57033   0.84103   0.53807   0.00000  Uiso   1.00
C889   C     0.41240   0.88915   0.98439   0.00000  Uiso   1.00
C890   C     0.60342   0.81057   0.50719   0.00000  Uiso   1.00
C891   C     0.49713   0.84055   0.97227   0.00000  Uiso   1.00
C892   C     0.51877   0.85926   0.51965   0.00000  Uiso   1.00
C893   C     0.48819   0.89549   0.54697   0.00000  Uiso   1.00
C894   C     0.53200   0.81170   0.94171   0.00000  Uiso   1.00
C895   C     0.43609   0.91036   0.52932   0.00000  Uiso   1.00
C896   C     0.58442   0.79738   0.95895   0.00000  Uiso   1.00
H897   H     0.41431   0.93866   0.55094   0.00000  Uiso   1.00
H898   H     0.60968   0.77493   0.93462   0.00000  Uiso   1.00
H899   H     0.37586   0.78515   0.58892   0.00000  Uiso   1.00
H900   H     0.63325   0.90116   0.90466   0.00000  Uiso   1.00
H901   H     0.33742   0.93312   0.98715   0.00000  Uiso   1.00
H902   H     0.34747   0.77046   0.50167   0.00000  Uiso   1.00
H903   H     0.50449   0.91481   0.58137   0.00000  Uiso   1.00
H904   H     0.52076   0.80086   0.90367   0.00000  Uiso   1.00
C905   C     0.35600   0.98603   0.74785   0.00000  Uiso   1.00
C906   C     0.64401   0.68064   0.75222   0.00000  Uiso   1.00
N907   N     0.48029   0.81883   0.73739   0.00000  Uiso   1.00
N908   N     0.51971   0.84784   0.76260   0.00000  Uiso   1.00
H909   H     0.56176   0.86823   0.61313   0.00000  Uiso   1.00
H910   H     0.43339   0.79839   0.89238   0.00000  Uiso   1.00
H911   H     0.39868   0.66961   0.74337   0.00000  Uiso   1.00
H912   H     0.60134   0.99706   0.75671   0.00000  Uiso   1.00
N913   N     0.49672   0.77044   0.72082   0.00000  Uiso   1.00
O914   O     0.49340   0.73190   0.74932   0.00000  Uiso   1.00
O915   O     0.50065   0.76025   0.67416   0.00000  Uiso   1.00
N916   N     0.50322   0.89610   0.77947   0.00000  Uiso   1.00
O917   O     0.50654   0.93486   0.75121   0.00000  Uiso   1.00
O918   O     0.49942   0.90600   0.82618   0.00000  Uiso   1.00
O919   O     0.96386   0.91298   0.75309   0.00000  Uiso   1.00
O920   O     0.70281   0.75369   0.74690   0.00000  Uiso   1.00
O921   O     0.72488   0.90368   0.74501   0.00000  Uiso   1.00
O922   O     0.94178   0.76298   0.75498   0.00000  Uiso   1.00
C923   C     0.68162   0.93148   0.74881   0.00000  Uiso   1.00
C924   C     0.98505   0.73519   0.75122   0.00000  Uiso   1.00
O925   O     0.96995   0.84063   0.82247   0.00000  Uiso   1.00
O926   O     0.69672   0.82603   0.67753   0.00000  Uiso   1.00
O927   O     0.73098   0.83134   0.81439   0.00000  Uiso   1.00
O928   O     0.93569   0.83533   0.68561   0.00000  Uiso   1.00
C929   C     0.68781   0.83794   0.84102   0.00000  Uiso   1.00
C930   C     0.97907   0.82975   0.65892   0.00000  Uiso   1.00
Zn931  Zn    0.93700   0.83954   0.75539   0.00000  Uiso   1.00
Zn932  Zn    0.72967   0.82713   0.74460   0.00000  Uiso   1.00
C933   C     0.69995   0.84887   0.89312   0.00000  Uiso   1.00
C934   C     0.96927   0.82748   0.60611   0.00000  Uiso   1.00
C935   C     0.69334   0.90478   0.96635   0.00000  Uiso   1.00
C936   C     0.98795   0.79266   0.52534   0.00000  Uiso   1.00
C937   C     0.67128   0.88582   0.92002   0.00000  Uiso   1.00
C938   C     0.67100   0.80126   0.57482   0.00000  Uiso   1.00
C939   C     0.74882   0.82978   0.91298   0.00000  Uiso   1.00
C940   C     0.92090   0.84877   0.58750   0.00000  Uiso   1.00
C941   C     0.77530   0.85269   0.95641   0.00000  Uiso   1.00
C942   C     0.90367   0.84103   0.53807   0.00000  Uiso   1.00
C943   C     0.74574   0.88915   0.98439   0.00000  Uiso   1.00
C944   C     0.93675   0.81057   0.50719   0.00000  Uiso   1.00
C945   C     0.83046   0.84055   0.97227   0.00000  Uiso   1.00
C946   C     0.85211   0.85926   0.51965   0.00000  Uiso   1.00
C947   C     0.82152   0.89549   0.54697   0.00000  Uiso   1.00
C948   C     0.86534   0.81170   0.94171   0.00000  Uiso   1.00
C949   C     0.76943   0.91036   0.52932   0.00000  Uiso   1.00
C950   C     0.91775   0.79738   0.95895   0.00000  Uiso   1.00
H951   H     0.74764   0.93866   0.55094   0.00000  Uiso   1.00
H952   H     0.94301   0.77493   0.93462   0.00000  Uiso   1.00
H953   H     0.70920   0.78515   0.58892   0.00000  Uiso   1.00
H954   H     0.96658   0.90116   0.90466   0.00000  Uiso   1.00
H955   H     0.67075   0.93312   0.98715   0.00000  Uiso   1.00
H956   H     0.68080   0.77046   0.50167   0.00000  Uiso   1.00
H957   H     0.83782   0.91481   0.58137   0.00000  Uiso   1.00
H958   H     0.85409   0.80086   0.90367   0.00000  Uiso   1.00
C959   C     0.68933   0.98603   0.74785   0.00000  Uiso   1.00
C960   C     0.97735   0.68064   0.75222   0.00000  Uiso   1.00
N961   N     0.81362   0.81883   0.73739   0.00000  Uiso   1.00
N962   N     0.85305   0.84784   0.76260   0.00000  Uiso   1.00
H963   H     0.89509   0.86823   0.61313   0.00000  Uiso   1.00
H964   H     0.76673   0.79839   0.89238   0.00000  Uiso   1.00
H965   H     0.73201   0.66961   0.74337   0.00000  Uiso   1.00
H966   H     0.93467   0.99706   0.75671   0.00000  Uiso   1.00
N967   N     0.83005   0.77044   0.72082   0.00000  Uiso   1.00
O968   O     0.82673   0.73190   0.74932   0.00000  Uiso   1.00
O969   O     0.83398   0.76025   0.67416   0.00000  Uiso   1.00
N970   N     0.83656   0.89610   0.77947   0.00000  Uiso   1.00
O971   O     0.83987   0.93486   0.75121   0.00000  Uiso   1.00
O972   O     0.83275   0.90600   0.82618   0.00000  Uiso   1.00
loop_
_geom_bond_atom_site_label_1
_geom_bond_atom_site_label_2
_geom_bond_distance
_geom_bond_site_symmetry_2
_ccdc_geom_bond_type
O1     Zn13    1.952   .     S
O1     C59     1.281   .     S
O2     Zn14    1.952   .     S
O2     C114    1.281   1_455 S
O3     Zn14    1.976   .     S
O3     C5      1.293   .     A
O4     C6      1.293   .     A
O4     Zn13    1.976   .     S
C5     C41     1.401   .     S
C5     O109    1.281   1_455 S
C6     C42     1.402   .     S
C6     O56     1.281   .     S
O7     Zn13    1.959   .     S
O7     C65     1.296   .     S
O8     Zn14    1.959   .     S
O8     C120    1.296   1_455 S
O9     Zn14    1.910   .     S
O9     C11     1.300   .     A
O10    C12     1.302   .     A
O10    Zn13    1.910   .     S
C11    C15     1.449   .     S
C11    O115    1.296   1_455 S
C12    C16     1.453   .     S
C12    O62     1.296   .     S
Zn13   N44     2.029   .     S
Zn14   N43     2.029   .     S
C15    C19     1.399   .     A
C15    C21     1.386   .     A
C16    C22     1.390   .     A
C16    C74     1.399   .     S
C17    C25     1.404   .     A
C17    C19     1.394   .     A
C17    H37     1.084   .     S
C18    C26     1.403   .     A
C18    C74     1.392   .     S
C18    H92     1.084   .     S
C19    H144    1.083   1_455 S
C20    H35     1.083   .     S
C20    C124    1.399   1_455 S
C20    C126    1.392   1_455 S
C21    C23     1.393   .     A
C21    H46     1.079   .     S
C22    C24     1.394   .     A
C22    H45     1.077   .     S
C23    C27     1.415   .     A
C23    C25     1.418   .     A
C24    C26     1.419   .     A
C24    C28     1.417   .     A
C25    C517    1.389   .     S
C26    C518    1.389   1_554 S
C27    C30     1.418   .     A
C27    C514    1.414   .     S
C28    C29     1.419   .     A
C28    C513    1.414   1_554 S
C29    H39     1.078   .     S
C29    C31     1.388   .     A
C30    C32     1.386   .     A
C30    H40     1.078   .     S
C31    H33     1.084   .     S
C31    C511    1.389   1_554 S
C32    H34     1.084   .     S
C32    C512    1.389   .     S
H36    C73     1.083   .     S
H38    C126    1.084   1_455 S
C41    C312    1.337   1_455 S
C41    H209    1.086   .     S
C42    C419    1.337   1_545 S
C42    H372    1.086   1_545 S
N43    N44     1.293   .     D
N43    N49     1.384   .     S
N44    N52     1.384   .     S
H47    C365    1.086   1_545 S
H48    C204    1.086   .     S
N49    O50     1.300   .     A
N49    O51     1.300   .     A
N52    O54     1.300   .     A
N52    O53     1.300   .     A
O55    Zn67    1.952   .     S
O55    C113    1.281   .     S
O56    Zn68    1.952   .     S
O57    Zn68    1.976   .     S
O57    C59     1.293   .     A
O58    C60     1.293   .     A
O58    Zn67    1.976   .     S
C59    C95     1.401   .     S
C60    C96     1.402   .     S
C60    O110    1.281   .     S
O61    Zn67    1.959   .     S
O61    C119    1.296   .     S
O62    Zn68    1.959   .     S
O63    Zn68    1.910   .     S
O63    C65     1.300   .     A
O64    C66     1.302   .     A
O64    Zn67    1.910   .     S
C65    C69     1.449   .     S
C66    C70     1.453   .     S
C66    O116    1.296   .     S
Zn67   N98     2.029   .     S
Zn68   N97     2.029   .     S
C69    C73     1.399   .     A
C69    C75     1.386   .     A
C70    C76     1.390   .     A
C70    C128    1.399   .     S
C71    C79     1.404   .     A
C71    C73     1.394   .     A
C71    H91     1.084   .     S
C72    C80     1.403   .     A
C72    C128    1.392   .     S
C72    H146    1.084   .     S
C74    H89     1.083   .     S
C75    C77     1.393   .     A
C75    H100    1.079   .     S
C76    C78     1.394   .     A
C76    H99     1.077   .     S
C77    C81     1.415   .     A
C77    C79     1.418   .     A
C78    C80     1.419   .     A
C78    C82     1.417   .     A
C79    C571    1.389   .     S
C80    C572    1.389   1_554 S
C81    C84     1.418   .     A
C81    C568    1.414   .     S
C82    C83     1.419   .     A
C82    C567    1.414   1_554 S
C83    H93     1.078   .     S
C83    C85     1.388   .     A
C84    C86     1.386   .     A
C84    H94     1.078   .     S
C85    H87     1.084   .     S
C85    C565    1.389   1_554 S
C86    H88     1.084   .     S
C86    C566    1.389   .     S
H90    C127    1.083   .     S
C95    C204    1.337   .     S
C95    H263    1.086   .     S
C96    C473    1.337   1_545 S
C96    H426    1.086   1_545 S
N97    N98     1.293   .     D
N97    N103    1.384   .     S
N98    N106    1.384   .     S
H101   C419    1.086   1_545 S
H102   C258    1.086   .     S
N103   O104    1.300   .     A
N103   O105    1.300   .     A
N106   O108    1.300   .     A
N106   O107    1.300   .     A
O109   Zn121   1.952   .     S
O109   C5      1.281   1_655 S
O110   Zn122   1.952   .     S
O111   Zn122   1.976   .     S
O111   C113    1.293   .     A
O112   C114    1.293   .     A
O112   Zn121   1.976   .     S
C113   C149    1.401   .     S
C114   C150    1.402   .     S
C114   O2      1.281   1_655 S
O115   Zn121   1.959   .     S
O115   C11     1.296   1_655 S
O116   Zn122   1.959   .     S
O117   Zn122   1.910   .     S
O117   C119    1.300   .     A
O118   C120    1.302   .     A
O118   Zn121   1.910   .     S
C119   C123    1.449   .     S
C120   C124    1.453   .     S
C120   O8      1.296   1_655 S
Zn121  N152    2.029   .     S
Zn122  N151    2.029   .     S
C123   C127    1.399   .     A
C123   C129    1.386   .     A
C124   C130    1.390   .     A
C124   C20     1.399   1_655 S
C125   C133    1.404   .     A
C125   C127    1.394   .     A
C125   H145    1.084   .     S
C126   C134    1.403   .     A
C126   C20     1.392   1_655 S
C126   H38     1.084   1_655 S
C128   H143    1.083   .     S
C129   C131    1.393   .     A
C129   H154    1.079   .     S
C130   C132    1.394   .     A
C130   H153    1.077   .     S
C131   C135    1.415   .     A
C131   C133    1.418   .     A
C132   C134    1.419   .     A
C132   C136    1.417   .     A
C133   C625    1.389   .     S
C134   C626    1.389   1_554 S
C135   C138    1.418   .     A
C135   C622    1.414   .     S
C136   C137    1.419   .     A
C136   C621    1.414   1_554 S
C137   H147    1.078   .     S
C137   C139    1.388   .     A
C138   C140    1.386   .     A
C138   H148    1.078   .     S
C139   H141    1.084   .     S
C139   C619    1.389   1_554 S
C140   H142    1.084   .     S
C140   C620    1.389   .     S
H144   C19     1.083   1_655 S
C149   C258    1.337   .     S
C149   H317    1.086   .     S
C150   C365    1.337   1_645 S
C150   H480    1.086   1_545 S
N151   N152    1.293   .     D
N151   N157    1.384   .     S
N152   N160    1.384   .     S
H155   C473    1.086   1_545 S
H156   C312    1.086   .     S
N157   O158    1.300   .     A
N157   O159    1.300   .     A
N160   O162    1.300   .     A
N160   O161    1.300   .     A
O163   Zn175   1.952   .     S
O163   C221    1.281   .     S
O164   Zn176   1.952   .     S
O164   C276    1.281   1_455 S
O165   Zn176   1.976   .     S
O165   C167    1.293   .     A
O166   C168    1.293   .     A
O166   Zn175   1.976   .     S
C167   C203    1.401   .     S
C167   O271    1.281   1_455 S
C168   C204    1.402   .     S
C168   O218    1.281   .     S
O169   Zn175   1.959   .     S
O169   C227    1.296   .     S
O170   Zn176   1.959   .     S
O170   C282    1.296   1_455 S
O171   Zn176   1.910   .     S
O171   C173    1.300   .     A
O172   C174    1.302   .     A
O172   Zn175   1.910   .     S
C173   C177    1.449   .     S
C173   O277    1.296   1_455 S
C174   C178    1.453   .     S
C174   O224    1.296   .     S
Zn175  N206    2.029   .     S
Zn176  N205    2.029   .     S
C177   C181    1.399   .     A
C177   C183    1.386   .     A
C178   C184    1.390   .     A
C178   C236    1.399   .     S
C179   C187    1.404   .     A
C179   C181    1.394   .     A
C179   H199    1.084   .     S
C180   C188    1.403   .     A
C180   C236    1.392   .     S
C180   H254    1.084   .     S
C181   H306    1.083   1_455 S
C182   H197    1.083   .     S
C182   C286    1.399   1_455 S
C182   C288    1.392   1_455 S
C183   C185    1.393   .     A
C183   H208    1.079   .     S
C184   C186    1.394   .     A
C184   H207    1.077   .     S
C185   C189    1.415   .     A
C185   C187    1.418   .     A
C186   C188    1.419   .     A
C186   C190    1.417   .     A
C187   C679    1.389   .     S
C188   C680    1.389   1_554 S
C189   C192    1.418   .     A
C189   C676    1.414   .     S
C190   C191    1.419   .     A
C190   C675    1.414   1_554 S
C191   H201    1.078   .     S
C191   C193    1.388   .     A
C192   C194    1.386   .     A
C192   H202    1.078   .     S
C193   H195    1.084   .     S
C193   C673    1.389   1_554 S
C194   H196    1.084   .     S
C194   C674    1.389   .     S
H198   C235    1.083   .     S
H200   C288    1.084   1_455 S
C203   C474    1.337   1_455 S
C203   H371    1.086   .     S
N205   N206    1.293   .     D
N205   N211    1.384   .     S
N206   N214    1.384   .     S
H210   C366    1.086   .     S
N211   O212    1.300   .     A
N211   O213    1.300   .     A
N214   O216    1.300   .     A
N214   O215    1.300   .     A
O217   Zn229   1.952   .     S
O217   C275    1.281   .     S
O218   Zn230   1.952   .     S
O219   Zn230   1.976   .     S
O219   C221    1.293   .     A
O220   C222    1.293   .     A
O220   Zn229   1.976   .     S
C221   C257    1.401   .     S
C222   C258    1.402   .     S
C222   O272    1.281   .     S
O223   Zn229   1.959   .     S
O223   C281    1.296   .     S
O224   Zn230   1.959   .     S
O225   Zn230   1.910   .     S
O225   C227    1.300   .     A
O226   C228    1.302   .     A
O226   Zn229   1.910   .     S
C227   C231    1.449   .     S
C228   C232    1.453   .     S
C228   O278    1.296   .     S
Zn229  N260    2.029   .     S
Zn230  N259    2.029   .     S
C231   C235    1.399   .     A
C231   C237    1.386   .     A
C232   C238    1.390   .     A
C232   C290    1.399   .     S
C233   C241    1.404   .     A
C233   C235    1.394   .     A
C233   H253    1.084   .     S
C234   C242    1.403   .     A
C234   C290    1.392   .     S
C234   H308    1.084   .     S
C236   H251    1.083   .     S
C237   C239    1.393   .     A
C237   H262    1.079   .     S
C238   C240    1.394   .     A
C238   H261    1.077   .     S
C239   C243    1.415   .     A
C239   C241    1.418   .     A
C240   C242    1.419   .     A
C240   C244    1.417   .     A
C241   C733    1.389   .     S
C242   C734    1.389   1_554 S
C243   C246    1.418   .     A
C243   C730    1.414   .     S
C244   C245    1.419   .     A
C244   C729    1.414   1_554 S
C245   H255    1.078   .     S
C245   C247    1.388   .     A
C246   C248    1.386   .     A
C246   H256    1.078   .     S
C247   H249    1.084   .     S
C247   C727    1.389   1_554 S
C248   H250    1.084   .     S
C248   C728    1.389   .     S
H252   C289    1.083   .     S
C257   C366    1.337   .     S
C257   H425    1.086   .     S
N259   N260    1.293   .     D
N259   N265    1.384   .     S
N260   N268    1.384   .     S
H264   C420    1.086   .     S
N265   O266    1.300   .     A
N265   O267    1.300   .     A
N268   O270    1.300   .     A
N268   O269    1.300   .     A
O271   Zn283   1.952   .     S
O271   C167    1.281   1_655 S
O272   Zn284   1.952   .     S
O273   Zn284   1.976   .     S
O273   C275    1.293   .     A
O274   C276    1.293   .     A
O274   Zn283   1.976   .     S
C275   C311    1.401   .     S
C276   C312    1.402   .     S
C276   O164    1.281   1_655 S
O277   Zn283   1.959   .     S
O277   C173    1.296   1_655 S
O278   Zn284   1.959   .     S
O279   Zn284   1.910   .     S
O279   C281    1.300   .     A
O280   C282    1.302   .     A
O280   Zn283   1.910   .     S
C281   C285    1.449   .     S
C282   C286    1.453   .     S
C282   O170    1.296   1_655 S
Zn283  N314    2.029   .     S
Zn284  N313    2.029   .     S
C285   C289    1.399   .     A
C285   C291    1.386   .     A
C286   C292    1.390   .     A
C286   C182    1.399   1_655 S
C287   C295    1.404   .     A
C287   C289    1.394   .     A
C287   H307    1.084   .     S
C288   C296    1.403   .     A
C288   C182    1.392   1_655 S
C288   H200    1.084   1_655 S
C290   H305    1.083   .     S
C291   C293    1.393   .     A
C291   H316    1.079   .     S
C292   C294    1.394   .     A
C292   H315    1.077   .     S
C293   C297    1.415   .     A
C293   C295    1.418   .     A
C294   C296    1.419   .     A
C294   C298    1.417   .     A
C295   C787    1.389   .     S
C296   C788    1.389   1_554 S
C297   C300    1.418   .     A
C297   C784    1.414   .     S
C298   C299    1.419   .     A
C298   C783    1.414   1_554 S
C299   H309    1.078   .     S
C299   C301    1.388   .     A
C300   C302    1.386   .     A
C300   H310    1.078   .     S
C301   H303    1.084   .     S
C301   C781    1.389   1_554 S
C302   H304    1.084   .     S
C302   C782    1.389   .     S
H306   C181    1.083   1_655 S
C311   C420    1.337   .     S
C311   H479    1.086   .     S
C312   C41     1.337   1_655 S
N313   N314    1.293   .     D
N313   N319    1.384   .     S
N314   N322    1.384   .     S
H318   C474    1.086   .     S
N319   O320    1.300   .     A
N319   O321    1.300   .     A
N322   O324    1.300   .     A
N322   O323    1.300   .     A
O325   Zn337   1.952   .     S
O325   C383    1.281   .     S
O326   Zn338   1.952   .     S
O326   C438    1.281   1_455 S
O327   Zn338   1.976   .     S
O327   C329    1.293   .     A
O328   C330    1.293   .     A
O328   Zn337   1.976   .     S
C329   C365    1.401   .     S
C329   O433    1.281   1_455 S
C330   C366    1.402   .     S
C330   O380    1.281   .     S
O331   Zn337   1.959   .     S
O331   C389    1.296   .     S
O332   Zn338   1.959   .     S
O332   C444    1.296   1_455 S
O333   Zn338   1.910   .     S
O333   C335    1.300   .     A
O334   C336    1.302   .     A
O334   Zn337   1.910   .     S
C335   C339    1.449   .     S
C335   O439    1.296   1_455 S
C336   C340    1.453   .     S
C336   O386    1.296   .     S
Zn337  N368    2.029   .     S
Zn338  N367    2.029   .     S
C339   C343    1.399   .     A
C339   C345    1.386   .     A
C340   C346    1.390   .     A
C340   C398    1.399   .     S
C341   C349    1.404   .     A
C341   C343    1.394   .     A
C341   H361    1.084   .     S
C342   C350    1.403   .     A
C342   C398    1.392   .     S
C342   H416    1.084   .     S
C343   H468    1.083   1_455 S
C344   H359    1.083   .     S
C344   C448    1.399   1_455 S
C344   C450    1.392   1_455 S
C345   C347    1.393   .     A
C345   H370    1.079   .     S
C346   C348    1.394   .     A
C346   H369    1.077   .     S
C347   C351    1.415   .     A
C347   C349    1.418   .     A
C348   C350    1.419   .     A
C348   C352    1.417   .     A
C349   C841    1.389   .     S
C350   C842    1.389   1_554 S
C351   C354    1.418   .     A
C351   C838    1.414   .     S
C352   C353    1.419   .     A
C352   C837    1.414   1_554 S
C353   H363    1.078   .     S
C353   C355    1.388   .     A
C354   C356    1.386   .     A
C354   H364    1.078   .     S
C355   H357    1.084   .     S
C355   C835    1.389   1_554 S
C356   H358    1.084   .     S
C356   C836    1.389   .     S
H360   C397    1.083   .     S
H362   C450    1.084   1_455 S
C365   C150    1.337   1_465 S
C365   H47     1.086   1_565 S
N367   N368    1.293   .     D
N367   N373    1.384   .     S
N368   N376    1.384   .     S
H372   C42     1.086   1_565 S
N373   O374    1.300   .     A
N373   O375    1.300   .     A
N376   O378    1.300   .     A
N376   O377    1.300   .     A
O379   Zn391   1.952   .     S
O379   C437    1.281   .     S
O380   Zn392   1.952   .     S
O381   Zn392   1.976   .     S
O381   C383    1.293   .     A
O382   C384    1.293   .     A
O382   Zn391   1.976   .     S
C383   C419    1.401   .     S
C384   C420    1.402   .     S
C384   O434    1.281   .     S
O385   Zn391   1.959   .     S
O385   C443    1.296   .     S
O386   Zn392   1.959   .     S
O387   Zn392   1.910   .     S
O387   C389    1.300   .     A
O388   C390    1.302   .     A
O388   Zn391   1.910   .     S
C389   C393    1.449   .     S
C390   C394    1.453   .     S
C390   O440    1.296   .     S
Zn391  N422    2.029   .     S
Zn392  N421    2.029   .     S
C393   C397    1.399   .     A
C393   C399    1.386   .     A
C394   C400    1.390   .     A
C394   C452    1.399   .     S
C395   C403    1.404   .     A
C395   C397    1.394   .     A
C395   H415    1.084   .     S
C396   C404    1.403   .     A
C396   C452    1.392   .     S
C396   H470    1.084   .     S
C398   H413    1.083   .     S
C399   C401    1.393   .     A
C399   H424    1.079   .     S
C400   C402    1.394   .     A
C400   H423    1.077   .     S
C401   C405    1.415   .     A
C401   C403    1.418   .     A
C402   C404    1.419   .     A
C402   C406    1.417   .     A
C403   C895    1.389   .     S
C404   C896    1.389   1_554 S
C405   C408    1.418   .     A
C405   C892    1.414   .     S
C406   C407    1.419   .     A
C406   C891    1.414   1_554 S
C407   H417    1.078   .     S
C407   C409    1.388   .     A
C408   C410    1.386   .     A
C408   H418    1.078   .     S
C409   H411    1.084   .     S
C409   C889    1.389   1_554 S
C410   H412    1.084   .     S
C410   C890    1.389   .     S
H414   C451    1.083   .     S
C419   C42     1.337   1_565 S
C419   H101    1.086   1_565 S
N421   N422    1.293   .     D
N421   N427    1.384   .     S
N422   N430    1.384   .     S
H426   C96     1.086   1_565 S
N427   O428    1.300   .     A
N427   O429    1.300   .     A
N430   O432    1.300   .     A
N430   O431    1.300   .     A
O433   Zn445   1.952   .     S
O433   C329    1.281   1_655 S
O434   Zn446   1.952   .     S
O435   Zn446   1.976   .     S
O435   C437    1.293   .     A
O436   C438    1.293   .     A
O436   Zn445   1.976   .     S
C437   C473    1.401   .     S
C438   C474    1.402   .     S
C438   O326    1.281   1_655 S
O439   Zn445   1.959   .     S
O439   C335    1.296   1_655 S
O440   Zn446   1.959   .     S
O441   Zn446   1.910   .     S
O441   C443    1.300   .     A
O442   C444    1.302   .     A
O442   Zn445   1.910   .     S
C443   C447    1.449   .     S
C444   C448    1.453   .     S
C444   O332    1.296   1_655 S
Zn445  N476    2.029   .     S
Zn446  N475    2.029   .     S
C447   C451    1.399   .     A
C447   C453    1.386   .     A
C448   C454    1.390   .     A
C448   C344    1.399   1_655 S
C449   C457    1.404   .     A
C449   C451    1.394   .     A
C449   H469    1.084   .     S
C450   C458    1.403   .     A
C450   C344    1.392   1_655 S
C450   H362    1.084   1_655 S
C452   H467    1.083   .     S
C453   C455    1.393   .     A
C453   H478    1.079   .     S
C454   C456    1.394   .     A
C454   H477    1.077   .     S
C455   C459    1.415   .     A
C455   C457    1.418   .     A
C456   C458    1.419   .     A
C456   C460    1.417   .     A
C457   C949    1.389   .     S
C458   C950    1.389   1_554 S
C459   C462    1.418   .     A
C459   C946    1.414   .     S
C460   C461    1.419   .     A
C460   C945    1.414   1_554 S
C461   H471    1.078   .     S
C461   C463    1.388   .     A
C462   C464    1.386   .     A
C462   H472    1.078   .     S
C463   H465    1.084   .     S
C463   C943    1.389   1_554 S
C464   H466    1.084   .     S
C464   C944    1.389   .     S
H468   C343    1.083   1_655 S
C473   C96     1.337   1_565 S
C473   H155    1.086   1_565 S
C474   C203    1.337   1_655 S
N475   N476    1.293   .     D
N475   N481    1.384   .     S
N476   N484    1.384   .     S
H480   C150    1.086   1_565 S
N481   O482    1.300   .     A
N481   O483    1.300   .     A
N484   O486    1.300   .     A
N484   O485    1.300   .     A
O487   Zn499   1.952   .     S
O487   C545    1.281   .     S
O488   Zn500   1.952   .     S
O488   C600    1.281   1_455 S
O489   Zn500   1.976   .     S
O489   C491    1.293   .     A
O490   C492    1.293   .     A
O490   Zn499   1.976   .     S
C491   C527    1.401   .     S
C491   O595    1.281   1_455 S
C492   C528    1.402   .     S
C492   O542    1.281   .     S
O493   Zn499   1.959   .     S
O493   C551    1.296   .     S
O494   Zn500   1.959   .     S
O494   C606    1.296   1_455 S
O495   Zn500   1.910   .     S
O495   C497    1.300   .     A
O496   C498    1.302   .     A
O496   Zn499   1.910   .     S
C497   C501    1.449   .     S
C497   O601    1.296   1_455 S
C498   C502    1.453   .     S
C498   O548    1.296   .     S
Zn499  N530    2.029   .     S
Zn500  N529    2.029   .     S
C501   C505    1.399   .     A
C501   C507    1.386   .     A
C502   C508    1.390   .     A
C502   C560    1.399   .     S
C503   C511    1.404   .     A
C503   C505    1.394   .     A
C503   H523    1.084   .     S
C504   C512    1.403   .     A
C504   C560    1.392   .     S
C504   H578    1.084   .     S
C505   H630    1.083   1_455 S
C506   H521    1.083   .     S
C506   C610    1.399   1_455 S
C506   C612    1.392   1_455 S
C507   C509    1.393   .     A
C507   H532    1.079   .     S
C508   C510    1.394   .     A
C508   H531    1.077   .     S
C509   C513    1.415   .     A
C509   C511    1.418   .     A
C510   C512    1.419   .     A
C510   C514    1.417   .     A
C511   C31     1.389   1_556 S
C513   C516    1.418   .     A
C513   C28     1.414   1_556 S
C514   C515    1.419   .     A
C515   H525    1.078   .     S
C515   C517    1.388   .     A
C516   C518    1.386   .     A
C516   H526    1.078   .     S
C517   H519    1.084   .     S
C518   H520    1.084   .     S
C518   C26     1.389   1_556 S
H522   C559    1.083   .     S
H524   C612    1.084   1_455 S
C527   C798    1.337   1_455 S
C527   H695    1.086   .     S
C528   C905    1.337   1_545 S
C528   H858    1.086   1_545 S
N529   N530    1.293   .     D
N529   N535    1.384   .     S
N530   N538    1.384   .     S
H533   C851    1.086   1_545 S
H534   C690    1.086   .     S
N535   O536    1.300   .     A
N535   O537    1.300   .     A
N538   O540    1.300   .     A
N538   O539    1.300   .     A
O541   Zn553   1.952   .     S
O541   C599    1.281   .     S
O542   Zn554   1.952   .     S
O543   Zn554   1.976   .     S
O543   C545    1.293   .     A
O544   C546    1.293   .     A
O544   Zn553   1.976   .     S
C545   C581    1.401   .     S
C546   C582    1.402   .     S
C546   O596    1.281   .     S
O547   Zn553   1.959   .     S
O547   C605    1.296   .     S
O548   Zn554   1.959   .     S
O549   Zn554   1.910   .     S
O549   C551    1.300   .     A
O550   C552    1.302   .     A
O550   Zn553   1.910   .     S
C551   C555    1.449   .     S
C552   C556    1.453   .     S
C552   O602    1.296   .     S
Zn553  N584    2.029   .     S
Zn554  N583    2.029   .     S
C555   C559    1.399   .     A
C555   C561    1.386   .     A
C556   C562    1.390   .     A
C556   C614    1.399   .     S
C557   C565    1.404   .     A
C557   C559    1.394   .     A
C557   H577    1.084   .     S
C558   C566    1.403   .     A
C558   C614    1.392   .     S
C558   H632    1.084   .     S
C560   H575    1.083   .     S
C561   C563    1.393   .     A
C561   H586    1.079   .     S
C562   C564    1.394   .     A
C562   H585    1.077   .     S
C563   C567    1.415   .     A
C563   C565    1.418   .     A
C564   C566    1.419   .     A
C564   C568    1.417   .     A
C565   C85     1.389   1_556 S
C567   C570    1.418   .     A
C567   C82     1.414   1_556 S
C568   C569    1.419   .     A
C569   H579    1.078   .     S
C569   C571    1.388   .     A
C570   C572    1.386   .     A
C570   H580    1.078   .     S
C571   H573    1.084   .     S
C572   H574    1.084   .     S
C572   C80     1.389   1_556 S
H576   C613    1.083   .     S
C581   C690    1.337   .     S
C581   H749    1.086   .     S
C582   C959    1.337   1_545 S
C582   H912    1.086   1_545 S
N583   N584    1.293   .     D
N583   N589    1.384   .     S
N584   N592    1.384   .     S
H587   C905    1.086   1_545 S
H588   C744    1.086   .     S
N589   O590    1.300   .     A
N589   O591    1.300   .     A
N592   O594    1.300   .     A
N592   O593    1.300   .     A
O595   Zn607   1.952   .     S
O595   C491    1.281   1_655 S
O596   Zn608   1.952   .     S
O597   Zn608   1.976   .     S
O597   C599    1.293   .     A
O598   C600    1.293   .     A
O598   Zn607   1.976   .     S
C599   C635    1.401   .     S
C600   C636    1.402   .     S
C600   O488    1.281   1_655 S
O601   Zn607   1.959   .     S
O601   C497    1.296   1_655 S
O602   Zn608   1.959   .     S
O603   Zn608   1.910   .     S
O603   C605    1.300   .     A
O604   C606    1.302   .     A
O604   Zn607   1.910   .     S
C605   C609    1.449   .     S
C606   C610    1.453   .     S
C606   O494    1.296   1_655 S
Zn607  N638    2.029   .     S
Zn608  N637    2.029   .     S
C609   C613    1.399   .     A
C609   C615    1.386   .     A
C610   C616    1.390   .     A
C610   C506    1.399   1_655 S
C611   C619    1.404   .     A
C611   C613    1.394   .     A
C611   H631    1.084   .     S
C612   C620    1.403   .     A
C612   C506    1.392   1_655 S
C612   H524    1.084   1_655 S
C614   H629    1.083   .     S
C615   C617    1.393   .     A
C615   H640    1.079   .     S
C616   C618    1.394   .     A
C616   H639    1.077   .     S
C617   C621    1.415   .     A
C617   C619    1.418   .     A
C618   C620    1.419   .     A
C618   C622    1.417   .     A
C619   C139    1.389   1_556 S
C621   C624    1.418   .     A
C621   C136    1.414   1_556 S
C622   C623    1.419   .     A
C623   H633    1.078   .     S
C623   C625    1.388   .     A
C624   C626    1.386   .     A
C624   H634    1.078   .     S
C625   H627    1.084   .     S
C626   H628    1.084   .     S
C626   C134    1.389   1_556 S
H630   C505    1.083   1_655 S
C635   C744    1.337   .     S
C635   H803    1.086   .     S
C636   C851    1.337   1_645 S
C636   H966    1.086   1_545 S
N637   N638    1.293   .     D
N637   N643    1.384   .     S
N638   N646    1.384   .     S
H641   C959    1.086   1_545 S
H642   C798    1.086   .     S
N643   O644    1.300   .     A
N643   O645    1.300   .     A
N646   O648    1.300   .     A
N646   O647    1.300   .     A
O649   Zn661   1.952   .     S
O649   C707    1.281   .     S
O650   Zn662   1.952   .     S
O650   C762    1.281   1_455 S
O651   Zn662   1.976   .     S
O651   C653    1.293   .     A
O652   C654    1.293   .     A
O652   Zn661   1.976   .     S
C653   C689    1.401   .     S
C653   O757    1.281   1_455 S
C654   C690    1.402   .     S
C654   O704    1.281   .     S
O655   Zn661   1.959   .     S
O655   C713    1.296   .     S
O656   Zn662   1.959   .     S
O656   C768    1.296   1_455 S
O657   Zn662   1.910   .     S
O657   C659    1.300   .     A
O658   C660    1.302   .     A
O658   Zn661   1.910   .     S
C659   C663    1.449   .     S
C659   O763    1.296   1_455 S
C660   C664    1.453   .     S
C660   O710    1.296   .     S
Zn661  N692    2.029   .     S
Zn662  N691    2.029   .     S
C663   C667    1.399   .     A
C663   C669    1.386   .     A
C664   C670    1.390   .     A
C664   C722    1.399   .     S
C665   C673    1.404   .     A
C665   C667    1.394   .     A
C665   H685    1.084   .     S
C666   C674    1.403   .     A
C666   C722    1.392   .     S
C666   H740    1.084   .     S
C667   H792    1.083   1_455 S
C668   H683    1.083   .     S
C668   C772    1.399   1_455 S
C668   C774    1.392   1_455 S
C669   C671    1.393   .     A
C669   H694    1.079   .     S
C670   C672    1.394   .     A
C670   H693    1.077   .     S
C671   C675    1.415   .     A
C671   C673    1.418   .     A
C672   C674    1.419   .     A
C672   C676    1.417   .     A
C673   C193    1.389   1_556 S
C675   C678    1.418   .     A
C675   C190    1.414   1_556 S
C676   C677    1.419   .     A
C677   H687    1.078   .     S
C677   C679    1.388   .     A
C678   C680    1.386   .     A
C678   H688    1.078   .     S
C679   H681    1.084   .     S
C680   H682    1.084   .     S
C680   C188    1.389   1_556 S
H684   C721    1.083   .     S
H686   C774    1.084   1_455 S
C689   C960    1.337   1_455 S
C689   H857    1.086   .     S
N691   N692    1.293   .     D
N691   N697    1.384   .     S
N692   N700    1.384   .     S
H696   C852    1.086   .     S
N697   O698    1.300   .     A
N697   O699    1.300   .     A
N700   O702    1.300   .     A
N700   O701    1.300   .     A
O703   Zn715   1.952   .     S
O703   C761    1.281   .     S
O704   Zn716   1.952   .     S
O705   Zn716   1.976   .     S
O705   C707    1.293   .     A
O706   C708    1.293   .     A
O706   Zn715   1.976   .     S
C707   C743    1.401   .     S
C708   C744    1.402   .     S
C708   O758    1.281   .     S
O709   Zn715   1.959   .     S
O709   C767    1.296   .     S
O710   Zn716   1.959   .     S
O711   Zn716   1.910   .     S
O711   C713    1.300   .     A
O712   C714    1.302   .     A
O712   Zn715   1.910   .     S
C713   C717    1.449   .     S
C714   C718    1.453   .     S
C714   O764    1.296   .     S
Zn715  N746    2.029   .     S
Zn716  N745    2.029   .     S
C717   C721    1.399   .     A
C717   C723    1.386   .     A
C718   C724    1.390   .     A
C718   C776    1.399   .     S
C719   C727    1.404   .     A
C719   C721    1.394   .     A
C719   H739    1.084   .     S
C720   C728    1.403   .     A
C720   C776    1.392   .     S
C720   H794    1.084   .     S
C722   H737    1.083   .     S
C723   C725    1.393   .     A
C723   H748    1.079   .     S
C724   C726    1.394   .     A
C724   H747    1.077   .     S
C725   C729    1.415   .     A
C725   C727    1.418   .     A
C726   C728    1.419   .     A
C726   C730    1.417   .     A
C727   C247    1.389   1_556 S
C729   C732    1.418   .     A
C729   C244    1.414   1_556 S
C730   C731    1.419   .     A
C731   H741    1.078   .     S
C731   C733    1.388   .     A
C732   C734    1.386   .     A
C732   H742    1.078   .     S
C733   H735    1.084   .     S
C734   H736    1.084   .     S
C734   C242    1.389   1_556 S
H738   C775    1.083   .     S
C743   C852    1.337   .     S
C743   H911    1.086   .     S
N745   N746    1.293   .     D
N745   N751    1.384   .     S
N746   N754    1.384   .     S
H750   C906    1.086   .     S
N751   O752    1.300   .     A
N751   O753    1.300   .     A
N754   O756    1.300   .     A
N754   O755    1.300   .     A
O757   Zn769   1.952   .     S
O757   C653    1.281   1_655 S
O758   Zn770   1.952   .     S
O759   Zn770   1.976   .     S
O759   C761    1.293   .     A
O760   C762    1.293   .     A
O760   Zn769   1.976   .     S
C761   C797    1.401   .     S
C762   C798    1.402   .     S
C762   O650    1.281   1_655 S
O763   Zn769   1.959   .     S
O763   C659    1.296   1_655 S
O764   Zn770   1.959   .     S
O765   Zn770   1.910   .     S
O765   C767    1.300   .     A
O766   C768    1.302   .     A
O766   Zn769   1.910   .     S
C767   C771    1.449   .     S
C768   C772    1.453   .     S
C768   O656    1.296   1_655 S
Zn769  N800    2.029   .     S
Zn770  N799    2.029   .     S
C771   C775    1.399   .     A
C771   C777    1.386   .     A
C772   C778    1.390   .     A
C772   C668    1.399   1_655 S
C773   C781    1.404   .     A
C773   C775    1.394   .     A
C773   H793    1.084   .     S
C774   C782    1.403   .     A
C774   C668    1.392   1_655 S
C774   H686    1.084   1_655 S
C776   H791    1.083   .     S
C777   C779    1.393   .     A
C777   H802    1.079   .     S
C778   C780    1.394   .     A
C778   H801    1.077   .     S
C779   C783    1.415   .     A
C779   C781    1.418   .     A
C780   C782    1.419   .     A
C780   C784    1.417   .     A
C781   C301    1.389   1_556 S
C783   C786    1.418   .     A
C783   C298    1.414   1_556 S
C784   C785    1.419   .     A
C785   H795    1.078   .     S
C785   C787    1.388   .     A
C786   C788    1.386   .     A
C786   H796    1.078   .     S
C787   H789    1.084   .     S
C788   H790    1.084   .     S
C788   C296    1.389   1_556 S
H792   C667    1.083   1_655 S
C797   C906    1.337   .     S
C797   H965    1.086   .     S
C798   C527    1.337   1_655 S
N799   N800    1.293   .     D
N799   N805    1.384   .     S
N800   N808    1.384   .     S
H804   C960    1.086   .     S
N805   O806    1.300   .     A
N805   O807    1.300   .     A
N808   O810    1.300   .     A
N808   O809    1.300   .     A
O811   Zn823   1.952   .     S
O811   C869    1.281   .     S
O812   Zn824   1.952   .     S
O812   C924    1.281   1_455 S
O813   Zn824   1.976   .     S
O813   C815    1.293   .     A
O814   C816    1.293   .     A
O814   Zn823   1.976   .     S
C815   C851    1.401   .     S
C815   O919    1.281   1_455 S
C816   C852    1.402   .     S
C816   O866    1.281   .     S
O817   Zn823   1.959   .     S
O817   C875    1.296   .     S
O818   Zn824   1.959   .     S
O818   C930    1.296   1_455 S
O819   Zn824   1.910   .     S
O819   C821    1.300   .     A
O820   C822    1.302   .     A
O820   Zn823   1.910   .     S
C821   C825    1.449   .     S
C821   O925    1.296   1_455 S
C822   C826    1.453   .     S
C822   O872    1.296   .     S
Zn823  N854    2.029   .     S
Zn824  N853    2.029   .     S
C825   C829    1.399   .     A
C825   C831    1.386   .     A
C826   C832    1.390   .     A
C826   C884    1.399   .     S
C827   C835    1.404   .     A
C827   C829    1.394   .     A
C827   H847    1.084   .     S
C828   C836    1.403   .     A
C828   C884    1.392   .     S
C828   H902    1.084   .     S
C829   H954    1.083   1_455 S
C830   H845    1.083   .     S
C830   C934    1.399   1_455 S
C830   C936    1.392   1_455 S
C831   C833    1.393   .     A
C831   H856    1.079   .     S
C832   C834    1.394   .     A
C832   H855    1.077   .     S
C833   C837    1.415   .     A
C833   C835    1.418   .     A
C834   C836    1.419   .     A
C834   C838    1.417   .     A
C835   C355    1.389   1_556 S
C837   C840    1.418   .     A
C837   C352    1.414   1_556 S
C838   C839    1.419   .     A
C839   H849    1.078   .     S
C839   C841    1.388   .     A
C840   C842    1.386   .     A
C840   H850    1.078   .     S
C841   H843    1.084   .     S
C842   H844    1.084   .     S
C842   C350    1.389   1_556 S
H846   C883    1.083   .     S
H848   C936    1.084   1_455 S
C851   C636    1.337   1_465 S
C851   H533    1.086   1_565 S
N853   N854    1.293   .     D
N853   N859    1.384   .     S
N854   N862    1.384   .     S
H858   C528    1.086   1_565 S
N859   O860    1.300   .     A
N859   O861    1.300   .     A
N862   O864    1.300   .     A
N862   O863    1.300   .     A
O865   Zn877   1.952   .     S
O865   C923    1.281   .     S
O866   Zn878   1.952   .     S
O867   Zn878   1.976   .     S
O867   C869    1.293   .     A
O868   C870    1.293   .     A
O868   Zn877   1.976   .     S
C869   C905    1.401   .     S
C870   C906    1.402   .     S
C870   O920    1.281   .     S
O871   Zn877   1.959   .     S
O871   C929    1.296   .     S
O872   Zn878   1.959   .     S
O873   Zn878   1.910   .     S
O873   C875    1.300   .     A
O874   C876    1.302   .     A
O874   Zn877   1.910   .     S
C875   C879    1.449   .     S
C876   C880    1.453   .     S
C876   O926    1.296   .     S
Zn877  N908    2.029   .     S
Zn878  N907    2.029   .     S
C879   C883    1.399   .     A
C879   C885    1.386   .     A
C880   C886    1.390   .     A
C880   C938    1.399   .     S
C881   C889    1.404   .     A
C881   C883    1.394   .     A
C881   H901    1.084   .     S
C882   C890    1.403   .     A
C882   C938    1.392   .     S
C882   H956    1.084   .     S
C884   H899    1.083   .     S
C885   C887    1.393   .     A
C885   H910    1.079   .     S
C886   C888    1.394   .     A
C886   H909    1.077   .     S
C887   C891    1.415   .     A
C887   C889    1.418   .     A
C888   C890    1.419   .     A
C888   C892    1.417   .     A
C889   C409    1.389   1_556 S
C891   C894    1.418   .     A
C891   C406    1.414   1_556 S
C892   C893    1.419   .     A
C893   H903    1.078   .     S
C893   C895    1.388   .     A
C894   C896    1.386   .     A
C894   H904    1.078   .     S
C895   H897    1.084   .     S
C896   H898    1.084   .     S
C896   C404    1.389   1_556 S
H900   C937    1.083   .     S
C905   C528    1.337   1_565 S
C905   H587    1.086   1_565 S
N907   N908    1.293   .     D
N907   N913    1.384   .     S
N908   N916    1.384   .     S
H912   C582    1.086   1_565 S
N913   O914    1.300   .     A
N913   O915    1.300   .     A
N916   O918    1.300   .     A
N916   O917    1.300   .     A
O919   Zn931   1.952   .     S
O919   C815    1.281   1_655 S
O920   Zn932   1.952   .     S
O921   Zn932   1.976   .     S
O921   C923    1.293   .     A
O922   C924    1.293   .     A
O922   Zn931   1.976   .     S
C923   C959    1.401   .     S
C924   C960    1.402   .     S
C924   O812    1.281   1_655 S
O925   Zn931   1.959   .     S
O925   C821    1.296   1_655 S
O926   Zn932   1.959   .     S
O927   Zn932   1.910   .     S
O927   C929    1.300   .     A
O928   C930    1.302   .     A
O928   Zn931   1.910   .     S
C929   C933    1.449   .     S
C930   C934    1.453   .     S
C930   O818    1.296   1_655 S
Zn931  N962    2.029   .     S
Zn932  N961    2.029   .     S
C933   C937    1.399   .     A
C933   C939    1.386   .     A
C934   C940    1.390   .     A
C934   C830    1.399   1_655 S
C935   C943    1.404   .     A
C935   C937    1.394   .     A
C935   H955    1.084   .     S
C936   C944    1.403   .     A
C936   C830    1.392   1_655 S
C936   H848    1.084   1_655 S
C938   H953    1.083   .     S
C939   C941    1.393   .     A
C939   H964    1.079   .     S
C940   C942    1.394   .     A
C940   H963    1.077   .     S
C941   C945    1.415   .     A
C941   C943    1.418   .     A
C942   C944    1.419   .     A
C942   C946    1.417   .     A
C943   C463    1.389   1_556 S
C945   C948    1.418   .     A
C945   C460    1.414   1_556 S
C946   C947    1.419   .     A
C947   H957    1.078   .     S
C947   C949    1.388   .     A
C948   C950    1.386   .     A
C948   H958    1.078   .     S
C949   H951    1.084   .     S
C950   H952    1.084   .     S
C950   C458    1.389   1_556 S
H954   C829    1.083   1_655 S
C959   C582    1.337   1_565 S
C959   H641    1.086   1_565 S
C960   C689    1.337   1_655 S
N961   N962    1.293   .     D
N961   N967    1.384   .     S
N962   N970    1.384   .     S
H966   C636    1.086   1_565 S
N967   O968    1.300   .     A
N967   O969    1.300   .     A
N970   O972    1.300   .     A
N970   O971    1.300   .     A
