data_str_m3_o1_o18_pcu_sym.159
_audit_creation_date              2020-01-03
_audit_creation_method            'Materials Studio'
_symmetry_space_group_name_H-M    'P1'
_symmetry_Int_Tables_number       1
_symmetry_cell_setting            triclinic
loop_
_symmetry_equiv_pos_as_xyz
  x,y,z
_cell_length_a                    29.5680
_cell_length_b                    32.1453
_cell_length_c                    31.1228
_cell_angle_alpha                 90.0712
_cell_angle_beta                  66.9545
_cell_angle_gamma                 90.0141
loop_
_atom_site_label
_atom_site_type_symbol
_atom_site_fract_x
_atom_site_fract_y
_atom_site_fract_z
_atom_site_U_iso_or_equiv
_atom_site_adp_type
_atom_site_occupancy
O1     O     0.12846   0.22775   0.25000   0.00000  Uiso   1.00
O2     O     0.20488   0.10558   0.24999   0.00000  Uiso   1.00
O3     O     0.20490   0.22774   0.25000   0.00000  Uiso   1.00
O4     O     0.12843   0.10559   0.25000   0.00000  Uiso   1.00
C5     C     0.16667   0.24669   0.25003   0.00000  Uiso   1.00
C6     C     0.16666   0.08664   0.24997   0.00000  Uiso   1.00
O7     O     0.10661   0.16667   0.31612   0.00000  Uiso   1.00
O8     O     0.22672   0.16666   0.18388   0.00000  Uiso   1.00
O9     O     0.18305   0.16666   0.31612   0.00000  Uiso   1.00
O10    O     0.15028   0.16667   0.18388   0.00000  Uiso   1.00
C11    C     0.13577   0.16679   0.33803   0.00000  Uiso   1.00
C12    C     0.19756   0.16655   0.16197   0.00000  Uiso   1.00
Zn13   Zn    0.11562   0.16667   0.25000   0.00000  Uiso   1.00
Zn14   Zn    0.21771   0.16666   0.25000   0.00000  Uiso   1.00
C15    C     0.11601   0.16476   0.38876   0.00000  Uiso   1.00
C16    C     0.21733   0.16870   0.11125   0.00000  Uiso   1.00
C17    C     0.05747   0.13901   0.46203   0.00000  Uiso   1.00
C18    C     0.27579   0.19470   0.03807   0.00000  Uiso   1.00
C19    C     0.07081   0.14626   0.41456   0.00000  Uiso   1.00
C20    C     0.26246   0.18733   0.08551   0.00000  Uiso   1.00
C21    C     0.14655   0.17742   0.41063   0.00000  Uiso   1.00
C22    C     0.18681   0.15608   0.08934   0.00000  Uiso   1.00
C23    C     0.13695   0.16628   0.45677   0.00000  Uiso   1.00
C24    C     0.19634   0.16739   0.04326   0.00000  Uiso   1.00
C25    C     0.09060   0.14792   0.48347   0.00000  Uiso   1.00
C26    C     0.24267   0.18581   0.01661   0.00000  Uiso   1.00
C27    C     0.17273   0.17212   0.47634   0.00000  Uiso   1.00
C28    C     0.16055   0.16163   0.02372   0.00000  Uiso   1.00
C29    C     0.11256   0.14663   0.05046   0.00000  Uiso   1.00
C30    C     0.22069   0.18719   0.44962   0.00000  Uiso   1.00
C31    C     0.07864   0.13877   0.03067   0.00000  Uiso   1.00
C32    C     0.25461   0.19504   0.46943   0.00000  Uiso   1.00
H33    H     0.15495   0.13829   0.11004   0.00000  Uiso   1.00
H34    H     0.17848   0.19509   0.38985   0.00000  Uiso   1.00
H35    H     0.28677   0.19699   0.10218   0.00000  Uiso   1.00
H36    H     0.04648   0.13659   0.39793   0.00000  Uiso   1.00
H37    H     0.02199   0.12493   0.48127   0.00000  Uiso   1.00
H38    H     0.31122   0.20885   0.01887   0.00000  Uiso   1.00
H39    H     0.09967   0.14074   0.08737   0.00000  Uiso   1.00
H40    H     0.23358   0.19318   0.41273   0.00000  Uiso   1.00
C41    C     0.21092   0.31202   0.23988   0.00000  Uiso   1.00
C42    C     0.12241   0.02131   0.26012   0.00000  Uiso   1.00
H43    H     0.24542   0.29578   0.23167   0.00000  Uiso   1.00
H44    H     0.08791   0.03755   0.26833   0.00000  Uiso   1.00
C45    C     0.21092   0.02131   0.23982   0.00000  Uiso   1.00
C46    C     0.12241   0.31202   0.26018   0.00000  Uiso   1.00
H47    H     0.24543   0.03756   0.23157   0.00000  Uiso   1.00
H48    H     0.08790   0.29577   0.26843   0.00000  Uiso   1.00
C49    C     0.16667   0.04249   0.24995   0.00000  Uiso   1.00
C50    C     0.16667   0.29085   0.25005   0.00000  Uiso   1.00
C51    C     0.32199   0.14238   0.21931   0.00000  Uiso   1.00
C52    C     0.01134   0.19095   0.28069   0.00000  Uiso   1.00
H53    H     0.31396   0.12298   0.19475   0.00000  Uiso   1.00
H54    H     0.01937   0.21036   0.30525   0.00000  Uiso   1.00
C55    C     0.03656   0.14236   0.21934   0.00000  Uiso   1.00
C56    C     0.29677   0.19097   0.28065   0.00000  Uiso   1.00
H57    H     0.06475   0.12288   0.19482   0.00000  Uiso   1.00
H58    H     0.26859   0.21045   0.30518   0.00000  Uiso   1.00
N59    N     0.04759   0.16668   0.25001   0.00000  Uiso   1.00
N60    N     0.28574   0.16666   0.24999   0.00000  Uiso   1.00
C61    C     0.03188   0.12064   0.05997   0.00000  Uiso   1.00
N62    N     0.32796   0.10599   0.08346   0.00000  Uiso   1.00
C63    C     0.30138   0.21317   0.44015   0.00000  Uiso   1.00
N64    N     0.00531   0.22781   0.41668   0.00000  Uiso   1.00
O65    O     0.46179   0.22775   0.25000   0.00000  Uiso   1.00
O66    O     0.53821   0.10558   0.24999   0.00000  Uiso   1.00
O67    O     0.53823   0.22774   0.25000   0.00000  Uiso   1.00
O68    O     0.46177   0.10559   0.25000   0.00000  Uiso   1.00
C69    C     0.50001   0.24669   0.25003   0.00000  Uiso   1.00
C70    C     0.49999   0.08664   0.24997   0.00000  Uiso   1.00
O71    O     0.43994   0.16667   0.31612   0.00000  Uiso   1.00
O72    O     0.56006   0.16666   0.18388   0.00000  Uiso   1.00
O73    O     0.51639   0.16666   0.31612   0.00000  Uiso   1.00
O74    O     0.48361   0.16667   0.18388   0.00000  Uiso   1.00
C75    C     0.46910   0.16679   0.33803   0.00000  Uiso   1.00
C76    C     0.53090   0.16655   0.16197   0.00000  Uiso   1.00
Zn77   Zn    0.44896   0.16667   0.25000   0.00000  Uiso   1.00
Zn78   Zn    0.55104   0.16666   0.25000   0.00000  Uiso   1.00
C79    C     0.44934   0.16476   0.38876   0.00000  Uiso   1.00
C80    C     0.55066   0.16870   0.11125   0.00000  Uiso   1.00
C81    C     0.39080   0.13901   0.46203   0.00000  Uiso   1.00
C82    C     0.60912   0.19470   0.03807   0.00000  Uiso   1.00
C83    C     0.40414   0.14626   0.41456   0.00000  Uiso   1.00
C84    C     0.59580   0.18733   0.08551   0.00000  Uiso   1.00
C85    C     0.47988   0.17742   0.41063   0.00000  Uiso   1.00
C86    C     0.52015   0.15608   0.08934   0.00000  Uiso   1.00
C87    C     0.47029   0.16628   0.45677   0.00000  Uiso   1.00
C88    C     0.52968   0.16739   0.04326   0.00000  Uiso   1.00
C89    C     0.42393   0.14792   0.48347   0.00000  Uiso   1.00
C90    C     0.57600   0.18581   0.01661   0.00000  Uiso   1.00
C91    C     0.50606   0.17212   0.47634   0.00000  Uiso   1.00
C92    C     0.49389   0.16163   0.02372   0.00000  Uiso   1.00
C93    C     0.44590   0.14663   0.05046   0.00000  Uiso   1.00
C94    C     0.55403   0.18719   0.44962   0.00000  Uiso   1.00
C95    C     0.41198   0.13877   0.03067   0.00000  Uiso   1.00
C96    C     0.58794   0.19504   0.46943   0.00000  Uiso   1.00
H97    H     0.48828   0.13829   0.11004   0.00000  Uiso   1.00
H98    H     0.51182   0.19509   0.38985   0.00000  Uiso   1.00
H99    H     0.62010   0.19699   0.10218   0.00000  Uiso   1.00
H100   H     0.37981   0.13659   0.39793   0.00000  Uiso   1.00
H101   H     0.35532   0.12493   0.48127   0.00000  Uiso   1.00
H102   H     0.64456   0.20885   0.01887   0.00000  Uiso   1.00
H103   H     0.43300   0.14074   0.08737   0.00000  Uiso   1.00
H104   H     0.56691   0.19318   0.41273   0.00000  Uiso   1.00
C105   C     0.54425   0.31202   0.23988   0.00000  Uiso   1.00
C106   C     0.45575   0.02131   0.26012   0.00000  Uiso   1.00
H107   H     0.57875   0.29578   0.23167   0.00000  Uiso   1.00
H108   H     0.42125   0.03755   0.26833   0.00000  Uiso   1.00
C109   C     0.54426   0.02131   0.23982   0.00000  Uiso   1.00
C110   C     0.45574   0.31202   0.26018   0.00000  Uiso   1.00
H111   H     0.57876   0.03756   0.23157   0.00000  Uiso   1.00
H112   H     0.42124   0.29577   0.26843   0.00000  Uiso   1.00
C113   C     0.50000   0.04249   0.24995   0.00000  Uiso   1.00
C114   C     0.50000   0.29085   0.25005   0.00000  Uiso   1.00
C115   C     0.65532   0.14238   0.21931   0.00000  Uiso   1.00
C116   C     0.34468   0.19095   0.28069   0.00000  Uiso   1.00
H117   H     0.64729   0.12298   0.19475   0.00000  Uiso   1.00
H118   H     0.35271   0.21036   0.30525   0.00000  Uiso   1.00
C119   C     0.36990   0.14236   0.21934   0.00000  Uiso   1.00
C120   C     0.63010   0.19097   0.28065   0.00000  Uiso   1.00
H121   H     0.39808   0.12288   0.19482   0.00000  Uiso   1.00
H122   H     0.60192   0.21045   0.30518   0.00000  Uiso   1.00
N123   N     0.38093   0.16668   0.25001   0.00000  Uiso   1.00
N124   N     0.61907   0.16666   0.24999   0.00000  Uiso   1.00
C125   C     0.36521   0.12064   0.05997   0.00000  Uiso   1.00
N126   N     0.66129   0.10599   0.08346   0.00000  Uiso   1.00
C127   C     0.63472   0.21317   0.44015   0.00000  Uiso   1.00
N128   N     0.33864   0.22781   0.41668   0.00000  Uiso   1.00
O129   O     0.79512   0.22775   0.25000   0.00000  Uiso   1.00
O130   O     0.87154   0.10558   0.24999   0.00000  Uiso   1.00
O131   O     0.87157   0.22774   0.25000   0.00000  Uiso   1.00
O132   O     0.79510   0.10559   0.25000   0.00000  Uiso   1.00
C133   C     0.83334   0.24669   0.25003   0.00000  Uiso   1.00
C134   C     0.83333   0.08664   0.24997   0.00000  Uiso   1.00
O135   O     0.77328   0.16667   0.31612   0.00000  Uiso   1.00
O136   O     0.89339   0.16666   0.18388   0.00000  Uiso   1.00
O137   O     0.84972   0.16666   0.31612   0.00000  Uiso   1.00
O138   O     0.81695   0.16667   0.18388   0.00000  Uiso   1.00
C139   C     0.80244   0.16679   0.33803   0.00000  Uiso   1.00
C140   C     0.86423   0.16655   0.16197   0.00000  Uiso   1.00
Zn141  Zn    0.78229   0.16667   0.25000   0.00000  Uiso   1.00
Zn142  Zn    0.88438   0.16666   0.25000   0.00000  Uiso   1.00
C143   C     0.78267   0.16476   0.38876   0.00000  Uiso   1.00
C144   C     0.88399   0.16870   0.11125   0.00000  Uiso   1.00
C145   C     0.72413   0.13901   0.46203   0.00000  Uiso   1.00
C146   C     0.94245   0.19470   0.03807   0.00000  Uiso   1.00
C147   C     0.73748   0.14626   0.41456   0.00000  Uiso   1.00
C148   C     0.92913   0.18733   0.08551   0.00000  Uiso   1.00
C149   C     0.81321   0.17742   0.41063   0.00000  Uiso   1.00
C150   C     0.85348   0.15608   0.08934   0.00000  Uiso   1.00
C151   C     0.80362   0.16628   0.45677   0.00000  Uiso   1.00
C152   C     0.86301   0.16739   0.04326   0.00000  Uiso   1.00
C153   C     0.75726   0.14792   0.48347   0.00000  Uiso   1.00
C154   C     0.90934   0.18581   0.01661   0.00000  Uiso   1.00
C155   C     0.83939   0.17212   0.47634   0.00000  Uiso   1.00
C156   C     0.82722   0.16163   0.02372   0.00000  Uiso   1.00
C157   C     0.77923   0.14663   0.05046   0.00000  Uiso   1.00
C158   C     0.88736   0.18719   0.44962   0.00000  Uiso   1.00
C159   C     0.74531   0.13877   0.03067   0.00000  Uiso   1.00
C160   C     0.92128   0.19504   0.46943   0.00000  Uiso   1.00
H161   H     0.82161   0.13829   0.11004   0.00000  Uiso   1.00
H162   H     0.84515   0.19509   0.38985   0.00000  Uiso   1.00
H163   H     0.95343   0.19699   0.10218   0.00000  Uiso   1.00
H164   H     0.71314   0.13659   0.39793   0.00000  Uiso   1.00
H165   H     0.68866   0.12493   0.48127   0.00000  Uiso   1.00
H166   H     0.97789   0.20885   0.01887   0.00000  Uiso   1.00
H167   H     0.76634   0.14074   0.08737   0.00000  Uiso   1.00
H168   H     0.90024   0.19318   0.41273   0.00000  Uiso   1.00
C169   C     0.87759   0.31202   0.23988   0.00000  Uiso   1.00
C170   C     0.78908   0.02131   0.26012   0.00000  Uiso   1.00
H171   H     0.91209   0.29578   0.23167   0.00000  Uiso   1.00
H172   H     0.75458   0.03755   0.26833   0.00000  Uiso   1.00
C173   C     0.87759   0.02131   0.23982   0.00000  Uiso   1.00
C174   C     0.78908   0.31202   0.26018   0.00000  Uiso   1.00
H175   H     0.91210   0.03756   0.23157   0.00000  Uiso   1.00
H176   H     0.75457   0.29577   0.26843   0.00000  Uiso   1.00
C177   C     0.83333   0.04249   0.24995   0.00000  Uiso   1.00
C178   C     0.83333   0.29085   0.25005   0.00000  Uiso   1.00
C179   C     0.98866   0.14238   0.21931   0.00000  Uiso   1.00
C180   C     0.67801   0.19095   0.28069   0.00000  Uiso   1.00
H181   H     0.98063   0.12298   0.19475   0.00000  Uiso   1.00
H182   H     0.68604   0.21036   0.30525   0.00000  Uiso   1.00
C183   C     0.70323   0.14236   0.21934   0.00000  Uiso   1.00
C184   C     0.96344   0.19097   0.28065   0.00000  Uiso   1.00
H185   H     0.73141   0.12288   0.19482   0.00000  Uiso   1.00
H186   H     0.93525   0.21045   0.30518   0.00000  Uiso   1.00
N187   N     0.71426   0.16668   0.25001   0.00000  Uiso   1.00
N188   N     0.95241   0.16666   0.24999   0.00000  Uiso   1.00
C189   C     0.69854   0.12064   0.05997   0.00000  Uiso   1.00
N190   N     0.99463   0.10599   0.08346   0.00000  Uiso   1.00
C191   C     0.96805   0.21317   0.44015   0.00000  Uiso   1.00
N192   N     0.67198   0.22781   0.41668   0.00000  Uiso   1.00
O193   O     0.12846   0.56108   0.25000   0.00000  Uiso   1.00
O194   O     0.20488   0.43892   0.24999   0.00000  Uiso   1.00
O195   O     0.20490   0.56107   0.25000   0.00000  Uiso   1.00
O196   O     0.12843   0.43893   0.25000   0.00000  Uiso   1.00
C197   C     0.16667   0.58003   0.25003   0.00000  Uiso   1.00
C198   C     0.16666   0.41997   0.24997   0.00000  Uiso   1.00
O199   O     0.10661   0.50001   0.31612   0.00000  Uiso   1.00
O200   O     0.22672   0.49999   0.18388   0.00000  Uiso   1.00
O201   O     0.18305   0.50000   0.31612   0.00000  Uiso   1.00
O202   O     0.15028   0.50000   0.18388   0.00000  Uiso   1.00
C203   C     0.13577   0.50013   0.33803   0.00000  Uiso   1.00
C204   C     0.19756   0.49989   0.16197   0.00000  Uiso   1.00
Zn205  Zn    0.11562   0.50001   0.25000   0.00000  Uiso   1.00
Zn206  Zn    0.21771   0.49999   0.25000   0.00000  Uiso   1.00
C207   C     0.11601   0.49809   0.38876   0.00000  Uiso   1.00
C208   C     0.21733   0.50204   0.11125   0.00000  Uiso   1.00
C209   C     0.05747   0.47234   0.46203   0.00000  Uiso   1.00
C210   C     0.27579   0.52803   0.03807   0.00000  Uiso   1.00
C211   C     0.07081   0.47959   0.41456   0.00000  Uiso   1.00
C212   C     0.26246   0.52066   0.08551   0.00000  Uiso   1.00
C213   C     0.14655   0.51075   0.41063   0.00000  Uiso   1.00
C214   C     0.18681   0.48941   0.08934   0.00000  Uiso   1.00
C215   C     0.13695   0.49961   0.45677   0.00000  Uiso   1.00
C216   C     0.19634   0.50073   0.04326   0.00000  Uiso   1.00
C217   C     0.09060   0.48126   0.48347   0.00000  Uiso   1.00
C218   C     0.24267   0.51914   0.01661   0.00000  Uiso   1.00
C219   C     0.17273   0.50545   0.47634   0.00000  Uiso   1.00
C220   C     0.16055   0.49496   0.02372   0.00000  Uiso   1.00
C221   C     0.11256   0.47996   0.05046   0.00000  Uiso   1.00
C222   C     0.22069   0.52052   0.44962   0.00000  Uiso   1.00
C223   C     0.07864   0.47210   0.03067   0.00000  Uiso   1.00
C224   C     0.25461   0.52837   0.46943   0.00000  Uiso   1.00
H225   H     0.15495   0.47162   0.11004   0.00000  Uiso   1.00
H226   H     0.17848   0.52842   0.38985   0.00000  Uiso   1.00
H227   H     0.28677   0.53032   0.10218   0.00000  Uiso   1.00
H228   H     0.04648   0.46992   0.39793   0.00000  Uiso   1.00
H229   H     0.02199   0.45826   0.48127   0.00000  Uiso   1.00
H230   H     0.31122   0.54218   0.01887   0.00000  Uiso   1.00
H231   H     0.09967   0.47407   0.08737   0.00000  Uiso   1.00
H232   H     0.23358   0.52651   0.41273   0.00000  Uiso   1.00
C233   C     0.21092   0.64536   0.23988   0.00000  Uiso   1.00
C234   C     0.12241   0.35464   0.26012   0.00000  Uiso   1.00
H235   H     0.24542   0.62912   0.23167   0.00000  Uiso   1.00
H236   H     0.08791   0.37088   0.26833   0.00000  Uiso   1.00
C237   C     0.21092   0.35465   0.23982   0.00000  Uiso   1.00
C238   C     0.12241   0.64535   0.26018   0.00000  Uiso   1.00
H239   H     0.24543   0.37089   0.23157   0.00000  Uiso   1.00
H240   H     0.08790   0.62911   0.26843   0.00000  Uiso   1.00
C241   C     0.16667   0.37582   0.24995   0.00000  Uiso   1.00
C242   C     0.16667   0.62418   0.25005   0.00000  Uiso   1.00
C243   C     0.32199   0.47572   0.21931   0.00000  Uiso   1.00
C244   C     0.01134   0.52428   0.28069   0.00000  Uiso   1.00
H245   H     0.31396   0.45631   0.19475   0.00000  Uiso   1.00
H246   H     0.01937   0.54369   0.30525   0.00000  Uiso   1.00
C247   C     0.03656   0.47570   0.21934   0.00000  Uiso   1.00
C248   C     0.29677   0.52430   0.28065   0.00000  Uiso   1.00
H249   H     0.06475   0.45622   0.19482   0.00000  Uiso   1.00
H250   H     0.26859   0.54379   0.30518   0.00000  Uiso   1.00
N251   N     0.04759   0.50001   0.25001   0.00000  Uiso   1.00
N252   N     0.28574   0.49999   0.24999   0.00000  Uiso   1.00
C253   C     0.03188   0.45397   0.05997   0.00000  Uiso   1.00
N254   N     0.32796   0.43932   0.08346   0.00000  Uiso   1.00
C255   C     0.30138   0.54650   0.44015   0.00000  Uiso   1.00
N256   N     0.00531   0.56115   0.41668   0.00000  Uiso   1.00
O257   O     0.46179   0.56108   0.25000   0.00000  Uiso   1.00
O258   O     0.53821   0.43892   0.24999   0.00000  Uiso   1.00
O259   O     0.53823   0.56107   0.25000   0.00000  Uiso   1.00
O260   O     0.46177   0.43893   0.25000   0.00000  Uiso   1.00
C261   C     0.50001   0.58003   0.25003   0.00000  Uiso   1.00
C262   C     0.49999   0.41997   0.24997   0.00000  Uiso   1.00
O263   O     0.43994   0.50001   0.31612   0.00000  Uiso   1.00
O264   O     0.56006   0.49999   0.18388   0.00000  Uiso   1.00
O265   O     0.51639   0.50000   0.31612   0.00000  Uiso   1.00
O266   O     0.48361   0.50000   0.18388   0.00000  Uiso   1.00
C267   C     0.46910   0.50013   0.33803   0.00000  Uiso   1.00
C268   C     0.53090   0.49989   0.16197   0.00000  Uiso   1.00
Zn269  Zn    0.44896   0.50001   0.25000   0.00000  Uiso   1.00
Zn270  Zn    0.55104   0.49999   0.25000   0.00000  Uiso   1.00
C271   C     0.44934   0.49809   0.38876   0.00000  Uiso   1.00
C272   C     0.55066   0.50204   0.11125   0.00000  Uiso   1.00
C273   C     0.39080   0.47234   0.46203   0.00000  Uiso   1.00
C274   C     0.60912   0.52803   0.03807   0.00000  Uiso   1.00
C275   C     0.40414   0.47959   0.41456   0.00000  Uiso   1.00
C276   C     0.59580   0.52066   0.08551   0.00000  Uiso   1.00
C277   C     0.47988   0.51075   0.41063   0.00000  Uiso   1.00
C278   C     0.52015   0.48941   0.08934   0.00000  Uiso   1.00
C279   C     0.47029   0.49961   0.45677   0.00000  Uiso   1.00
C280   C     0.52968   0.50073   0.04326   0.00000  Uiso   1.00
C281   C     0.42393   0.48126   0.48347   0.00000  Uiso   1.00
C282   C     0.57600   0.51914   0.01661   0.00000  Uiso   1.00
C283   C     0.50606   0.50545   0.47634   0.00000  Uiso   1.00
C284   C     0.49389   0.49496   0.02372   0.00000  Uiso   1.00
C285   C     0.44590   0.47996   0.05046   0.00000  Uiso   1.00
C286   C     0.55403   0.52052   0.44962   0.00000  Uiso   1.00
C287   C     0.41198   0.47210   0.03067   0.00000  Uiso   1.00
C288   C     0.58794   0.52837   0.46943   0.00000  Uiso   1.00
H289   H     0.48828   0.47162   0.11004   0.00000  Uiso   1.00
H290   H     0.51182   0.52842   0.38985   0.00000  Uiso   1.00
H291   H     0.62010   0.53032   0.10218   0.00000  Uiso   1.00
H292   H     0.37981   0.46992   0.39793   0.00000  Uiso   1.00
H293   H     0.35532   0.45826   0.48127   0.00000  Uiso   1.00
H294   H     0.64456   0.54218   0.01887   0.00000  Uiso   1.00
H295   H     0.43300   0.47407   0.08737   0.00000  Uiso   1.00
H296   H     0.56691   0.52651   0.41273   0.00000  Uiso   1.00
C297   C     0.54425   0.64536   0.23988   0.00000  Uiso   1.00
C298   C     0.45575   0.35464   0.26012   0.00000  Uiso   1.00
H299   H     0.57875   0.62912   0.23167   0.00000  Uiso   1.00
H300   H     0.42125   0.37088   0.26833   0.00000  Uiso   1.00
C301   C     0.54426   0.35465   0.23982   0.00000  Uiso   1.00
C302   C     0.45574   0.64535   0.26018   0.00000  Uiso   1.00
H303   H     0.57876   0.37089   0.23157   0.00000  Uiso   1.00
H304   H     0.42124   0.62911   0.26843   0.00000  Uiso   1.00
C305   C     0.50000   0.37582   0.24995   0.00000  Uiso   1.00
C306   C     0.50000   0.62418   0.25005   0.00000  Uiso   1.00
C307   C     0.65532   0.47572   0.21931   0.00000  Uiso   1.00
C308   C     0.34468   0.52428   0.28069   0.00000  Uiso   1.00
H309   H     0.64729   0.45631   0.19475   0.00000  Uiso   1.00
H310   H     0.35271   0.54369   0.30525   0.00000  Uiso   1.00
C311   C     0.36990   0.47570   0.21934   0.00000  Uiso   1.00
C312   C     0.63010   0.52430   0.28065   0.00000  Uiso   1.00
H313   H     0.39808   0.45622   0.19482   0.00000  Uiso   1.00
H314   H     0.60192   0.54379   0.30518   0.00000  Uiso   1.00
N315   N     0.38093   0.50001   0.25001   0.00000  Uiso   1.00
N316   N     0.61907   0.49999   0.24999   0.00000  Uiso   1.00
C317   C     0.36521   0.45397   0.05997   0.00000  Uiso   1.00
N318   N     0.66129   0.43932   0.08346   0.00000  Uiso   1.00
C319   C     0.63472   0.54650   0.44015   0.00000  Uiso   1.00
N320   N     0.33864   0.56115   0.41668   0.00000  Uiso   1.00
O321   O     0.79512   0.56108   0.25000   0.00000  Uiso   1.00
O322   O     0.87154   0.43892   0.24999   0.00000  Uiso   1.00
O323   O     0.87157   0.56107   0.25000   0.00000  Uiso   1.00
O324   O     0.79510   0.43893   0.25000   0.00000  Uiso   1.00
C325   C     0.83334   0.58003   0.25003   0.00000  Uiso   1.00
C326   C     0.83333   0.41997   0.24997   0.00000  Uiso   1.00
O327   O     0.77328   0.50001   0.31612   0.00000  Uiso   1.00
O328   O     0.89339   0.49999   0.18388   0.00000  Uiso   1.00
O329   O     0.84972   0.50000   0.31612   0.00000  Uiso   1.00
O330   O     0.81695   0.50000   0.18388   0.00000  Uiso   1.00
C331   C     0.80244   0.50013   0.33803   0.00000  Uiso   1.00
C332   C     0.86423   0.49989   0.16197   0.00000  Uiso   1.00
Zn333  Zn    0.78229   0.50001   0.25000   0.00000  Uiso   1.00
Zn334  Zn    0.88438   0.49999   0.25000   0.00000  Uiso   1.00
C335   C     0.78267   0.49809   0.38876   0.00000  Uiso   1.00
C336   C     0.88399   0.50204   0.11125   0.00000  Uiso   1.00
C337   C     0.72413   0.47234   0.46203   0.00000  Uiso   1.00
C338   C     0.94245   0.52803   0.03807   0.00000  Uiso   1.00
C339   C     0.73748   0.47959   0.41456   0.00000  Uiso   1.00
C340   C     0.92913   0.52066   0.08551   0.00000  Uiso   1.00
C341   C     0.81321   0.51075   0.41063   0.00000  Uiso   1.00
C342   C     0.85348   0.48941   0.08934   0.00000  Uiso   1.00
C343   C     0.80362   0.49961   0.45677   0.00000  Uiso   1.00
C344   C     0.86301   0.50073   0.04326   0.00000  Uiso   1.00
C345   C     0.75726   0.48126   0.48347   0.00000  Uiso   1.00
C346   C     0.90934   0.51914   0.01661   0.00000  Uiso   1.00
C347   C     0.83939   0.50545   0.47634   0.00000  Uiso   1.00
C348   C     0.82722   0.49496   0.02372   0.00000  Uiso   1.00
C349   C     0.77923   0.47996   0.05046   0.00000  Uiso   1.00
C350   C     0.88736   0.52052   0.44962   0.00000  Uiso   1.00
C351   C     0.74531   0.47210   0.03067   0.00000  Uiso   1.00
C352   C     0.92128   0.52837   0.46943   0.00000  Uiso   1.00
H353   H     0.82161   0.47162   0.11004   0.00000  Uiso   1.00
H354   H     0.84515   0.52842   0.38985   0.00000  Uiso   1.00
H355   H     0.95343   0.53032   0.10218   0.00000  Uiso   1.00
H356   H     0.71314   0.46992   0.39793   0.00000  Uiso   1.00
H357   H     0.68866   0.45826   0.48127   0.00000  Uiso   1.00
H358   H     0.97789   0.54218   0.01887   0.00000  Uiso   1.00
H359   H     0.76634   0.47407   0.08737   0.00000  Uiso   1.00
H360   H     0.90024   0.52651   0.41273   0.00000  Uiso   1.00
C361   C     0.87759   0.64536   0.23988   0.00000  Uiso   1.00
C362   C     0.78908   0.35464   0.26012   0.00000  Uiso   1.00
H363   H     0.91209   0.62912   0.23167   0.00000  Uiso   1.00
H364   H     0.75458   0.37088   0.26833   0.00000  Uiso   1.00
C365   C     0.87759   0.35465   0.23982   0.00000  Uiso   1.00
C366   C     0.78908   0.64535   0.26018   0.00000  Uiso   1.00
H367   H     0.91210   0.37089   0.23157   0.00000  Uiso   1.00
H368   H     0.75457   0.62911   0.26843   0.00000  Uiso   1.00
C369   C     0.83333   0.37582   0.24995   0.00000  Uiso   1.00
C370   C     0.83333   0.62418   0.25005   0.00000  Uiso   1.00
C371   C     0.98866   0.47572   0.21931   0.00000  Uiso   1.00
C372   C     0.67801   0.52428   0.28069   0.00000  Uiso   1.00
H373   H     0.98063   0.45631   0.19475   0.00000  Uiso   1.00
H374   H     0.68604   0.54369   0.30525   0.00000  Uiso   1.00
C375   C     0.70323   0.47570   0.21934   0.00000  Uiso   1.00
C376   C     0.96344   0.52430   0.28065   0.00000  Uiso   1.00
H377   H     0.73141   0.45622   0.19482   0.00000  Uiso   1.00
H378   H     0.93525   0.54379   0.30518   0.00000  Uiso   1.00
N379   N     0.71426   0.50001   0.25001   0.00000  Uiso   1.00
N380   N     0.95241   0.49999   0.24999   0.00000  Uiso   1.00
C381   C     0.69854   0.45397   0.05997   0.00000  Uiso   1.00
N382   N     0.99463   0.43932   0.08346   0.00000  Uiso   1.00
C383   C     0.96805   0.54650   0.44015   0.00000  Uiso   1.00
N384   N     0.67198   0.56115   0.41668   0.00000  Uiso   1.00
O385   O     0.12846   0.89442   0.25000   0.00000  Uiso   1.00
O386   O     0.20488   0.77225   0.24999   0.00000  Uiso   1.00
O387   O     0.20490   0.89441   0.25000   0.00000  Uiso   1.00
O388   O     0.12843   0.77226   0.25000   0.00000  Uiso   1.00
C389   C     0.16667   0.91336   0.25003   0.00000  Uiso   1.00
C390   C     0.16666   0.75331   0.24997   0.00000  Uiso   1.00
O391   O     0.10661   0.83334   0.31612   0.00000  Uiso   1.00
O392   O     0.22672   0.83333   0.18388   0.00000  Uiso   1.00
O393   O     0.18305   0.83333   0.31612   0.00000  Uiso   1.00
O394   O     0.15028   0.83334   0.18388   0.00000  Uiso   1.00
C395   C     0.13577   0.83346   0.33803   0.00000  Uiso   1.00
C396   C     0.19756   0.83322   0.16197   0.00000  Uiso   1.00
Zn397  Zn    0.11562   0.83334   0.25000   0.00000  Uiso   1.00
Zn398  Zn    0.21771   0.83333   0.25000   0.00000  Uiso   1.00
C399   C     0.11601   0.83142   0.38876   0.00000  Uiso   1.00
C400   C     0.21733   0.83537   0.11125   0.00000  Uiso   1.00
C401   C     0.05747   0.80567   0.46203   0.00000  Uiso   1.00
C402   C     0.27579   0.86137   0.03807   0.00000  Uiso   1.00
C403   C     0.07081   0.81292   0.41456   0.00000  Uiso   1.00
C404   C     0.26246   0.85400   0.08551   0.00000  Uiso   1.00
C405   C     0.14655   0.84409   0.41063   0.00000  Uiso   1.00
C406   C     0.18681   0.82275   0.08934   0.00000  Uiso   1.00
C407   C     0.13695   0.83295   0.45677   0.00000  Uiso   1.00
C408   C     0.19634   0.83406   0.04326   0.00000  Uiso   1.00
C409   C     0.09060   0.81459   0.48347   0.00000  Uiso   1.00
C410   C     0.24267   0.85247   0.01661   0.00000  Uiso   1.00
C411   C     0.17273   0.83879   0.47634   0.00000  Uiso   1.00
C412   C     0.16055   0.82829   0.02372   0.00000  Uiso   1.00
C413   C     0.11256   0.81330   0.05046   0.00000  Uiso   1.00
C414   C     0.22069   0.85386   0.44962   0.00000  Uiso   1.00
C415   C     0.07864   0.80543   0.03067   0.00000  Uiso   1.00
C416   C     0.25461   0.86171   0.46943   0.00000  Uiso   1.00
H417   H     0.15495   0.80495   0.11004   0.00000  Uiso   1.00
H418   H     0.17848   0.86176   0.38985   0.00000  Uiso   1.00
H419   H     0.28677   0.86366   0.10218   0.00000  Uiso   1.00
H420   H     0.04648   0.80326   0.39793   0.00000  Uiso   1.00
H421   H     0.02199   0.79160   0.48127   0.00000  Uiso   1.00
H422   H     0.31122   0.87552   0.01887   0.00000  Uiso   1.00
H423   H     0.09967   0.80741   0.08737   0.00000  Uiso   1.00
H424   H     0.23358   0.85985   0.41273   0.00000  Uiso   1.00
C425   C     0.21092   0.97869   0.23988   0.00000  Uiso   1.00
C426   C     0.12241   0.68798   0.26012   0.00000  Uiso   1.00
H427   H     0.24542   0.96245   0.23167   0.00000  Uiso   1.00
H428   H     0.08791   0.70422   0.26833   0.00000  Uiso   1.00
C429   C     0.21092   0.68798   0.23982   0.00000  Uiso   1.00
C430   C     0.12241   0.97869   0.26018   0.00000  Uiso   1.00
H431   H     0.24543   0.70423   0.23157   0.00000  Uiso   1.00
H432   H     0.08790   0.96244   0.26843   0.00000  Uiso   1.00
C433   C     0.16667   0.70915   0.24995   0.00000  Uiso   1.00
C434   C     0.16667   0.95751   0.25005   0.00000  Uiso   1.00
C435   C     0.32199   0.80905   0.21931   0.00000  Uiso   1.00
C436   C     0.01134   0.85762   0.28069   0.00000  Uiso   1.00
H437   H     0.31396   0.78964   0.19475   0.00000  Uiso   1.00
H438   H     0.01937   0.87703   0.30525   0.00000  Uiso   1.00
C439   C     0.03656   0.80903   0.21934   0.00000  Uiso   1.00
C440   C     0.29677   0.85764   0.28065   0.00000  Uiso   1.00
H441   H     0.06475   0.78955   0.19482   0.00000  Uiso   1.00
H442   H     0.26859   0.87712   0.30518   0.00000  Uiso   1.00
N443   N     0.04759   0.83334   0.25001   0.00000  Uiso   1.00
N444   N     0.28574   0.83332   0.24999   0.00000  Uiso   1.00
C445   C     0.03188   0.78731   0.05997   0.00000  Uiso   1.00
N446   N     0.32796   0.77266   0.08346   0.00000  Uiso   1.00
C447   C     0.30138   0.87984   0.44015   0.00000  Uiso   1.00
N448   N     0.00531   0.89448   0.41668   0.00000  Uiso   1.00
O449   O     0.46179   0.89442   0.25000   0.00000  Uiso   1.00
O450   O     0.53821   0.77225   0.24999   0.00000  Uiso   1.00
O451   O     0.53823   0.89441   0.25000   0.00000  Uiso   1.00
O452   O     0.46177   0.77226   0.25000   0.00000  Uiso   1.00
C453   C     0.50001   0.91336   0.25003   0.00000  Uiso   1.00
C454   C     0.49999   0.75331   0.24997   0.00000  Uiso   1.00
O455   O     0.43994   0.83334   0.31612   0.00000  Uiso   1.00
O456   O     0.56006   0.83333   0.18388   0.00000  Uiso   1.00
O457   O     0.51639   0.83333   0.31612   0.00000  Uiso   1.00
O458   O     0.48361   0.83334   0.18388   0.00000  Uiso   1.00
C459   C     0.46910   0.83346   0.33803   0.00000  Uiso   1.00
C460   C     0.53090   0.83322   0.16197   0.00000  Uiso   1.00
Zn461  Zn    0.44896   0.83334   0.25000   0.00000  Uiso   1.00
Zn462  Zn    0.55104   0.83333   0.25000   0.00000  Uiso   1.00
C463   C     0.44934   0.83142   0.38876   0.00000  Uiso   1.00
C464   C     0.55066   0.83537   0.11125   0.00000  Uiso   1.00
C465   C     0.39080   0.80567   0.46203   0.00000  Uiso   1.00
C466   C     0.60912   0.86137   0.03807   0.00000  Uiso   1.00
C467   C     0.40414   0.81292   0.41456   0.00000  Uiso   1.00
C468   C     0.59580   0.85400   0.08551   0.00000  Uiso   1.00
C469   C     0.47988   0.84409   0.41063   0.00000  Uiso   1.00
C470   C     0.52015   0.82275   0.08934   0.00000  Uiso   1.00
C471   C     0.47029   0.83295   0.45677   0.00000  Uiso   1.00
C472   C     0.52968   0.83406   0.04326   0.00000  Uiso   1.00
C473   C     0.42393   0.81459   0.48347   0.00000  Uiso   1.00
C474   C     0.57600   0.85247   0.01661   0.00000  Uiso   1.00
C475   C     0.50606   0.83879   0.47634   0.00000  Uiso   1.00
C476   C     0.49389   0.82829   0.02372   0.00000  Uiso   1.00
C477   C     0.44590   0.81330   0.05046   0.00000  Uiso   1.00
C478   C     0.55403   0.85386   0.44962   0.00000  Uiso   1.00
C479   C     0.41198   0.80543   0.03067   0.00000  Uiso   1.00
C480   C     0.58794   0.86171   0.46943   0.00000  Uiso   1.00
H481   H     0.48828   0.80495   0.11004   0.00000  Uiso   1.00
H482   H     0.51182   0.86176   0.38985   0.00000  Uiso   1.00
H483   H     0.62010   0.86366   0.10218   0.00000  Uiso   1.00
H484   H     0.37981   0.80326   0.39793   0.00000  Uiso   1.00
H485   H     0.35532   0.79160   0.48127   0.00000  Uiso   1.00
H486   H     0.64456   0.87552   0.01887   0.00000  Uiso   1.00
H487   H     0.43300   0.80741   0.08737   0.00000  Uiso   1.00
H488   H     0.56691   0.85985   0.41273   0.00000  Uiso   1.00
C489   C     0.54425   0.97869   0.23988   0.00000  Uiso   1.00
C490   C     0.45575   0.68798   0.26012   0.00000  Uiso   1.00
H491   H     0.57875   0.96245   0.23167   0.00000  Uiso   1.00
H492   H     0.42125   0.70422   0.26833   0.00000  Uiso   1.00
C493   C     0.54426   0.68798   0.23982   0.00000  Uiso   1.00
C494   C     0.45574   0.97869   0.26018   0.00000  Uiso   1.00
H495   H     0.57876   0.70423   0.23157   0.00000  Uiso   1.00
H496   H     0.42124   0.96244   0.26843   0.00000  Uiso   1.00
C497   C     0.50000   0.70915   0.24995   0.00000  Uiso   1.00
C498   C     0.50000   0.95751   0.25005   0.00000  Uiso   1.00
C499   C     0.65532   0.80905   0.21931   0.00000  Uiso   1.00
C500   C     0.34468   0.85762   0.28069   0.00000  Uiso   1.00
H501   H     0.64729   0.78964   0.19475   0.00000  Uiso   1.00
H502   H     0.35271   0.87703   0.30525   0.00000  Uiso   1.00
C503   C     0.36990   0.80903   0.21934   0.00000  Uiso   1.00
C504   C     0.63010   0.85764   0.28065   0.00000  Uiso   1.00
H505   H     0.39808   0.78955   0.19482   0.00000  Uiso   1.00
H506   H     0.60192   0.87712   0.30518   0.00000  Uiso   1.00
N507   N     0.38093   0.83334   0.25001   0.00000  Uiso   1.00
N508   N     0.61907   0.83332   0.24999   0.00000  Uiso   1.00
C509   C     0.36521   0.78731   0.05997   0.00000  Uiso   1.00
N510   N     0.66129   0.77266   0.08346   0.00000  Uiso   1.00
C511   C     0.63472   0.87984   0.44015   0.00000  Uiso   1.00
N512   N     0.33864   0.89448   0.41668   0.00000  Uiso   1.00
O513   O     0.79512   0.89442   0.25000   0.00000  Uiso   1.00
O514   O     0.87154   0.77225   0.24999   0.00000  Uiso   1.00
O515   O     0.87157   0.89441   0.25000   0.00000  Uiso   1.00
O516   O     0.79510   0.77226   0.25000   0.00000  Uiso   1.00
C517   C     0.83334   0.91336   0.25003   0.00000  Uiso   1.00
C518   C     0.83333   0.75331   0.24997   0.00000  Uiso   1.00
O519   O     0.77328   0.83334   0.31612   0.00000  Uiso   1.00
O520   O     0.89339   0.83333   0.18388   0.00000  Uiso   1.00
O521   O     0.84972   0.83333   0.31612   0.00000  Uiso   1.00
O522   O     0.81695   0.83334   0.18388   0.00000  Uiso   1.00
C523   C     0.80244   0.83346   0.33803   0.00000  Uiso   1.00
C524   C     0.86423   0.83322   0.16197   0.00000  Uiso   1.00
Zn525  Zn    0.78229   0.83334   0.25000   0.00000  Uiso   1.00
Zn526  Zn    0.88438   0.83333   0.25000   0.00000  Uiso   1.00
C527   C     0.78267   0.83142   0.38876   0.00000  Uiso   1.00
C528   C     0.88399   0.83537   0.11125   0.00000  Uiso   1.00
C529   C     0.72413   0.80567   0.46203   0.00000  Uiso   1.00
C530   C     0.94245   0.86137   0.03807   0.00000  Uiso   1.00
C531   C     0.73748   0.81292   0.41456   0.00000  Uiso   1.00
C532   C     0.92913   0.85400   0.08551   0.00000  Uiso   1.00
C533   C     0.81321   0.84409   0.41063   0.00000  Uiso   1.00
C534   C     0.85348   0.82275   0.08934   0.00000  Uiso   1.00
C535   C     0.80362   0.83295   0.45677   0.00000  Uiso   1.00
C536   C     0.86301   0.83406   0.04326   0.00000  Uiso   1.00
C537   C     0.75726   0.81459   0.48347   0.00000  Uiso   1.00
C538   C     0.90934   0.85247   0.01661   0.00000  Uiso   1.00
C539   C     0.83939   0.83879   0.47634   0.00000  Uiso   1.00
C540   C     0.82722   0.82829   0.02372   0.00000  Uiso   1.00
C541   C     0.77923   0.81330   0.05046   0.00000  Uiso   1.00
C542   C     0.88736   0.85386   0.44962   0.00000  Uiso   1.00
C543   C     0.74531   0.80543   0.03067   0.00000  Uiso   1.00
C544   C     0.92128   0.86171   0.46943   0.00000  Uiso   1.00
H545   H     0.82161   0.80495   0.11004   0.00000  Uiso   1.00
H546   H     0.84515   0.86176   0.38985   0.00000  Uiso   1.00
H547   H     0.95343   0.86366   0.10218   0.00000  Uiso   1.00
H548   H     0.71314   0.80326   0.39793   0.00000  Uiso   1.00
H549   H     0.68866   0.79160   0.48127   0.00000  Uiso   1.00
H550   H     0.97789   0.87552   0.01887   0.00000  Uiso   1.00
H551   H     0.76634   0.80741   0.08737   0.00000  Uiso   1.00
H552   H     0.90024   0.85985   0.41273   0.00000  Uiso   1.00
C553   C     0.87759   0.97869   0.23988   0.00000  Uiso   1.00
C554   C     0.78908   0.68798   0.26012   0.00000  Uiso   1.00
H555   H     0.91209   0.96245   0.23167   0.00000  Uiso   1.00
H556   H     0.75458   0.70422   0.26833   0.00000  Uiso   1.00
C557   C     0.87759   0.68798   0.23982   0.00000  Uiso   1.00
C558   C     0.78908   0.97869   0.26018   0.00000  Uiso   1.00
H559   H     0.91210   0.70423   0.23157   0.00000  Uiso   1.00
H560   H     0.75457   0.96244   0.26843   0.00000  Uiso   1.00
C561   C     0.83333   0.70915   0.24995   0.00000  Uiso   1.00
C562   C     0.83333   0.95751   0.25005   0.00000  Uiso   1.00
C563   C     0.98866   0.80905   0.21931   0.00000  Uiso   1.00
C564   C     0.67801   0.85762   0.28069   0.00000  Uiso   1.00
H565   H     0.98063   0.78964   0.19475   0.00000  Uiso   1.00
H566   H     0.68604   0.87703   0.30525   0.00000  Uiso   1.00
C567   C     0.70323   0.80903   0.21934   0.00000  Uiso   1.00
C568   C     0.96344   0.85764   0.28065   0.00000  Uiso   1.00
H569   H     0.73141   0.78955   0.19482   0.00000  Uiso   1.00
H570   H     0.93525   0.87712   0.30518   0.00000  Uiso   1.00
N571   N     0.71426   0.83334   0.25001   0.00000  Uiso   1.00
N572   N     0.95241   0.83332   0.24999   0.00000  Uiso   1.00
C573   C     0.69854   0.78731   0.05997   0.00000  Uiso   1.00
N574   N     0.99463   0.77266   0.08346   0.00000  Uiso   1.00
C575   C     0.96805   0.87984   0.44015   0.00000  Uiso   1.00
N576   N     0.67198   0.89448   0.41668   0.00000  Uiso   1.00
O577   O     0.12846   0.22775   0.75000   0.00000  Uiso   1.00
O578   O     0.20488   0.10558   0.74999   0.00000  Uiso   1.00
O579   O     0.20490   0.22774   0.75000   0.00000  Uiso   1.00
O580   O     0.12843   0.10559   0.75000   0.00000  Uiso   1.00
C581   C     0.16667   0.24669   0.75003   0.00000  Uiso   1.00
C582   C     0.16666   0.08664   0.74997   0.00000  Uiso   1.00
O583   O     0.10661   0.16667   0.81612   0.00000  Uiso   1.00
O584   O     0.22672   0.16666   0.68388   0.00000  Uiso   1.00
O585   O     0.18305   0.16666   0.81612   0.00000  Uiso   1.00
O586   O     0.15028   0.16667   0.68388   0.00000  Uiso   1.00
C587   C     0.13577   0.16679   0.83803   0.00000  Uiso   1.00
C588   C     0.19756   0.16655   0.66197   0.00000  Uiso   1.00
Zn589  Zn    0.11562   0.16667   0.75000   0.00000  Uiso   1.00
Zn590  Zn    0.21771   0.16666   0.75000   0.00000  Uiso   1.00
C591   C     0.11601   0.16476   0.88876   0.00000  Uiso   1.00
C592   C     0.21733   0.16870   0.61125   0.00000  Uiso   1.00
C593   C     0.05747   0.13901   0.96203   0.00000  Uiso   1.00
C594   C     0.27579   0.19470   0.53807   0.00000  Uiso   1.00
C595   C     0.07081   0.14626   0.91456   0.00000  Uiso   1.00
C596   C     0.26246   0.18733   0.58551   0.00000  Uiso   1.00
C597   C     0.14655   0.17742   0.91063   0.00000  Uiso   1.00
C598   C     0.18681   0.15608   0.58934   0.00000  Uiso   1.00
C599   C     0.13695   0.16628   0.95677   0.00000  Uiso   1.00
C600   C     0.19634   0.16739   0.54326   0.00000  Uiso   1.00
C601   C     0.09060   0.14792   0.98347   0.00000  Uiso   1.00
C602   C     0.24267   0.18581   0.51661   0.00000  Uiso   1.00
C603   C     0.17273   0.17212   0.97634   0.00000  Uiso   1.00
C604   C     0.16055   0.16163   0.52372   0.00000  Uiso   1.00
C605   C     0.11256   0.14663   0.55046   0.00000  Uiso   1.00
C606   C     0.22069   0.18719   0.94962   0.00000  Uiso   1.00
C607   C     0.07864   0.13877   0.53067   0.00000  Uiso   1.00
C608   C     0.25461   0.19504   0.96943   0.00000  Uiso   1.00
H609   H     0.15495   0.13829   0.61004   0.00000  Uiso   1.00
H610   H     0.17848   0.19509   0.88985   0.00000  Uiso   1.00
H611   H     0.28677   0.19699   0.60218   0.00000  Uiso   1.00
H612   H     0.04648   0.13659   0.89793   0.00000  Uiso   1.00
H613   H     0.02199   0.12493   0.98127   0.00000  Uiso   1.00
H614   H     0.31122   0.20885   0.51887   0.00000  Uiso   1.00
H615   H     0.09967   0.14074   0.58737   0.00000  Uiso   1.00
H616   H     0.23358   0.19318   0.91273   0.00000  Uiso   1.00
C617   C     0.21092   0.31202   0.73988   0.00000  Uiso   1.00
C618   C     0.12241   0.02131   0.76012   0.00000  Uiso   1.00
H619   H     0.24542   0.29578   0.73167   0.00000  Uiso   1.00
H620   H     0.08791   0.03755   0.76833   0.00000  Uiso   1.00
C621   C     0.21092   0.02131   0.73982   0.00000  Uiso   1.00
C622   C     0.12241   0.31202   0.76018   0.00000  Uiso   1.00
H623   H     0.24543   0.03756   0.73157   0.00000  Uiso   1.00
H624   H     0.08790   0.29577   0.76843   0.00000  Uiso   1.00
C625   C     0.16667   0.04249   0.74995   0.00000  Uiso   1.00
C626   C     0.16667   0.29085   0.75005   0.00000  Uiso   1.00
C627   C     0.32199   0.14238   0.71931   0.00000  Uiso   1.00
C628   C     0.01134   0.19095   0.78069   0.00000  Uiso   1.00
H629   H     0.31396   0.12298   0.69475   0.00000  Uiso   1.00
H630   H     0.01937   0.21036   0.80525   0.00000  Uiso   1.00
C631   C     0.03656   0.14236   0.71934   0.00000  Uiso   1.00
C632   C     0.29677   0.19097   0.78065   0.00000  Uiso   1.00
H633   H     0.06475   0.12288   0.69482   0.00000  Uiso   1.00
H634   H     0.26859   0.21045   0.80518   0.00000  Uiso   1.00
N635   N     0.04759   0.16668   0.75001   0.00000  Uiso   1.00
N636   N     0.28574   0.16666   0.74999   0.00000  Uiso   1.00
C637   C     0.03188   0.12064   0.55997   0.00000  Uiso   1.00
N638   N     0.32796   0.10599   0.58346   0.00000  Uiso   1.00
C639   C     0.30138   0.21317   0.94015   0.00000  Uiso   1.00
N640   N     0.00531   0.22781   0.91668   0.00000  Uiso   1.00
O641   O     0.46179   0.22775   0.75000   0.00000  Uiso   1.00
O642   O     0.53821   0.10558   0.74999   0.00000  Uiso   1.00
O643   O     0.53823   0.22774   0.75000   0.00000  Uiso   1.00
O644   O     0.46177   0.10559   0.75000   0.00000  Uiso   1.00
C645   C     0.50001   0.24669   0.75003   0.00000  Uiso   1.00
C646   C     0.49999   0.08664   0.74997   0.00000  Uiso   1.00
O647   O     0.43994   0.16667   0.81612   0.00000  Uiso   1.00
O648   O     0.56006   0.16666   0.68388   0.00000  Uiso   1.00
O649   O     0.51639   0.16666   0.81612   0.00000  Uiso   1.00
O650   O     0.48361   0.16667   0.68388   0.00000  Uiso   1.00
C651   C     0.46910   0.16679   0.83803   0.00000  Uiso   1.00
C652   C     0.53090   0.16655   0.66197   0.00000  Uiso   1.00
Zn653  Zn    0.44896   0.16667   0.75000   0.00000  Uiso   1.00
Zn654  Zn    0.55104   0.16666   0.75000   0.00000  Uiso   1.00
C655   C     0.44934   0.16476   0.88876   0.00000  Uiso   1.00
C656   C     0.55066   0.16870   0.61125   0.00000  Uiso   1.00
C657   C     0.39080   0.13901   0.96203   0.00000  Uiso   1.00
C658   C     0.60912   0.19470   0.53807   0.00000  Uiso   1.00
C659   C     0.40414   0.14626   0.91456   0.00000  Uiso   1.00
C660   C     0.59580   0.18733   0.58551   0.00000  Uiso   1.00
C661   C     0.47988   0.17742   0.91063   0.00000  Uiso   1.00
C662   C     0.52015   0.15608   0.58934   0.00000  Uiso   1.00
C663   C     0.47029   0.16628   0.95677   0.00000  Uiso   1.00
C664   C     0.52968   0.16739   0.54326   0.00000  Uiso   1.00
C665   C     0.42393   0.14792   0.98347   0.00000  Uiso   1.00
C666   C     0.57600   0.18581   0.51661   0.00000  Uiso   1.00
C667   C     0.50606   0.17212   0.97634   0.00000  Uiso   1.00
C668   C     0.49389   0.16163   0.52372   0.00000  Uiso   1.00
C669   C     0.44590   0.14663   0.55046   0.00000  Uiso   1.00
C670   C     0.55403   0.18719   0.94962   0.00000  Uiso   1.00
C671   C     0.41198   0.13877   0.53067   0.00000  Uiso   1.00
C672   C     0.58794   0.19504   0.96943   0.00000  Uiso   1.00
H673   H     0.48828   0.13829   0.61004   0.00000  Uiso   1.00
H674   H     0.51182   0.19509   0.88985   0.00000  Uiso   1.00
H675   H     0.62010   0.19699   0.60218   0.00000  Uiso   1.00
H676   H     0.37981   0.13659   0.89793   0.00000  Uiso   1.00
H677   H     0.35532   0.12493   0.98127   0.00000  Uiso   1.00
H678   H     0.64456   0.20885   0.51887   0.00000  Uiso   1.00
H679   H     0.43300   0.14074   0.58737   0.00000  Uiso   1.00
H680   H     0.56691   0.19318   0.91273   0.00000  Uiso   1.00
C681   C     0.54425   0.31202   0.73988   0.00000  Uiso   1.00
C682   C     0.45575   0.02131   0.76012   0.00000  Uiso   1.00
H683   H     0.57875   0.29578   0.73167   0.00000  Uiso   1.00
H684   H     0.42125   0.03755   0.76833   0.00000  Uiso   1.00
C685   C     0.54426   0.02131   0.73982   0.00000  Uiso   1.00
C686   C     0.45574   0.31202   0.76018   0.00000  Uiso   1.00
H687   H     0.57876   0.03756   0.73157   0.00000  Uiso   1.00
H688   H     0.42124   0.29577   0.76843   0.00000  Uiso   1.00
C689   C     0.50000   0.04249   0.74995   0.00000  Uiso   1.00
C690   C     0.50000   0.29085   0.75005   0.00000  Uiso   1.00
C691   C     0.65532   0.14238   0.71931   0.00000  Uiso   1.00
C692   C     0.34468   0.19095   0.78069   0.00000  Uiso   1.00
H693   H     0.64729   0.12298   0.69475   0.00000  Uiso   1.00
H694   H     0.35271   0.21036   0.80525   0.00000  Uiso   1.00
C695   C     0.36990   0.14236   0.71934   0.00000  Uiso   1.00
C696   C     0.63010   0.19097   0.78065   0.00000  Uiso   1.00
H697   H     0.39808   0.12288   0.69482   0.00000  Uiso   1.00
H698   H     0.60192   0.21045   0.80518   0.00000  Uiso   1.00
N699   N     0.38093   0.16668   0.75001   0.00000  Uiso   1.00
N700   N     0.61907   0.16666   0.74999   0.00000  Uiso   1.00
C701   C     0.36521   0.12064   0.55997   0.00000  Uiso   1.00
N702   N     0.66129   0.10599   0.58346   0.00000  Uiso   1.00
C703   C     0.63472   0.21317   0.94015   0.00000  Uiso   1.00
N704   N     0.33864   0.22781   0.91668   0.00000  Uiso   1.00
O705   O     0.79512   0.22775   0.75000   0.00000  Uiso   1.00
O706   O     0.87154   0.10558   0.74999   0.00000  Uiso   1.00
O707   O     0.87157   0.22774   0.75000   0.00000  Uiso   1.00
O708   O     0.79510   0.10559   0.75000   0.00000  Uiso   1.00
C709   C     0.83334   0.24669   0.75003   0.00000  Uiso   1.00
C710   C     0.83333   0.08664   0.74997   0.00000  Uiso   1.00
O711   O     0.77328   0.16667   0.81612   0.00000  Uiso   1.00
O712   O     0.89339   0.16666   0.68388   0.00000  Uiso   1.00
O713   O     0.84972   0.16666   0.81612   0.00000  Uiso   1.00
O714   O     0.81695   0.16667   0.68388   0.00000  Uiso   1.00
C715   C     0.80244   0.16679   0.83803   0.00000  Uiso   1.00
C716   C     0.86423   0.16655   0.66197   0.00000  Uiso   1.00
Zn717  Zn    0.78229   0.16667   0.75000   0.00000  Uiso   1.00
Zn718  Zn    0.88438   0.16666   0.75000   0.00000  Uiso   1.00
C719   C     0.78267   0.16476   0.88876   0.00000  Uiso   1.00
C720   C     0.88399   0.16870   0.61125   0.00000  Uiso   1.00
C721   C     0.72413   0.13901   0.96203   0.00000  Uiso   1.00
C722   C     0.94245   0.19470   0.53807   0.00000  Uiso   1.00
C723   C     0.73748   0.14626   0.91456   0.00000  Uiso   1.00
C724   C     0.92913   0.18733   0.58551   0.00000  Uiso   1.00
C725   C     0.81321   0.17742   0.91063   0.00000  Uiso   1.00
C726   C     0.85348   0.15608   0.58934   0.00000  Uiso   1.00
C727   C     0.80362   0.16628   0.95677   0.00000  Uiso   1.00
C728   C     0.86301   0.16739   0.54326   0.00000  Uiso   1.00
C729   C     0.75726   0.14792   0.98347   0.00000  Uiso   1.00
C730   C     0.90934   0.18581   0.51661   0.00000  Uiso   1.00
C731   C     0.83939   0.17212   0.97634   0.00000  Uiso   1.00
C732   C     0.82722   0.16163   0.52372   0.00000  Uiso   1.00
C733   C     0.77923   0.14663   0.55046   0.00000  Uiso   1.00
C734   C     0.88736   0.18719   0.94962   0.00000  Uiso   1.00
C735   C     0.74531   0.13877   0.53067   0.00000  Uiso   1.00
C736   C     0.92128   0.19504   0.96943   0.00000  Uiso   1.00
H737   H     0.82161   0.13829   0.61004   0.00000  Uiso   1.00
H738   H     0.84515   0.19509   0.88985   0.00000  Uiso   1.00
H739   H     0.95343   0.19699   0.60218   0.00000  Uiso   1.00
H740   H     0.71314   0.13659   0.89793   0.00000  Uiso   1.00
H741   H     0.68866   0.12493   0.98127   0.00000  Uiso   1.00
H742   H     0.97789   0.20885   0.51887   0.00000  Uiso   1.00
H743   H     0.76634   0.14074   0.58737   0.00000  Uiso   1.00
H744   H     0.90024   0.19318   0.91273   0.00000  Uiso   1.00
C745   C     0.87759   0.31202   0.73988   0.00000  Uiso   1.00
C746   C     0.78908   0.02131   0.76012   0.00000  Uiso   1.00
H747   H     0.91209   0.29578   0.73167   0.00000  Uiso   1.00
H748   H     0.75458   0.03755   0.76833   0.00000  Uiso   1.00
C749   C     0.87759   0.02131   0.73982   0.00000  Uiso   1.00
C750   C     0.78908   0.31202   0.76018   0.00000  Uiso   1.00
H751   H     0.91210   0.03756   0.73157   0.00000  Uiso   1.00
H752   H     0.75457   0.29577   0.76843   0.00000  Uiso   1.00
C753   C     0.83333   0.04249   0.74995   0.00000  Uiso   1.00
C754   C     0.83333   0.29085   0.75005   0.00000  Uiso   1.00
C755   C     0.98866   0.14238   0.71931   0.00000  Uiso   1.00
C756   C     0.67801   0.19095   0.78069   0.00000  Uiso   1.00
H757   H     0.98063   0.12298   0.69475   0.00000  Uiso   1.00
H758   H     0.68604   0.21036   0.80525   0.00000  Uiso   1.00
C759   C     0.70323   0.14236   0.71934   0.00000  Uiso   1.00
C760   C     0.96344   0.19097   0.78065   0.00000  Uiso   1.00
H761   H     0.73141   0.12288   0.69482   0.00000  Uiso   1.00
H762   H     0.93525   0.21045   0.80518   0.00000  Uiso   1.00
N763   N     0.71426   0.16668   0.75001   0.00000  Uiso   1.00
N764   N     0.95241   0.16666   0.74999   0.00000  Uiso   1.00
C765   C     0.69854   0.12064   0.55997   0.00000  Uiso   1.00
N766   N     0.99463   0.10599   0.58346   0.00000  Uiso   1.00
C767   C     0.96805   0.21317   0.94015   0.00000  Uiso   1.00
N768   N     0.67198   0.22781   0.91668   0.00000  Uiso   1.00
O769   O     0.12846   0.56108   0.75000   0.00000  Uiso   1.00
O770   O     0.20488   0.43892   0.74999   0.00000  Uiso   1.00
O771   O     0.20490   0.56107   0.75000   0.00000  Uiso   1.00
O772   O     0.12843   0.43893   0.75000   0.00000  Uiso   1.00
C773   C     0.16667   0.58003   0.75003   0.00000  Uiso   1.00
C774   C     0.16666   0.41997   0.74997   0.00000  Uiso   1.00
O775   O     0.10661   0.50001   0.81612   0.00000  Uiso   1.00
O776   O     0.22672   0.49999   0.68388   0.00000  Uiso   1.00
O777   O     0.18305   0.50000   0.81612   0.00000  Uiso   1.00
O778   O     0.15028   0.50000   0.68388   0.00000  Uiso   1.00
C779   C     0.13577   0.50013   0.83803   0.00000  Uiso   1.00
C780   C     0.19756   0.49989   0.66197   0.00000  Uiso   1.00
Zn781  Zn    0.11562   0.50001   0.75000   0.00000  Uiso   1.00
Zn782  Zn    0.21771   0.49999   0.75000   0.00000  Uiso   1.00
C783   C     0.11601   0.49809   0.88876   0.00000  Uiso   1.00
C784   C     0.21733   0.50204   0.61125   0.00000  Uiso   1.00
C785   C     0.05747   0.47234   0.96203   0.00000  Uiso   1.00
C786   C     0.27579   0.52803   0.53807   0.00000  Uiso   1.00
C787   C     0.07081   0.47959   0.91456   0.00000  Uiso   1.00
C788   C     0.26246   0.52066   0.58551   0.00000  Uiso   1.00
C789   C     0.14655   0.51075   0.91063   0.00000  Uiso   1.00
C790   C     0.18681   0.48941   0.58934   0.00000  Uiso   1.00
C791   C     0.13695   0.49961   0.95677   0.00000  Uiso   1.00
C792   C     0.19634   0.50073   0.54326   0.00000  Uiso   1.00
C793   C     0.09060   0.48126   0.98347   0.00000  Uiso   1.00
C794   C     0.24267   0.51914   0.51661   0.00000  Uiso   1.00
C795   C     0.17273   0.50545   0.97634   0.00000  Uiso   1.00
C796   C     0.16055   0.49496   0.52372   0.00000  Uiso   1.00
C797   C     0.11256   0.47996   0.55046   0.00000  Uiso   1.00
C798   C     0.22069   0.52052   0.94962   0.00000  Uiso   1.00
C799   C     0.07864   0.47210   0.53067   0.00000  Uiso   1.00
C800   C     0.25461   0.52837   0.96943   0.00000  Uiso   1.00
H801   H     0.15495   0.47162   0.61004   0.00000  Uiso   1.00
H802   H     0.17848   0.52842   0.88985   0.00000  Uiso   1.00
H803   H     0.28677   0.53032   0.60218   0.00000  Uiso   1.00
H804   H     0.04648   0.46992   0.89793   0.00000  Uiso   1.00
H805   H     0.02199   0.45826   0.98127   0.00000  Uiso   1.00
H806   H     0.31122   0.54218   0.51887   0.00000  Uiso   1.00
H807   H     0.09967   0.47407   0.58737   0.00000  Uiso   1.00
H808   H     0.23358   0.52651   0.91273   0.00000  Uiso   1.00
C809   C     0.21092   0.64536   0.73988   0.00000  Uiso   1.00
C810   C     0.12241   0.35464   0.76012   0.00000  Uiso   1.00
H811   H     0.24542   0.62912   0.73167   0.00000  Uiso   1.00
H812   H     0.08791   0.37088   0.76833   0.00000  Uiso   1.00
C813   C     0.21092   0.35465   0.73982   0.00000  Uiso   1.00
C814   C     0.12241   0.64535   0.76018   0.00000  Uiso   1.00
H815   H     0.24543   0.37089   0.73157   0.00000  Uiso   1.00
H816   H     0.08790   0.62911   0.76843   0.00000  Uiso   1.00
C817   C     0.16667   0.37582   0.74995   0.00000  Uiso   1.00
C818   C     0.16667   0.62418   0.75005   0.00000  Uiso   1.00
C819   C     0.32199   0.47572   0.71931   0.00000  Uiso   1.00
C820   C     0.01134   0.52428   0.78069   0.00000  Uiso   1.00
H821   H     0.31396   0.45631   0.69475   0.00000  Uiso   1.00
H822   H     0.01937   0.54369   0.80525   0.00000  Uiso   1.00
C823   C     0.03656   0.47570   0.71934   0.00000  Uiso   1.00
C824   C     0.29677   0.52430   0.78065   0.00000  Uiso   1.00
H825   H     0.06475   0.45622   0.69482   0.00000  Uiso   1.00
H826   H     0.26859   0.54379   0.80518   0.00000  Uiso   1.00
N827   N     0.04759   0.50001   0.75001   0.00000  Uiso   1.00
N828   N     0.28574   0.49999   0.74999   0.00000  Uiso   1.00
C829   C     0.03188   0.45397   0.55997   0.00000  Uiso   1.00
N830   N     0.32796   0.43932   0.58346   0.00000  Uiso   1.00
C831   C     0.30138   0.54650   0.94015   0.00000  Uiso   1.00
N832   N     0.00531   0.56115   0.91668   0.00000  Uiso   1.00
O833   O     0.46179   0.56108   0.75000   0.00000  Uiso   1.00
O834   O     0.53821   0.43892   0.74999   0.00000  Uiso   1.00
O835   O     0.53823   0.56107   0.75000   0.00000  Uiso   1.00
O836   O     0.46177   0.43893   0.75000   0.00000  Uiso   1.00
C837   C     0.50001   0.58003   0.75003   0.00000  Uiso   1.00
C838   C     0.49999   0.41997   0.74997   0.00000  Uiso   1.00
O839   O     0.43994   0.50001   0.81612   0.00000  Uiso   1.00
O840   O     0.56006   0.49999   0.68388   0.00000  Uiso   1.00
O841   O     0.51639   0.50000   0.81612   0.00000  Uiso   1.00
O842   O     0.48361   0.50000   0.68388   0.00000  Uiso   1.00
C843   C     0.46910   0.50013   0.83803   0.00000  Uiso   1.00
C844   C     0.53090   0.49989   0.66197   0.00000  Uiso   1.00
Zn845  Zn    0.44896   0.50001   0.75000   0.00000  Uiso   1.00
Zn846  Zn    0.55104   0.49999   0.75000   0.00000  Uiso   1.00
C847   C     0.44934   0.49809   0.88876   0.00000  Uiso   1.00
C848   C     0.55066   0.50204   0.61125   0.00000  Uiso   1.00
C849   C     0.39080   0.47234   0.96203   0.00000  Uiso   1.00
C850   C     0.60912   0.52803   0.53807   0.00000  Uiso   1.00
C851   C     0.40414   0.47959   0.91456   0.00000  Uiso   1.00
C852   C     0.59580   0.52066   0.58551   0.00000  Uiso   1.00
C853   C     0.47988   0.51075   0.91063   0.00000  Uiso   1.00
C854   C     0.52015   0.48941   0.58934   0.00000  Uiso   1.00
C855   C     0.47029   0.49961   0.95677   0.00000  Uiso   1.00
C856   C     0.52968   0.50073   0.54326   0.00000  Uiso   1.00
C857   C     0.42393   0.48126   0.98347   0.00000  Uiso   1.00
C858   C     0.57600   0.51914   0.51661   0.00000  Uiso   1.00
C859   C     0.50606   0.50545   0.97634   0.00000  Uiso   1.00
C860   C     0.49389   0.49496   0.52372   0.00000  Uiso   1.00
C861   C     0.44590   0.47996   0.55046   0.00000  Uiso   1.00
C862   C     0.55403   0.52052   0.94962   0.00000  Uiso   1.00
C863   C     0.41198   0.47210   0.53067   0.00000  Uiso   1.00
C864   C     0.58794   0.52837   0.96943   0.00000  Uiso   1.00
H865   H     0.48828   0.47162   0.61004   0.00000  Uiso   1.00
H866   H     0.51182   0.52842   0.88985   0.00000  Uiso   1.00
H867   H     0.62010   0.53032   0.60218   0.00000  Uiso   1.00
H868   H     0.37981   0.46992   0.89793   0.00000  Uiso   1.00
H869   H     0.35532   0.45826   0.98127   0.00000  Uiso   1.00
H870   H     0.64456   0.54218   0.51887   0.00000  Uiso   1.00
H871   H     0.43300   0.47407   0.58737   0.00000  Uiso   1.00
H872   H     0.56691   0.52651   0.91273   0.00000  Uiso   1.00
C873   C     0.54425   0.64536   0.73988   0.00000  Uiso   1.00
C874   C     0.45575   0.35464   0.76012   0.00000  Uiso   1.00
H875   H     0.57875   0.62912   0.73167   0.00000  Uiso   1.00
H876   H     0.42125   0.37088   0.76833   0.00000  Uiso   1.00
C877   C     0.54426   0.35465   0.73982   0.00000  Uiso   1.00
C878   C     0.45574   0.64535   0.76018   0.00000  Uiso   1.00
H879   H     0.57876   0.37089   0.73157   0.00000  Uiso   1.00
H880   H     0.42124   0.62911   0.76843   0.00000  Uiso   1.00
C881   C     0.50000   0.37582   0.74995   0.00000  Uiso   1.00
C882   C     0.50000   0.62418   0.75005   0.00000  Uiso   1.00
C883   C     0.65532   0.47572   0.71931   0.00000  Uiso   1.00
C884   C     0.34468   0.52428   0.78069   0.00000  Uiso   1.00
H885   H     0.64729   0.45631   0.69475   0.00000  Uiso   1.00
H886   H     0.35271   0.54369   0.80525   0.00000  Uiso   1.00
C887   C     0.36990   0.47570   0.71934   0.00000  Uiso   1.00
C888   C     0.63010   0.52430   0.78065   0.00000  Uiso   1.00
H889   H     0.39808   0.45622   0.69482   0.00000  Uiso   1.00
H890   H     0.60192   0.54379   0.80518   0.00000  Uiso   1.00
N891   N     0.38093   0.50001   0.75001   0.00000  Uiso   1.00
N892   N     0.61907   0.49999   0.74999   0.00000  Uiso   1.00
C893   C     0.36521   0.45397   0.55997   0.00000  Uiso   1.00
N894   N     0.66129   0.43932   0.58346   0.00000  Uiso   1.00
C895   C     0.63472   0.54650   0.94015   0.00000  Uiso   1.00
N896   N     0.33864   0.56115   0.91668   0.00000  Uiso   1.00
O897   O     0.79512   0.56108   0.75000   0.00000  Uiso   1.00
O898   O     0.87154   0.43892   0.74999   0.00000  Uiso   1.00
O899   O     0.87157   0.56107   0.75000   0.00000  Uiso   1.00
O900   O     0.79510   0.43893   0.75000   0.00000  Uiso   1.00
C901   C     0.83334   0.58003   0.75003   0.00000  Uiso   1.00
C902   C     0.83333   0.41997   0.74997   0.00000  Uiso   1.00
O903   O     0.77328   0.50001   0.81612   0.00000  Uiso   1.00
O904   O     0.89339   0.49999   0.68388   0.00000  Uiso   1.00
O905   O     0.84972   0.50000   0.81612   0.00000  Uiso   1.00
O906   O     0.81695   0.50000   0.68388   0.00000  Uiso   1.00
C907   C     0.80244   0.50013   0.83803   0.00000  Uiso   1.00
C908   C     0.86423   0.49989   0.66197   0.00000  Uiso   1.00
Zn909  Zn    0.78229   0.50001   0.75000   0.00000  Uiso   1.00
Zn910  Zn    0.88438   0.49999   0.75000   0.00000  Uiso   1.00
C911   C     0.78267   0.49809   0.88876   0.00000  Uiso   1.00
C912   C     0.88399   0.50204   0.61125   0.00000  Uiso   1.00
C913   C     0.72413   0.47234   0.96203   0.00000  Uiso   1.00
C914   C     0.94245   0.52803   0.53807   0.00000  Uiso   1.00
C915   C     0.73748   0.47959   0.91456   0.00000  Uiso   1.00
C916   C     0.92913   0.52066   0.58551   0.00000  Uiso   1.00
C917   C     0.81321   0.51075   0.91063   0.00000  Uiso   1.00
C918   C     0.85348   0.48941   0.58934   0.00000  Uiso   1.00
C919   C     0.80362   0.49961   0.95677   0.00000  Uiso   1.00
C920   C     0.86301   0.50073   0.54326   0.00000  Uiso   1.00
C921   C     0.75726   0.48126   0.98347   0.00000  Uiso   1.00
C922   C     0.90934   0.51914   0.51661   0.00000  Uiso   1.00
C923   C     0.83939   0.50545   0.97634   0.00000  Uiso   1.00
C924   C     0.82722   0.49496   0.52372   0.00000  Uiso   1.00
C925   C     0.77923   0.47996   0.55046   0.00000  Uiso   1.00
C926   C     0.88736   0.52052   0.94962   0.00000  Uiso   1.00
C927   C     0.74531   0.47210   0.53067   0.00000  Uiso   1.00
C928   C     0.92128   0.52837   0.96943   0.00000  Uiso   1.00
H929   H     0.82161   0.47162   0.61004   0.00000  Uiso   1.00
H930   H     0.84515   0.52842   0.88985   0.00000  Uiso   1.00
H931   H     0.95343   0.53032   0.60218   0.00000  Uiso   1.00
H932   H     0.71314   0.46992   0.89793   0.00000  Uiso   1.00
H933   H     0.68866   0.45826   0.98127   0.00000  Uiso   1.00
H934   H     0.97789   0.54218   0.51887   0.00000  Uiso   1.00
H935   H     0.76634   0.47407   0.58737   0.00000  Uiso   1.00
H936   H     0.90024   0.52651   0.91273   0.00000  Uiso   1.00
C937   C     0.87759   0.64536   0.73988   0.00000  Uiso   1.00
C938   C     0.78908   0.35464   0.76012   0.00000  Uiso   1.00
H939   H     0.91209   0.62912   0.73167   0.00000  Uiso   1.00
H940   H     0.75458   0.37088   0.76833   0.00000  Uiso   1.00
C941   C     0.87759   0.35465   0.73982   0.00000  Uiso   1.00
C942   C     0.78908   0.64535   0.76018   0.00000  Uiso   1.00
H943   H     0.91210   0.37089   0.73157   0.00000  Uiso   1.00
H944   H     0.75457   0.62911   0.76843   0.00000  Uiso   1.00
C945   C     0.83333   0.37582   0.74995   0.00000  Uiso   1.00
C946   C     0.83333   0.62418   0.75005   0.00000  Uiso   1.00
C947   C     0.98866   0.47572   0.71931   0.00000  Uiso   1.00
C948   C     0.67801   0.52428   0.78069   0.00000  Uiso   1.00
H949   H     0.98063   0.45631   0.69475   0.00000  Uiso   1.00
H950   H     0.68604   0.54369   0.80525   0.00000  Uiso   1.00
C951   C     0.70323   0.47570   0.71934   0.00000  Uiso   1.00
C952   C     0.96344   0.52430   0.78065   0.00000  Uiso   1.00
H953   H     0.73141   0.45622   0.69482   0.00000  Uiso   1.00
H954   H     0.93525   0.54379   0.80518   0.00000  Uiso   1.00
N955   N     0.71426   0.50001   0.75001   0.00000  Uiso   1.00
N956   N     0.95241   0.49999   0.74999   0.00000  Uiso   1.00
C957   C     0.69854   0.45397   0.55997   0.00000  Uiso   1.00
N958   N     0.99463   0.43932   0.58346   0.00000  Uiso   1.00
C959   C     0.96805   0.54650   0.94015   0.00000  Uiso   1.00
N960   N     0.67198   0.56115   0.91668   0.00000  Uiso   1.00
O961   O     0.12846   0.89442   0.75000   0.00000  Uiso   1.00
O962   O     0.20488   0.77225   0.74999   0.00000  Uiso   1.00
O963   O     0.20490   0.89441   0.75000   0.00000  Uiso   1.00
O964   O     0.12843   0.77226   0.75000   0.00000  Uiso   1.00
C965   C     0.16667   0.91336   0.75003   0.00000  Uiso   1.00
C966   C     0.16666   0.75331   0.74997   0.00000  Uiso   1.00
O967   O     0.10661   0.83334   0.81612   0.00000  Uiso   1.00
O968   O     0.22672   0.83333   0.68388   0.00000  Uiso   1.00
O969   O     0.18305   0.83333   0.81612   0.00000  Uiso   1.00
O970   O     0.15028   0.83334   0.68388   0.00000  Uiso   1.00
C971   C     0.13577   0.83346   0.83803   0.00000  Uiso   1.00
C972   C     0.19756   0.83322   0.66197   0.00000  Uiso   1.00
Zn973  Zn    0.11562   0.83334   0.75000   0.00000  Uiso   1.00
Zn974  Zn    0.21771   0.83333   0.75000   0.00000  Uiso   1.00
C975   C     0.11601   0.83142   0.88876   0.00000  Uiso   1.00
C976   C     0.21733   0.83537   0.61125   0.00000  Uiso   1.00
C977   C     0.05747   0.80567   0.96203   0.00000  Uiso   1.00
C978   C     0.27579   0.86137   0.53807   0.00000  Uiso   1.00
C979   C     0.07081   0.81292   0.91456   0.00000  Uiso   1.00
C980   C     0.26246   0.85400   0.58551   0.00000  Uiso   1.00
C981   C     0.14655   0.84409   0.91063   0.00000  Uiso   1.00
C982   C     0.18681   0.82275   0.58934   0.00000  Uiso   1.00
C983   C     0.13695   0.83295   0.95677   0.00000  Uiso   1.00
C984   C     0.19634   0.83406   0.54326   0.00000  Uiso   1.00
C985   C     0.09060   0.81459   0.98347   0.00000  Uiso   1.00
C986   C     0.24267   0.85247   0.51661   0.00000  Uiso   1.00
C987   C     0.17273   0.83879   0.97634   0.00000  Uiso   1.00
C988   C     0.16055   0.82829   0.52372   0.00000  Uiso   1.00
C989   C     0.11256   0.81330   0.55046   0.00000  Uiso   1.00
C990   C     0.22069   0.85386   0.94962   0.00000  Uiso   1.00
C991   C     0.07864   0.80543   0.53067   0.00000  Uiso   1.00
C992   C     0.25461   0.86171   0.96943   0.00000  Uiso   1.00
H993   H     0.15495   0.80495   0.61004   0.00000  Uiso   1.00
H994   H     0.17848   0.86176   0.88985   0.00000  Uiso   1.00
H995   H     0.28677   0.86366   0.60218   0.00000  Uiso   1.00
H996   H     0.04648   0.80326   0.89793   0.00000  Uiso   1.00
H997   H     0.02199   0.79160   0.98127   0.00000  Uiso   1.00
H998   H     0.31122   0.87552   0.51887   0.00000  Uiso   1.00
H999   H     0.09967   0.80741   0.58737   0.00000  Uiso   1.00
H1000  H     0.23358   0.85985   0.91273   0.00000  Uiso   1.00
C1001  C     0.21092   0.97869   0.73988   0.00000  Uiso   1.00
C1002  C     0.12241   0.68798   0.76012   0.00000  Uiso   1.00
H1003  H     0.24542   0.96245   0.73167   0.00000  Uiso   1.00
H1004  H     0.08791   0.70422   0.76833   0.00000  Uiso   1.00
C1005  C     0.21092   0.68798   0.73982   0.00000  Uiso   1.00
C1006  C     0.12241   0.97869   0.76018   0.00000  Uiso   1.00
H1007  H     0.24543   0.70423   0.73157   0.00000  Uiso   1.00
H1008  H     0.08790   0.96244   0.76843   0.00000  Uiso   1.00
C1009  C     0.16667   0.70915   0.74995   0.00000  Uiso   1.00
C1010  C     0.16667   0.95751   0.75005   0.00000  Uiso   1.00
C1011  C     0.32199   0.80905   0.71931   0.00000  Uiso   1.00
C1012  C     0.01134   0.85762   0.78069   0.00000  Uiso   1.00
H1013  H     0.31396   0.78964   0.69475   0.00000  Uiso   1.00
H1014  H     0.01937   0.87703   0.80525   0.00000  Uiso   1.00
C1015  C     0.03656   0.80903   0.71934   0.00000  Uiso   1.00
C1016  C     0.29677   0.85764   0.78065   0.00000  Uiso   1.00
H1017  H     0.06475   0.78955   0.69482   0.00000  Uiso   1.00
H1018  H     0.26859   0.87712   0.80518   0.00000  Uiso   1.00
N1019  N     0.04759   0.83334   0.75001   0.00000  Uiso   1.00
N1020  N     0.28574   0.83332   0.74999   0.00000  Uiso   1.00
C1021  C     0.03188   0.78731   0.55997   0.00000  Uiso   1.00
N1022  N     0.32796   0.77266   0.58346   0.00000  Uiso   1.00
C1023  C     0.30138   0.87984   0.94015   0.00000  Uiso   1.00
N1024  N     0.00531   0.89448   0.91668   0.00000  Uiso   1.00
O1025  O     0.46179   0.89442   0.75000   0.00000  Uiso   1.00
O1026  O     0.53821   0.77225   0.74999   0.00000  Uiso   1.00
O1027  O     0.53823   0.89441   0.75000   0.00000  Uiso   1.00
O1028  O     0.46177   0.77226   0.75000   0.00000  Uiso   1.00
C1029  C     0.50001   0.91336   0.75003   0.00000  Uiso   1.00
C1030  C     0.49999   0.75331   0.74997   0.00000  Uiso   1.00
O1031  O     0.43994   0.83334   0.81612   0.00000  Uiso   1.00
O1032  O     0.56006   0.83333   0.68388   0.00000  Uiso   1.00
O1033  O     0.51639   0.83333   0.81612   0.00000  Uiso   1.00
O1034  O     0.48361   0.83334   0.68388   0.00000  Uiso   1.00
C1035  C     0.46910   0.83346   0.83803   0.00000  Uiso   1.00
C1036  C     0.53090   0.83322   0.66197   0.00000  Uiso   1.00
Zn1037 Zn    0.44896   0.83334   0.75000   0.00000  Uiso   1.00
Zn1038 Zn    0.55104   0.83333   0.75000   0.00000  Uiso   1.00
C1039  C     0.44934   0.83142   0.88876   0.00000  Uiso   1.00
C1040  C     0.55066   0.83537   0.61125   0.00000  Uiso   1.00
C1041  C     0.39080   0.80567   0.96203   0.00000  Uiso   1.00
C1042  C     0.60912   0.86137   0.53807   0.00000  Uiso   1.00
C1043  C     0.40414   0.81292   0.91456   0.00000  Uiso   1.00
C1044  C     0.59580   0.85400   0.58551   0.00000  Uiso   1.00
C1045  C     0.47988   0.84409   0.91063   0.00000  Uiso   1.00
C1046  C     0.52015   0.82275   0.58934   0.00000  Uiso   1.00
C1047  C     0.47029   0.83295   0.95677   0.00000  Uiso   1.00
C1048  C     0.52968   0.83406   0.54326   0.00000  Uiso   1.00
C1049  C     0.42393   0.81459   0.98347   0.00000  Uiso   1.00
C1050  C     0.57600   0.85247   0.51661   0.00000  Uiso   1.00
C1051  C     0.50606   0.83879   0.97634   0.00000  Uiso   1.00
C1052  C     0.49389   0.82829   0.52372   0.00000  Uiso   1.00
C1053  C     0.44590   0.81330   0.55046   0.00000  Uiso   1.00
C1054  C     0.55403   0.85386   0.94962   0.00000  Uiso   1.00
C1055  C     0.41198   0.80543   0.53067   0.00000  Uiso   1.00
C1056  C     0.58794   0.86171   0.96943   0.00000  Uiso   1.00
H1057  H     0.48828   0.80495   0.61004   0.00000  Uiso   1.00
H1058  H     0.51182   0.86176   0.88985   0.00000  Uiso   1.00
H1059  H     0.62010   0.86366   0.60218   0.00000  Uiso   1.00
H1060  H     0.37981   0.80326   0.89793   0.00000  Uiso   1.00
H1061  H     0.35532   0.79160   0.98127   0.00000  Uiso   1.00
H1062  H     0.64456   0.87552   0.51887   0.00000  Uiso   1.00
H1063  H     0.43300   0.80741   0.58737   0.00000  Uiso   1.00
H1064  H     0.56691   0.85985   0.91273   0.00000  Uiso   1.00
C1065  C     0.54425   0.97869   0.73988   0.00000  Uiso   1.00
C1066  C     0.45575   0.68798   0.76012   0.00000  Uiso   1.00
H1067  H     0.57875   0.96245   0.73167   0.00000  Uiso   1.00
H1068  H     0.42125   0.70422   0.76833   0.00000  Uiso   1.00
C1069  C     0.54426   0.68798   0.73982   0.00000  Uiso   1.00
C1070  C     0.45574   0.97869   0.76018   0.00000  Uiso   1.00
H1071  H     0.57876   0.70423   0.73157   0.00000  Uiso   1.00
H1072  H     0.42124   0.96244   0.76843   0.00000  Uiso   1.00
C1073  C     0.50000   0.70915   0.74995   0.00000  Uiso   1.00
C1074  C     0.50000   0.95751   0.75005   0.00000  Uiso   1.00
C1075  C     0.65532   0.80905   0.71931   0.00000  Uiso   1.00
C1076  C     0.34468   0.85762   0.78069   0.00000  Uiso   1.00
H1077  H     0.64729   0.78964   0.69475   0.00000  Uiso   1.00
H1078  H     0.35271   0.87703   0.80525   0.00000  Uiso   1.00
C1079  C     0.36990   0.80903   0.71934   0.00000  Uiso   1.00
C1080  C     0.63010   0.85764   0.78065   0.00000  Uiso   1.00
H1081  H     0.39808   0.78955   0.69482   0.00000  Uiso   1.00
H1082  H     0.60192   0.87712   0.80518   0.00000  Uiso   1.00
N1083  N     0.38093   0.83334   0.75001   0.00000  Uiso   1.00
N1084  N     0.61907   0.83332   0.74999   0.00000  Uiso   1.00
C1085  C     0.36521   0.78731   0.55997   0.00000  Uiso   1.00
N1086  N     0.66129   0.77266   0.58346   0.00000  Uiso   1.00
C1087  C     0.63472   0.87984   0.94015   0.00000  Uiso   1.00
N1088  N     0.33864   0.89448   0.91668   0.00000  Uiso   1.00
O1089  O     0.79512   0.89442   0.75000   0.00000  Uiso   1.00
O1090  O     0.87154   0.77225   0.74999   0.00000  Uiso   1.00
O1091  O     0.87157   0.89441   0.75000   0.00000  Uiso   1.00
O1092  O     0.79510   0.77226   0.75000   0.00000  Uiso   1.00
C1093  C     0.83334   0.91336   0.75003   0.00000  Uiso   1.00
C1094  C     0.83333   0.75331   0.74997   0.00000  Uiso   1.00
O1095  O     0.77328   0.83334   0.81612   0.00000  Uiso   1.00
O1096  O     0.89339   0.83333   0.68388   0.00000  Uiso   1.00
O1097  O     0.84972   0.83333   0.81612   0.00000  Uiso   1.00
O1098  O     0.81695   0.83334   0.68388   0.00000  Uiso   1.00
C1099  C     0.80244   0.83346   0.83803   0.00000  Uiso   1.00
C1100  C     0.86423   0.83322   0.66197   0.00000  Uiso   1.00
Zn1101 Zn    0.78229   0.83334   0.75000   0.00000  Uiso   1.00
Zn1102 Zn    0.88438   0.83333   0.75000   0.00000  Uiso   1.00
C1103  C     0.78267   0.83142   0.88876   0.00000  Uiso   1.00
C1104  C     0.88399   0.83537   0.61125   0.00000  Uiso   1.00
C1105  C     0.72413   0.80567   0.96203   0.00000  Uiso   1.00
C1106  C     0.94245   0.86137   0.53807   0.00000  Uiso   1.00
C1107  C     0.73748   0.81292   0.91456   0.00000  Uiso   1.00
C1108  C     0.92913   0.85400   0.58551   0.00000  Uiso   1.00
C1109  C     0.81321   0.84409   0.91063   0.00000  Uiso   1.00
C1110  C     0.85348   0.82275   0.58934   0.00000  Uiso   1.00
C1111  C     0.80362   0.83295   0.95677   0.00000  Uiso   1.00
C1112  C     0.86301   0.83406   0.54326   0.00000  Uiso   1.00
C1113  C     0.75726   0.81459   0.98347   0.00000  Uiso   1.00
C1114  C     0.90934   0.85247   0.51661   0.00000  Uiso   1.00
C1115  C     0.83939   0.83879   0.97634   0.00000  Uiso   1.00
C1116  C     0.82722   0.82829   0.52372   0.00000  Uiso   1.00
C1117  C     0.77923   0.81330   0.55046   0.00000  Uiso   1.00
C1118  C     0.88736   0.85386   0.94962   0.00000  Uiso   1.00
C1119  C     0.74531   0.80543   0.53067   0.00000  Uiso   1.00
C1120  C     0.92128   0.86171   0.96943   0.00000  Uiso   1.00
H1121  H     0.82161   0.80495   0.61004   0.00000  Uiso   1.00
H1122  H     0.84515   0.86176   0.88985   0.00000  Uiso   1.00
H1123  H     0.95343   0.86366   0.60218   0.00000  Uiso   1.00
H1124  H     0.71314   0.80326   0.89793   0.00000  Uiso   1.00
H1125  H     0.68866   0.79160   0.98127   0.00000  Uiso   1.00
H1126  H     0.97789   0.87552   0.51887   0.00000  Uiso   1.00
H1127  H     0.76634   0.80741   0.58737   0.00000  Uiso   1.00
H1128  H     0.90024   0.85985   0.91273   0.00000  Uiso   1.00
C1129  C     0.87759   0.97869   0.73988   0.00000  Uiso   1.00
C1130  C     0.78908   0.68798   0.76012   0.00000  Uiso   1.00
H1131  H     0.91209   0.96245   0.73167   0.00000  Uiso   1.00
H1132  H     0.75458   0.70422   0.76833   0.00000  Uiso   1.00
C1133  C     0.87759   0.68798   0.73982   0.00000  Uiso   1.00
C1134  C     0.78908   0.97869   0.76018   0.00000  Uiso   1.00
H1135  H     0.91210   0.70423   0.73157   0.00000  Uiso   1.00
H1136  H     0.75457   0.96244   0.76843   0.00000  Uiso   1.00
C1137  C     0.83333   0.70915   0.74995   0.00000  Uiso   1.00
C1138  C     0.83333   0.95751   0.75005   0.00000  Uiso   1.00
C1139  C     0.98866   0.80905   0.71931   0.00000  Uiso   1.00
C1140  C     0.67801   0.85762   0.78069   0.00000  Uiso   1.00
H1141  H     0.98063   0.78964   0.69475   0.00000  Uiso   1.00
H1142  H     0.68604   0.87703   0.80525   0.00000  Uiso   1.00
C1143  C     0.70323   0.80903   0.71934   0.00000  Uiso   1.00
C1144  C     0.96344   0.85764   0.78065   0.00000  Uiso   1.00
H1145  H     0.73141   0.78955   0.69482   0.00000  Uiso   1.00
H1146  H     0.93525   0.87712   0.80518   0.00000  Uiso   1.00
N1147  N     0.71426   0.83334   0.75001   0.00000  Uiso   1.00
N1148  N     0.95241   0.83332   0.74999   0.00000  Uiso   1.00
C1149  C     0.69854   0.78731   0.55997   0.00000  Uiso   1.00
N1150  N     0.99463   0.77266   0.58346   0.00000  Uiso   1.00
C1151  C     0.96805   0.87984   0.94015   0.00000  Uiso   1.00
N1152  N     0.67198   0.89448   0.91668   0.00000  Uiso   1.00
loop_
_geom_bond_atom_site_label_1
_geom_bond_atom_site_label_2
_geom_bond_distance
_geom_bond_site_symmetry_2
_ccdc_geom_bond_type
O1     C5      1.284   .     A
O1     Zn13    2.000   .     S
O2     C6      1.284   .     A
O2     Zn14    2.000   .     S
O3     Zn14    2.000   .     S
O3     C5      1.284   .     A
O4     C6      1.284   .     A
O4     Zn13    2.000   .     S
C5     C50     1.419   .     S
C6     C49     1.419   .     S
O7     Zn13    1.969   .     S
O7     C11     1.292   .     A
O8     C12     1.292   .     A
O8     Zn14    1.969   .     S
O9     Zn14    1.906   .     S
O9     C11     1.294   .     A
O10    C12     1.294   .     A
O10    Zn13    1.906   .     S
C11    C15     1.455   .     S
C12    C16     1.455   .     S
Zn13   N59     2.011   .     S
Zn14   N60     2.011   .     S
C15    C21     1.387   .     A
C15    C19     1.395   .     A
C16    C20     1.395   .     A
C16    C22     1.387   .     A
C17    C25     1.414   .     A
C17    H37     1.083   .     S
C17    C19     1.392   .     A
C18    C20     1.392   .     A
C18    C26     1.413   .     A
C18    H38     1.083   .     S
C19    H36     1.083   .     S
C20    H35     1.083   .     S
C21    C23     1.398   .     A
C21    H34     1.075   .     S
C22    C24     1.398   .     A
C22    H33     1.075   .     S
C23    C27     1.424   .     A
C23    C25     1.424   .     A
C24    C26     1.423   .     A
C24    C28     1.424   .     A
C25    C607    1.401   .     S
C26    C608    1.401   1_554 S
C27    C30     1.420   .     A
C27    C604    1.415   .     S
C28    C29     1.419   .     A
C28    C603    1.415   1_554 S
C29    H39     1.076   .     S
C29    C31     1.390   .     A
C30    C32     1.390   .     A
C30    H40     1.076   .     S
C31    C61     1.448   .     S
C31    C601    1.401   1_554 S
C32    C63     1.448   .     S
C32    C602    1.401   .     S
C41    C50     1.397   .     A
C41    H43     1.084   .     S
C41    C237    1.370   .     S
C42    H44     1.084   .     S
C42    C49     1.397   .     A
C42    C430    1.370   1_545 S
C45    C49     1.397   .     A
C45    H47     1.084   .     S
C45    C425    1.370   1_545 S
C46    C50     1.397   .     A
C46    H48     1.084   .     S
C46    C234    1.370   .     S
C51    N60     1.366   .     A
C51    H53     1.082   .     S
C51    C119    1.417   .     S
C52    N59     1.366   .     A
C52    H54     1.082   .     S
C52    C184    1.417   1_455 S
C55    N59     1.367   .     A
C55    H57     1.082   .     S
C55    C179    1.417   1_455 S
C56    N60     1.367   .     A
C56    H58     1.082   .     S
C56    C116    1.417   .     S
C61    N190    1.157   1_455 S
N62    C125    1.157   .     S
C63    N128    1.157   .     S
N64    C191    1.157   1_455 S
O65    C69     1.284   .     A
O65    Zn77    2.000   .     S
O66    C70     1.284   .     A
O66    Zn78    2.000   .     S
O67    Zn78    2.000   .     S
O67    C69     1.284   .     A
O68    C70     1.284   .     A
O68    Zn77    2.000   .     S
C69    C114    1.419   .     S
C70    C113    1.419   .     S
O71    Zn77    1.969   .     S
O71    C75     1.292   .     A
O72    C76     1.292   .     A
O72    Zn78    1.969   .     S
O73    Zn78    1.906   .     S
O73    C75     1.294   .     A
O74    C76     1.294   .     A
O74    Zn77    1.906   .     S
C75    C79     1.455   .     S
C76    C80     1.455   .     S
Zn77   N123    2.011   .     S
Zn78   N124    2.011   .     S
C79    C85     1.387   .     A
C79    C83     1.395   .     A
C80    C84     1.395   .     A
C80    C86     1.387   .     A
C81    C89     1.414   .     A
C81    H101    1.083   .     S
C81    C83     1.392   .     A
C82    C84     1.392   .     A
C82    C90     1.413   .     A
C82    H102    1.083   .     S
C83    H100    1.083   .     S
C84    H99     1.083   .     S
C85    C87     1.398   .     A
C85    H98     1.075   .     S
C86    C88     1.398   .     A
C86    H97     1.075   .     S
C87    C91     1.424   .     A
C87    C89     1.424   .     A
C88    C90     1.423   .     A
C88    C92     1.424   .     A
C89    C671    1.401   .     S
C90    C672    1.401   1_554 S
C91    C94     1.420   .     A
C91    C668    1.415   .     S
C92    C93     1.419   .     A
C92    C667    1.415   1_554 S
C93    H103    1.076   .     S
C93    C95     1.390   .     A
C94    C96     1.390   .     A
C94    H104    1.076   .     S
C95    C125    1.448   .     S
C95    C665    1.401   1_554 S
C96    C127    1.448   .     S
C96    C666    1.401   .     S
C105   C114    1.397   .     A
C105   H107    1.084   .     S
C105   C301    1.370   .     S
C106   H108    1.084   .     S
C106   C113    1.397   .     A
C106   C494    1.370   1_545 S
C109   C113    1.397   .     A
C109   H111    1.084   .     S
C109   C489    1.370   1_545 S
C110   C114    1.397   .     A
C110   H112    1.084   .     S
C110   C298    1.370   .     S
C115   N124    1.366   .     A
C115   H117    1.082   .     S
C115   C183    1.417   .     S
C116   N123    1.366   .     A
C116   H118    1.082   .     S
C119   N123    1.367   .     A
C119   H121    1.082   .     S
C120   N124    1.367   .     A
C120   H122    1.082   .     S
C120   C180    1.417   .     S
N126   C189    1.157   .     S
C127   N192    1.157   .     S
O129   C133    1.284   .     A
O129   Zn141   2.000   .     S
O130   C134    1.284   .     A
O130   Zn142   2.000   .     S
O131   Zn142   2.000   .     S
O131   C133    1.284   .     A
O132   C134    1.284   .     A
O132   Zn141   2.000   .     S
C133   C178    1.419   .     S
C134   C177    1.419   .     S
O135   Zn141   1.969   .     S
O135   C139    1.292   .     A
O136   C140    1.292   .     A
O136   Zn142   1.969   .     S
O137   Zn142   1.906   .     S
O137   C139    1.294   .     A
O138   C140    1.294   .     A
O138   Zn141   1.906   .     S
C139   C143    1.455   .     S
C140   C144    1.455   .     S
Zn141  N187    2.011   .     S
Zn142  N188    2.011   .     S
C143   C149    1.387   .     A
C143   C147    1.395   .     A
C144   C148    1.395   .     A
C144   C150    1.387   .     A
C145   C153    1.414   .     A
C145   H165    1.083   .     S
C145   C147    1.392   .     A
C146   C148    1.392   .     A
C146   C154    1.413   .     A
C146   H166    1.083   .     S
C147   H164    1.083   .     S
C148   H163    1.083   .     S
C149   C151    1.398   .     A
C149   H162    1.075   .     S
C150   C152    1.398   .     A
C150   H161    1.075   .     S
C151   C155    1.424   .     A
C151   C153    1.424   .     A
C152   C154    1.423   .     A
C152   C156    1.424   .     A
C153   C735    1.401   .     S
C154   C736    1.401   1_554 S
C155   C158    1.420   .     A
C155   C732    1.415   .     S
C156   C157    1.419   .     A
C156   C731    1.415   1_554 S
C157   H167    1.076   .     S
C157   C159    1.390   .     A
C158   C160    1.390   .     A
C158   H168    1.076   .     S
C159   C189    1.448   .     S
C159   C729    1.401   1_554 S
C160   C191    1.448   .     S
C160   C730    1.401   .     S
C169   C178    1.397   .     A
C169   H171    1.084   .     S
C169   C365    1.370   .     S
C170   H172    1.084   .     S
C170   C177    1.397   .     A
C170   C558    1.370   1_545 S
C173   C177    1.397   .     A
C173   H175    1.084   .     S
C173   C553    1.370   1_545 S
C174   C178    1.397   .     A
C174   H176    1.084   .     S
C174   C362    1.370   .     S
C179   N188    1.366   .     A
C179   H181    1.082   .     S
C179   C55     1.417   1_655 S
C180   N187    1.366   .     A
C180   H182    1.082   .     S
C183   N187    1.367   .     A
C183   H185    1.082   .     S
C184   N188    1.367   .     A
C184   H186    1.082   .     S
C184   C52     1.417   1_655 S
N190   C61     1.157   1_655 S
C191   N64     1.157   1_655 S
O193   C197    1.284   .     A
O193   Zn205   2.000   .     S
O194   C198    1.284   .     A
O194   Zn206   2.000   .     S
O195   Zn206   2.000   .     S
O195   C197    1.284   .     A
O196   C198    1.284   .     A
O196   Zn205   2.000   .     S
C197   C242    1.419   .     S
C198   C241    1.419   .     S
O199   Zn205   1.969   .     S
O199   C203    1.292   .     A
O200   C204    1.292   .     A
O200   Zn206   1.969   .     S
O201   Zn206   1.906   .     S
O201   C203    1.294   .     A
O202   C204    1.294   .     A
O202   Zn205   1.906   .     S
C203   C207    1.455   .     S
C204   C208    1.455   .     S
Zn205  N251    2.011   .     S
Zn206  N252    2.011   .     S
C207   C213    1.387   .     A
C207   C211    1.395   .     A
C208   C212    1.395   .     A
C208   C214    1.387   .     A
C209   C217    1.414   .     A
C209   H229    1.083   .     S
C209   C211    1.392   .     A
C210   C212    1.392   .     A
C210   C218    1.413   .     A
C210   H230    1.083   .     S
C211   H228    1.083   .     S
C212   H227    1.083   .     S
C213   C215    1.398   .     A
C213   H226    1.075   .     S
C214   C216    1.398   .     A
C214   H225    1.075   .     S
C215   C219    1.424   .     A
C215   C217    1.424   .     A
C216   C218    1.423   .     A
C216   C220    1.424   .     A
C217   C799    1.401   .     S
C218   C800    1.401   1_554 S
C219   C222    1.420   .     A
C219   C796    1.415   .     S
C220   C221    1.419   .     A
C220   C795    1.415   1_554 S
C221   H231    1.076   .     S
C221   C223    1.390   .     A
C222   C224    1.390   .     A
C222   H232    1.076   .     S
C223   C253    1.448   .     S
C223   C793    1.401   1_554 S
C224   C255    1.448   .     S
C224   C794    1.401   .     S
C233   C242    1.397   .     A
C233   H235    1.084   .     S
C233   C429    1.370   .     S
C234   H236    1.084   .     S
C234   C241    1.397   .     A
C237   C241    1.397   .     A
C237   H239    1.084   .     S
C238   C242    1.397   .     A
C238   H240    1.084   .     S
C238   C426    1.370   .     S
C243   N252    1.366   .     A
C243   H245    1.082   .     S
C243   C311    1.417   .     S
C244   N251    1.366   .     A
C244   H246    1.082   .     S
C244   C376    1.417   1_455 S
C247   N251    1.367   .     A
C247   H249    1.082   .     S
C247   C371    1.417   1_455 S
C248   N252    1.367   .     A
C248   H250    1.082   .     S
C248   C308    1.417   .     S
C253   N382    1.157   1_455 S
N254   C317    1.157   .     S
C255   N320    1.157   .     S
N256   C383    1.157   1_455 S
O257   C261    1.284   .     A
O257   Zn269   2.000   .     S
O258   C262    1.284   .     A
O258   Zn270   2.000   .     S
O259   Zn270   2.000   .     S
O259   C261    1.284   .     A
O260   C262    1.284   .     A
O260   Zn269   2.000   .     S
C261   C306    1.419   .     S
C262   C305    1.419   .     S
O263   Zn269   1.969   .     S
O263   C267    1.292   .     A
O264   C268    1.292   .     A
O264   Zn270   1.969   .     S
O265   Zn270   1.906   .     S
O265   C267    1.294   .     A
O266   C268    1.294   .     A
O266   Zn269   1.906   .     S
C267   C271    1.455   .     S
C268   C272    1.455   .     S
Zn269  N315    2.011   .     S
Zn270  N316    2.011   .     S
C271   C277    1.387   .     A
C271   C275    1.395   .     A
C272   C276    1.395   .     A
C272   C278    1.387   .     A
C273   C281    1.414   .     A
C273   H293    1.083   .     S
C273   C275    1.392   .     A
C274   C276    1.392   .     A
C274   C282    1.413   .     A
C274   H294    1.083   .     S
C275   H292    1.083   .     S
C276   H291    1.083   .     S
C277   C279    1.398   .     A
C277   H290    1.075   .     S
C278   C280    1.398   .     A
C278   H289    1.075   .     S
C279   C283    1.424   .     A
C279   C281    1.424   .     A
C280   C282    1.423   .     A
C280   C284    1.424   .     A
C281   C863    1.401   .     S
C282   C864    1.401   1_554 S
C283   C286    1.420   .     A
C283   C860    1.415   .     S
C284   C285    1.419   .     A
C284   C859    1.415   1_554 S
C285   H295    1.076   .     S
C285   C287    1.390   .     A
C286   C288    1.390   .     A
C286   H296    1.076   .     S
C287   C317    1.448   .     S
C287   C857    1.401   1_554 S
C288   C319    1.448   .     S
C288   C858    1.401   .     S
C297   C306    1.397   .     A
C297   H299    1.084   .     S
C297   C493    1.370   .     S
C298   H300    1.084   .     S
C298   C305    1.397   .     A
C301   C305    1.397   .     A
C301   H303    1.084   .     S
C302   C306    1.397   .     A
C302   H304    1.084   .     S
C302   C490    1.370   .     S
C307   N316    1.366   .     A
C307   H309    1.082   .     S
C307   C375    1.417   .     S
C308   N315    1.366   .     A
C308   H310    1.082   .     S
C311   N315    1.367   .     A
C311   H313    1.082   .     S
C312   N316    1.367   .     A
C312   H314    1.082   .     S
C312   C372    1.417   .     S
N318   C381    1.157   .     S
C319   N384    1.157   .     S
O321   C325    1.284   .     A
O321   Zn333   2.000   .     S
O322   C326    1.284   .     A
O322   Zn334   2.000   .     S
O323   Zn334   2.000   .     S
O323   C325    1.284   .     A
O324   C326    1.284   .     A
O324   Zn333   2.000   .     S
C325   C370    1.419   .     S
C326   C369    1.419   .     S
O327   Zn333   1.969   .     S
O327   C331    1.292   .     A
O328   C332    1.292   .     A
O328   Zn334   1.969   .     S
O329   Zn334   1.906   .     S
O329   C331    1.294   .     A
O330   C332    1.294   .     A
O330   Zn333   1.906   .     S
C331   C335    1.455   .     S
C332   C336    1.455   .     S
Zn333  N379    2.011   .     S
Zn334  N380    2.011   .     S
C335   C341    1.387   .     A
C335   C339    1.395   .     A
C336   C340    1.395   .     A
C336   C342    1.387   .     A
C337   C345    1.414   .     A
C337   H357    1.083   .     S
C337   C339    1.392   .     A
C338   C340    1.392   .     A
C338   C346    1.413   .     A
C338   H358    1.083   .     S
C339   H356    1.083   .     S
C340   H355    1.083   .     S
C341   C343    1.398   .     A
C341   H354    1.075   .     S
C342   C344    1.398   .     A
C342   H353    1.075   .     S
C343   C347    1.424   .     A
C343   C345    1.424   .     A
C344   C346    1.423   .     A
C344   C348    1.424   .     A
C345   C927    1.401   .     S
C346   C928    1.401   1_554 S
C347   C350    1.420   .     A
C347   C924    1.415   .     S
C348   C349    1.419   .     A
C348   C923    1.415   1_554 S
C349   H359    1.076   .     S
C349   C351    1.390   .     A
C350   C352    1.390   .     A
C350   H360    1.076   .     S
C351   C381    1.448   .     S
C351   C921    1.401   1_554 S
C352   C383    1.448   .     S
C352   C922    1.401   .     S
C361   C370    1.397   .     A
C361   H363    1.084   .     S
C361   C557    1.370   .     S
C362   H364    1.084   .     S
C362   C369    1.397   .     A
C365   C369    1.397   .     A
C365   H367    1.084   .     S
C366   C370    1.397   .     A
C366   H368    1.084   .     S
C366   C554    1.370   .     S
C371   N380    1.366   .     A
C371   H373    1.082   .     S
C371   C247    1.417   1_655 S
C372   N379    1.366   .     A
C372   H374    1.082   .     S
C375   N379    1.367   .     A
C375   H377    1.082   .     S
C376   N380    1.367   .     A
C376   H378    1.082   .     S
C376   C244    1.417   1_655 S
N382   C253    1.157   1_655 S
C383   N256    1.157   1_655 S
O385   C389    1.284   .     A
O385   Zn397   2.000   .     S
O386   C390    1.284   .     A
O386   Zn398   2.000   .     S
O387   Zn398   2.000   .     S
O387   C389    1.284   .     A
O388   C390    1.284   .     A
O388   Zn397   2.000   .     S
C389   C434    1.419   .     S
C390   C433    1.419   .     S
O391   Zn397   1.969   .     S
O391   C395    1.292   .     A
O392   C396    1.292   .     A
O392   Zn398   1.969   .     S
O393   Zn398   1.906   .     S
O393   C395    1.294   .     A
O394   C396    1.294   .     A
O394   Zn397   1.906   .     S
C395   C399    1.455   .     S
C396   C400    1.455   .     S
Zn397  N443    2.011   .     S
Zn398  N444    2.011   .     S
C399   C405    1.387   .     A
C399   C403    1.395   .     A
C400   C404    1.395   .     A
C400   C406    1.387   .     A
C401   C409    1.414   .     A
C401   H421    1.083   .     S
C401   C403    1.392   .     A
C402   C404    1.392   .     A
C402   C410    1.413   .     A
C402   H422    1.083   .     S
C403   H420    1.083   .     S
C404   H419    1.083   .     S
C405   C407    1.398   .     A
C405   H418    1.075   .     S
C406   C408    1.398   .     A
C406   H417    1.075   .     S
C407   C411    1.424   .     A
C407   C409    1.424   .     A
C408   C410    1.423   .     A
C408   C412    1.424   .     A
C409   C991    1.401   .     S
C410   C992    1.401   1_554 S
C411   C414    1.420   .     A
C411   C988    1.415   .     S
C412   C413    1.419   .     A
C412   C987    1.415   1_554 S
C413   H423    1.076   .     S
C413   C415    1.390   .     A
C414   C416    1.390   .     A
C414   H424    1.076   .     S
C415   C445    1.448   .     S
C415   C985    1.401   1_554 S
C416   C447    1.448   .     S
C416   C986    1.401   .     S
C425   C434    1.397   .     A
C425   H427    1.084   .     S
C425   C45     1.370   1_565 S
C426   H428    1.084   .     S
C426   C433    1.397   .     A
C429   C433    1.397   .     A
C429   H431    1.084   .     S
C430   C434    1.397   .     A
C430   H432    1.084   .     S
C430   C42     1.370   1_565 S
C435   N444    1.366   .     A
C435   H437    1.082   .     S
C435   C503    1.417   .     S
C436   N443    1.366   .     A
C436   H438    1.082   .     S
C436   C568    1.417   1_455 S
C439   N443    1.367   .     A
C439   H441    1.082   .     S
C439   C563    1.417   1_455 S
C440   N444    1.367   .     A
C440   H442    1.082   .     S
C440   C500    1.417   .     S
C445   N574    1.157   1_455 S
N446   C509    1.157   .     S
C447   N512    1.157   .     S
N448   C575    1.157   1_455 S
O449   C453    1.284   .     A
O449   Zn461   2.000   .     S
O450   C454    1.284   .     A
O450   Zn462   2.000   .     S
O451   Zn462   2.000   .     S
O451   C453    1.284   .     A
O452   C454    1.284   .     A
O452   Zn461   2.000   .     S
C453   C498    1.419   .     S
C454   C497    1.419   .     S
O455   Zn461   1.969   .     S
O455   C459    1.292   .     A
O456   C460    1.292   .     A
O456   Zn462   1.969   .     S
O457   Zn462   1.906   .     S
O457   C459    1.294   .     A
O458   C460    1.294   .     A
O458   Zn461   1.906   .     S
C459   C463    1.455   .     S
C460   C464    1.455   .     S
Zn461  N507    2.011   .     S
Zn462  N508    2.011   .     S
C463   C469    1.387   .     A
C463   C467    1.395   .     A
C464   C468    1.395   .     A
C464   C470    1.387   .     A
C465   C473    1.414   .     A
C465   H485    1.083   .     S
C465   C467    1.392   .     A
C466   C468    1.392   .     A
C466   C474    1.413   .     A
C466   H486    1.083   .     S
C467   H484    1.083   .     S
C468   H483    1.083   .     S
C469   C471    1.398   .     A
C469   H482    1.075   .     S
C470   C472    1.398   .     A
C470   H481    1.075   .     S
C471   C475    1.424   .     A
C471   C473    1.424   .     A
C472   C474    1.423   .     A
C472   C476    1.424   .     A
C473   C1055   1.401   .     S
C474   C1056   1.401   1_554 S
C475   C478    1.420   .     A
C475   C1052   1.415   .     S
C476   C477    1.419   .     A
C476   C1051   1.415   1_554 S
C477   H487    1.076   .     S
C477   C479    1.390   .     A
C478   C480    1.390   .     A
C478   H488    1.076   .     S
C479   C509    1.448   .     S
C479   C1049   1.401   1_554 S
C480   C511    1.448   .     S
C480   C1050   1.401   .     S
C489   C498    1.397   .     A
C489   H491    1.084   .     S
C489   C109    1.370   1_565 S
C490   H492    1.084   .     S
C490   C497    1.397   .     A
C493   C497    1.397   .     A
C493   H495    1.084   .     S
C494   C498    1.397   .     A
C494   H496    1.084   .     S
C494   C106    1.370   1_565 S
C499   N508    1.366   .     A
C499   H501    1.082   .     S
C499   C567    1.417   .     S
C500   N507    1.366   .     A
C500   H502    1.082   .     S
C503   N507    1.367   .     A
C503   H505    1.082   .     S
C504   N508    1.367   .     A
C504   H506    1.082   .     S
C504   C564    1.417   .     S
N510   C573    1.157   .     S
C511   N576    1.157   .     S
O513   C517    1.284   .     A
O513   Zn525   2.000   .     S
O514   C518    1.284   .     A
O514   Zn526   2.000   .     S
O515   Zn526   2.000   .     S
O515   C517    1.284   .     A
O516   C518    1.284   .     A
O516   Zn525   2.000   .     S
C517   C562    1.419   .     S
C518   C561    1.419   .     S
O519   Zn525   1.969   .     S
O519   C523    1.292   .     A
O520   C524    1.292   .     A
O520   Zn526   1.969   .     S
O521   Zn526   1.906   .     S
O521   C523    1.294   .     A
O522   C524    1.294   .     A
O522   Zn525   1.906   .     S
C523   C527    1.455   .     S
C524   C528    1.455   .     S
Zn525  N571    2.011   .     S
Zn526  N572    2.011   .     S
C527   C533    1.387   .     A
C527   C531    1.395   .     A
C528   C532    1.395   .     A
C528   C534    1.387   .     A
C529   C537    1.414   .     A
C529   H549    1.083   .     S
C529   C531    1.392   .     A
C530   C532    1.392   .     A
C530   C538    1.413   .     A
C530   H550    1.083   .     S
C531   H548    1.083   .     S
C532   H547    1.083   .     S
C533   C535    1.398   .     A
C533   H546    1.075   .     S
C534   C536    1.398   .     A
C534   H545    1.075   .     S
C535   C539    1.424   .     A
C535   C537    1.424   .     A
C536   C538    1.423   .     A
C536   C540    1.424   .     A
C537   C1119   1.401   .     S
C538   C1120   1.401   1_554 S
C539   C542    1.420   .     A
C539   C1116   1.415   .     S
C540   C541    1.419   .     A
C540   C1115   1.415   1_554 S
C541   H551    1.076   .     S
C541   C543    1.390   .     A
C542   C544    1.390   .     A
C542   H552    1.076   .     S
C543   C573    1.448   .     S
C543   C1113   1.401   1_554 S
C544   C575    1.448   .     S
C544   C1114   1.401   .     S
C553   C562    1.397   .     A
C553   H555    1.084   .     S
C553   C173    1.370   1_565 S
C554   H556    1.084   .     S
C554   C561    1.397   .     A
C557   C561    1.397   .     A
C557   H559    1.084   .     S
C558   C562    1.397   .     A
C558   H560    1.084   .     S
C558   C170    1.370   1_565 S
C563   N572    1.366   .     A
C563   H565    1.082   .     S
C563   C439    1.417   1_655 S
C564   N571    1.366   .     A
C564   H566    1.082   .     S
C567   N571    1.367   .     A
C567   H569    1.082   .     S
C568   N572    1.367   .     A
C568   H570    1.082   .     S
C568   C436    1.417   1_655 S
N574   C445    1.157   1_655 S
C575   N448    1.157   1_655 S
O577   C581    1.284   .     A
O577   Zn589   2.000   .     S
O578   C582    1.284   .     A
O578   Zn590   2.000   .     S
O579   Zn590   2.000   .     S
O579   C581    1.284   .     A
O580   C582    1.284   .     A
O580   Zn589   2.000   .     S
C581   C626    1.419   .     S
C582   C625    1.419   .     S
O583   Zn589   1.969   .     S
O583   C587    1.292   .     A
O584   C588    1.292   .     A
O584   Zn590   1.969   .     S
O585   Zn590   1.906   .     S
O585   C587    1.294   .     A
O586   C588    1.294   .     A
O586   Zn589   1.906   .     S
C587   C591    1.455   .     S
C588   C592    1.455   .     S
Zn589  N635    2.011   .     S
Zn590  N636    2.011   .     S
C591   C597    1.387   .     A
C591   C595    1.395   .     A
C592   C596    1.395   .     A
C592   C598    1.387   .     A
C593   C601    1.414   .     A
C593   H613    1.083   .     S
C593   C595    1.392   .     A
C594   C596    1.392   .     A
C594   C602    1.413   .     A
C594   H614    1.083   .     S
C595   H612    1.083   .     S
C596   H611    1.083   .     S
C597   C599    1.398   .     A
C597   H610    1.075   .     S
C598   C600    1.398   .     A
C598   H609    1.075   .     S
C599   C603    1.424   .     A
C599   C601    1.424   .     A
C600   C602    1.423   .     A
C600   C604    1.424   .     A
C601   C31     1.401   1_556 S
C603   C606    1.420   .     A
C603   C28     1.415   1_556 S
C604   C605    1.419   .     A
C605   H615    1.076   .     S
C605   C607    1.390   .     A
C606   C608    1.390   .     A
C606   H616    1.076   .     S
C607   C637    1.448   .     S
C608   C639    1.448   .     S
C608   C26     1.401   1_556 S
C617   C626    1.397   .     A
C617   H619    1.084   .     S
C617   C813    1.370   .     S
C618   H620    1.084   .     S
C618   C625    1.397   .     A
C618   C1006   1.370   1_545 S
C621   C625    1.397   .     A
C621   H623    1.084   .     S
C621   C1001   1.370   1_545 S
C622   C626    1.397   .     A
C622   H624    1.084   .     S
C622   C810    1.370   .     S
C627   N636    1.366   .     A
C627   H629    1.082   .     S
C627   C695    1.417   .     S
C628   N635    1.366   .     A
C628   H630    1.082   .     S
C628   C760    1.417   1_455 S
C631   N635    1.367   .     A
C631   H633    1.082   .     S
C631   C755    1.417   1_455 S
C632   N636    1.367   .     A
C632   H634    1.082   .     S
C632   C692    1.417   .     S
C637   N766    1.157   1_455 S
N638   C701    1.157   .     S
C639   N704    1.157   .     S
N640   C767    1.157   1_455 S
O641   C645    1.284   .     A
O641   Zn653   2.000   .     S
O642   C646    1.284   .     A
O642   Zn654   2.000   .     S
O643   Zn654   2.000   .     S
O643   C645    1.284   .     A
O644   C646    1.284   .     A
O644   Zn653   2.000   .     S
C645   C690    1.419   .     S
C646   C689    1.419   .     S
O647   Zn653   1.969   .     S
O647   C651    1.292   .     A
O648   C652    1.292   .     A
O648   Zn654   1.969   .     S
O649   Zn654   1.906   .     S
O649   C651    1.294   .     A
O650   C652    1.294   .     A
O650   Zn653   1.906   .     S
C651   C655    1.455   .     S
C652   C656    1.455   .     S
Zn653  N699    2.011   .     S
Zn654  N700    2.011   .     S
C655   C661    1.387   .     A
C655   C659    1.395   .     A
C656   C660    1.395   .     A
C656   C662    1.387   .     A
C657   C665    1.414   .     A
C657   H677    1.083   .     S
C657   C659    1.392   .     A
C658   C660    1.392   .     A
C658   C666    1.413   .     A
C658   H678    1.083   .     S
C659   H676    1.083   .     S
C660   H675    1.083   .     S
C661   C663    1.398   .     A
C661   H674    1.075   .     S
C662   C664    1.398   .     A
C662   H673    1.075   .     S
C663   C667    1.424   .     A
C663   C665    1.424   .     A
C664   C666    1.423   .     A
C664   C668    1.424   .     A
C665   C95     1.401   1_556 S
C667   C670    1.420   .     A
C667   C92     1.415   1_556 S
C668   C669    1.419   .     A
C669   H679    1.076   .     S
C669   C671    1.390   .     A
C670   C672    1.390   .     A
C670   H680    1.076   .     S
C671   C701    1.448   .     S
C672   C703    1.448   .     S
C672   C90     1.401   1_556 S
C681   C690    1.397   .     A
C681   H683    1.084   .     S
C681   C877    1.370   .     S
C682   H684    1.084   .     S
C682   C689    1.397   .     A
C682   C1070   1.370   1_545 S
C685   C689    1.397   .     A
C685   H687    1.084   .     S
C685   C1065   1.370   1_545 S
C686   C690    1.397   .     A
C686   H688    1.084   .     S
C686   C874    1.370   .     S
C691   N700    1.366   .     A
C691   H693    1.082   .     S
C691   C759    1.417   .     S
C692   N699    1.366   .     A
C692   H694    1.082   .     S
C695   N699    1.367   .     A
C695   H697    1.082   .     S
C696   N700    1.367   .     A
C696   H698    1.082   .     S
C696   C756    1.417   .     S
N702   C765    1.157   .     S
C703   N768    1.157   .     S
O705   C709    1.284   .     A
O705   Zn717   2.000   .     S
O706   C710    1.284   .     A
O706   Zn718   2.000   .     S
O707   Zn718   2.000   .     S
O707   C709    1.284   .     A
O708   C710    1.284   .     A
O708   Zn717   2.000   .     S
C709   C754    1.419   .     S
C710   C753    1.419   .     S
O711   Zn717   1.969   .     S
O711   C715    1.292   .     A
O712   C716    1.292   .     A
O712   Zn718   1.969   .     S
O713   Zn718   1.906   .     S
O713   C715    1.294   .     A
O714   C716    1.294   .     A
O714   Zn717   1.906   .     S
C715   C719    1.455   .     S
C716   C720    1.455   .     S
Zn717  N763    2.011   .     S
Zn718  N764    2.011   .     S
C719   C725    1.387   .     A
C719   C723    1.395   .     A
C720   C724    1.395   .     A
C720   C726    1.387   .     A
C721   C729    1.414   .     A
C721   H741    1.083   .     S
C721   C723    1.392   .     A
C722   C724    1.392   .     A
C722   C730    1.413   .     A
C722   H742    1.083   .     S
C723   H740    1.083   .     S
C724   H739    1.083   .     S
C725   C727    1.398   .     A
C725   H738    1.075   .     S
C726   C728    1.398   .     A
C726   H737    1.075   .     S
C727   C731    1.424   .     A
C727   C729    1.424   .     A
C728   C730    1.423   .     A
C728   C732    1.424   .     A
C729   C159    1.401   1_556 S
C731   C734    1.420   .     A
C731   C156    1.415   1_556 S
C732   C733    1.419   .     A
C733   H743    1.076   .     S
C733   C735    1.390   .     A
C734   C736    1.390   .     A
C734   H744    1.076   .     S
C735   C765    1.448   .     S
C736   C767    1.448   .     S
C736   C154    1.401   1_556 S
C745   C754    1.397   .     A
C745   H747    1.084   .     S
C745   C941    1.370   .     S
C746   H748    1.084   .     S
C746   C753    1.397   .     A
C746   C1134   1.370   1_545 S
C749   C753    1.397   .     A
C749   H751    1.084   .     S
C749   C1129   1.370   1_545 S
C750   C754    1.397   .     A
C750   H752    1.084   .     S
C750   C938    1.370   .     S
C755   N764    1.366   .     A
C755   H757    1.082   .     S
C755   C631    1.417   1_655 S
C756   N763    1.366   .     A
C756   H758    1.082   .     S
C759   N763    1.367   .     A
C759   H761    1.082   .     S
C760   N764    1.367   .     A
C760   H762    1.082   .     S
C760   C628    1.417   1_655 S
N766   C637    1.157   1_655 S
C767   N640    1.157   1_655 S
O769   C773    1.284   .     A
O769   Zn781   2.000   .     S
O770   C774    1.284   .     A
O770   Zn782   2.000   .     S
O771   Zn782   2.000   .     S
O771   C773    1.284   .     A
O772   C774    1.284   .     A
O772   Zn781   2.000   .     S
C773   C818    1.419   .     S
C774   C817    1.419   .     S
O775   Zn781   1.969   .     S
O775   C779    1.292   .     A
O776   C780    1.292   .     A
O776   Zn782   1.969   .     S
O777   Zn782   1.906   .     S
O777   C779    1.294   .     A
O778   C780    1.294   .     A
O778   Zn781   1.906   .     S
C779   C783    1.455   .     S
C780   C784    1.455   .     S
Zn781  N827    2.011   .     S
Zn782  N828    2.011   .     S
C783   C789    1.387   .     A
C783   C787    1.395   .     A
C784   C788    1.395   .     A
C784   C790    1.387   .     A
C785   C793    1.414   .     A
C785   H805    1.083   .     S
C785   C787    1.392   .     A
C786   C788    1.392   .     A
C786   C794    1.413   .     A
C786   H806    1.083   .     S
C787   H804    1.083   .     S
C788   H803    1.083   .     S
C789   C791    1.398   .     A
C789   H802    1.075   .     S
C790   C792    1.398   .     A
C790   H801    1.075   .     S
C791   C795    1.424   .     A
C791   C793    1.424   .     A
C792   C794    1.423   .     A
C792   C796    1.424   .     A
C793   C223    1.401   1_556 S
C795   C798    1.420   .     A
C795   C220    1.415   1_556 S
C796   C797    1.419   .     A
C797   H807    1.076   .     S
C797   C799    1.390   .     A
C798   C800    1.390   .     A
C798   H808    1.076   .     S
C799   C829    1.448   .     S
C800   C831    1.448   .     S
C800   C218    1.401   1_556 S
C809   C818    1.397   .     A
C809   H811    1.084   .     S
C809   C1005   1.370   .     S
C810   H812    1.084   .     S
C810   C817    1.397   .     A
C813   C817    1.397   .     A
C813   H815    1.084   .     S
C814   C818    1.397   .     A
C814   H816    1.084   .     S
C814   C1002   1.370   .     S
C819   N828    1.366   .     A
C819   H821    1.082   .     S
C819   C887    1.417   .     S
C820   N827    1.366   .     A
C820   H822    1.082   .     S
C820   C952    1.417   1_455 S
C823   N827    1.367   .     A
C823   H825    1.082   .     S
C823   C947    1.417   1_455 S
C824   N828    1.367   .     A
C824   H826    1.082   .     S
C824   C884    1.417   .     S
C829   N958    1.157   1_455 S
N830   C893    1.157   .     S
C831   N896    1.157   .     S
N832   C959    1.157   1_455 S
O833   C837    1.284   .     A
O833   Zn845   2.000   .     S
O834   C838    1.284   .     A
O834   Zn846   2.000   .     S
O835   Zn846   2.000   .     S
O835   C837    1.284   .     A
O836   C838    1.284   .     A
O836   Zn845   2.000   .     S
C837   C882    1.419   .     S
C838   C881    1.419   .     S
O839   Zn845   1.969   .     S
O839   C843    1.292   .     A
O840   C844    1.292   .     A
O840   Zn846   1.969   .     S
O841   Zn846   1.906   .     S
O841   C843    1.294   .     A
O842   C844    1.294   .     A
O842   Zn845   1.906   .     S
C843   C847    1.455   .     S
C844   C848    1.455   .     S
Zn845  N891    2.011   .     S
Zn846  N892    2.011   .     S
C847   C853    1.387   .     A
C847   C851    1.395   .     A
C848   C852    1.395   .     A
C848   C854    1.387   .     A
C849   C857    1.414   .     A
C849   H869    1.083   .     S
C849   C851    1.392   .     A
C850   C852    1.392   .     A
C850   C858    1.413   .     A
C850   H870    1.083   .     S
C851   H868    1.083   .     S
C852   H867    1.083   .     S
C853   C855    1.398   .     A
C853   H866    1.075   .     S
C854   C856    1.398   .     A
C854   H865    1.075   .     S
C855   C859    1.424   .     A
C855   C857    1.424   .     A
C856   C858    1.423   .     A
C856   C860    1.424   .     A
C857   C287    1.401   1_556 S
C859   C862    1.420   .     A
C859   C284    1.415   1_556 S
C860   C861    1.419   .     A
C861   H871    1.076   .     S
C861   C863    1.390   .     A
C862   C864    1.390   .     A
C862   H872    1.076   .     S
C863   C893    1.448   .     S
C864   C895    1.448   .     S
C864   C282    1.401   1_556 S
C873   C882    1.397   .     A
C873   H875    1.084   .     S
C873   C1069   1.370   .     S
C874   H876    1.084   .     S
C874   C881    1.397   .     A
C877   C881    1.397   .     A
C877   H879    1.084   .     S
C878   C882    1.397   .     A
C878   H880    1.084   .     S
C878   C1066   1.370   .     S
C883   N892    1.366   .     A
C883   H885    1.082   .     S
C883   C951    1.417   .     S
C884   N891    1.366   .     A
C884   H886    1.082   .     S
C887   N891    1.367   .     A
C887   H889    1.082   .     S
C888   N892    1.367   .     A
C888   H890    1.082   .     S
C888   C948    1.417   .     S
N894   C957    1.157   .     S
C895   N960    1.157   .     S
O897   C901    1.284   .     A
O897   Zn909   2.000   .     S
O898   C902    1.284   .     A
O898   Zn910   2.000   .     S
O899   Zn910   2.000   .     S
O899   C901    1.284   .     A
O900   C902    1.284   .     A
O900   Zn909   2.000   .     S
C901   C946    1.419   .     S
C902   C945    1.419   .     S
O903   Zn909   1.969   .     S
O903   C907    1.292   .     A
O904   C908    1.292   .     A
O904   Zn910   1.969   .     S
O905   Zn910   1.906   .     S
O905   C907    1.294   .     A
O906   C908    1.294   .     A
O906   Zn909   1.906   .     S
C907   C911    1.455   .     S
C908   C912    1.455   .     S
Zn909  N955    2.011   .     S
Zn910  N956    2.011   .     S
C911   C917    1.387   .     A
C911   C915    1.395   .     A
C912   C916    1.395   .     A
C912   C918    1.387   .     A
C913   C921    1.414   .     A
C913   H933    1.083   .     S
C913   C915    1.392   .     A
C914   C916    1.392   .     A
C914   C922    1.413   .     A
C914   H934    1.083   .     S
C915   H932    1.083   .     S
C916   H931    1.083   .     S
C917   C919    1.398   .     A
C917   H930    1.075   .     S
C918   C920    1.398   .     A
C918   H929    1.075   .     S
C919   C923    1.424   .     A
C919   C921    1.424   .     A
C920   C922    1.423   .     A
C920   C924    1.424   .     A
C921   C351    1.401   1_556 S
C923   C926    1.420   .     A
C923   C348    1.415   1_556 S
C924   C925    1.419   .     A
C925   H935    1.076   .     S
C925   C927    1.390   .     A
C926   C928    1.390   .     A
C926   H936    1.076   .     S
C927   C957    1.448   .     S
C928   C959    1.448   .     S
C928   C346    1.401   1_556 S
C937   C946    1.397   .     A
C937   H939    1.084   .     S
C937   C1133   1.370   .     S
C938   H940    1.084   .     S
C938   C945    1.397   .     A
C941   C945    1.397   .     A
C941   H943    1.084   .     S
C942   C946    1.397   .     A
C942   H944    1.084   .     S
C942   C1130   1.370   .     S
C947   N956    1.366   .     A
C947   H949    1.082   .     S
C947   C823    1.417   1_655 S
C948   N955    1.366   .     A
C948   H950    1.082   .     S
C951   N955    1.367   .     A
C951   H953    1.082   .     S
C952   N956    1.367   .     A
C952   H954    1.082   .     S
C952   C820    1.417   1_655 S
N958   C829    1.157   1_655 S
C959   N832    1.157   1_655 S
O961   C965    1.284   .     A
O961   Zn973   2.000   .     S
O962   C966    1.284   .     A
O962   Zn974   2.000   .     S
O963   Zn974   2.000   .     S
O963   C965    1.284   .     A
O964   C966    1.284   .     A
O964   Zn973   2.000   .     S
C965   C1010   1.419   .     S
C966   C1009   1.419   .     S
O967   Zn973   1.969   .     S
O967   C971    1.292   .     A
O968   C972    1.292   .     A
O968   Zn974   1.969   .     S
O969   Zn974   1.906   .     S
O969   C971    1.294   .     A
O970   C972    1.294   .     A
O970   Zn973   1.906   .     S
C971   C975    1.455   .     S
C972   C976    1.455   .     S
Zn973  N1019   2.011   .     S
Zn974  N1020   2.011   .     S
C975   C981    1.387   .     A
C975   C979    1.395   .     A
C976   C980    1.395   .     A
C976   C982    1.387   .     A
C977   C985    1.414   .     A
C977   H997    1.083   .     S
C977   C979    1.392   .     A
C978   C980    1.392   .     A
C978   C986    1.413   .     A
C978   H998    1.083   .     S
C979   H996    1.083   .     S
C980   H995    1.083   .     S
C981   C983    1.398   .     A
C981   H994    1.075   .     S
C982   C984    1.398   .     A
C982   H993    1.075   .     S
C983   C987    1.424   .     A
C983   C985    1.424   .     A
C984   C986    1.423   .     A
C984   C988    1.424   .     A
C985   C415    1.401   1_556 S
C987   C990    1.420   .     A
C987   C412    1.415   1_556 S
C988   C989    1.419   .     A
C989   H999    1.076   .     S
C989   C991    1.390   .     A
C990   C992    1.390   .     A
C990   H1000   1.076   .     S
C991   C1021   1.448   .     S
C992   C1023   1.448   .     S
C992   C410    1.401   1_556 S
C1001  C1010   1.397   .     A
C1001  H1003   1.084   .     S
C1001  C621    1.370   1_565 S
C1002  H1004   1.084   .     S
C1002  C1009   1.397   .     A
C1005  C1009   1.397   .     A
C1005  H1007   1.084   .     S
C1006  C1010   1.397   .     A
C1006  H1008   1.084   .     S
C1006  C618    1.370   1_565 S
C1011  N1020   1.366   .     A
C1011  H1013   1.082   .     S
C1011  C1079   1.417   .     S
C1012  N1019   1.366   .     A
C1012  H1014   1.082   .     S
C1012  C1144   1.417   1_455 S
C1015  N1019   1.367   .     A
C1015  H1017   1.082   .     S
C1015  C1139   1.417   1_455 S
C1016  N1020   1.367   .     A
C1016  H1018   1.082   .     S
C1016  C1076   1.417   .     S
C1021  N1150   1.157   1_455 S
N1022  C1085   1.157   .     S
C1023  N1088   1.157   .     S
N1024  C1151   1.157   1_455 S
O1025  C1029   1.284   .     A
O1025  Zn1037  2.000   .     S
O1026  C1030   1.284   .     A
O1026  Zn1038  2.000   .     S
O1027  Zn1038  2.000   .     S
O1027  C1029   1.284   .     A
O1028  C1030   1.284   .     A
O1028  Zn1037  2.000   .     S
C1029  C1074   1.419   .     S
C1030  C1073   1.419   .     S
O1031  Zn1037  1.969   .     S
O1031  C1035   1.292   .     A
O1032  C1036   1.292   .     A
O1032  Zn1038  1.969   .     S
O1033  Zn1038  1.906   .     S
O1033  C1035   1.294   .     A
O1034  C1036   1.294   .     A
O1034  Zn1037  1.906   .     S
C1035  C1039   1.455   .     S
C1036  C1040   1.455   .     S
Zn1037 N1083   2.011   .     S
Zn1038 N1084   2.011   .     S
C1039  C1045   1.387   .     A
C1039  C1043   1.395   .     A
C1040  C1044   1.395   .     A
C1040  C1046   1.387   .     A
C1041  C1049   1.414   .     A
C1041  H1061   1.083   .     S
C1041  C1043   1.392   .     A
C1042  C1044   1.392   .     A
C1042  C1050   1.413   .     A
C1042  H1062   1.083   .     S
C1043  H1060   1.083   .     S
C1044  H1059   1.083   .     S
C1045  C1047   1.398   .     A
C1045  H1058   1.075   .     S
C1046  C1048   1.398   .     A
C1046  H1057   1.075   .     S
C1047  C1051   1.424   .     A
C1047  C1049   1.424   .     A
C1048  C1050   1.423   .     A
C1048  C1052   1.424   .     A
C1049  C479    1.401   1_556 S
C1051  C1054   1.420   .     A
C1051  C476    1.415   1_556 S
C1052  C1053   1.419   .     A
C1053  H1063   1.076   .     S
C1053  C1055   1.390   .     A
C1054  C1056   1.390   .     A
C1054  H1064   1.076   .     S
C1055  C1085   1.448   .     S
C1056  C1087   1.448   .     S
C1056  C474    1.401   1_556 S
C1065  C1074   1.397   .     A
C1065  H1067   1.084   .     S
C1065  C685    1.370   1_565 S
C1066  H1068   1.084   .     S
C1066  C1073   1.397   .     A
C1069  C1073   1.397   .     A
C1069  H1071   1.084   .     S
C1070  C1074   1.397   .     A
C1070  H1072   1.084   .     S
C1070  C682    1.370   1_565 S
C1075  N1084   1.366   .     A
C1075  H1077   1.082   .     S
C1075  C1143   1.417   .     S
C1076  N1083   1.366   .     A
C1076  H1078   1.082   .     S
C1079  N1083   1.367   .     A
C1079  H1081   1.082   .     S
C1080  N1084   1.367   .     A
C1080  H1082   1.082   .     S
C1080  C1140   1.417   .     S
N1086  C1149   1.157   .     S
C1087  N1152   1.157   .     S
O1089  C1093   1.284   .     A
O1089  Zn1101  2.000   .     S
O1090  C1094   1.284   .     A
O1090  Zn1102  2.000   .     S
O1091  Zn1102  2.000   .     S
O1091  C1093   1.284   .     A
O1092  C1094   1.284   .     A
O1092  Zn1101  2.000   .     S
C1093  C1138   1.419   .     S
C1094  C1137   1.419   .     S
O1095  Zn1101  1.969   .     S
O1095  C1099   1.292   .     A
O1096  C1100   1.292   .     A
O1096  Zn1102  1.969   .     S
O1097  Zn1102  1.906   .     S
O1097  C1099   1.294   .     A
O1098  C1100   1.294   .     A
O1098  Zn1101  1.906   .     S
C1099  C1103   1.455   .     S
C1100  C1104   1.455   .     S
Zn1101 N1147   2.011   .     S
Zn1102 N1148   2.011   .     S
C1103  C1109   1.387   .     A
C1103  C1107   1.395   .     A
C1104  C1108   1.395   .     A
C1104  C1110   1.387   .     A
C1105  C1113   1.414   .     A
C1105  H1125   1.083   .     S
C1105  C1107   1.392   .     A
C1106  C1108   1.392   .     A
C1106  C1114   1.413   .     A
C1106  H1126   1.083   .     S
C1107  H1124   1.083   .     S
C1108  H1123   1.083   .     S
C1109  C1111   1.398   .     A
C1109  H1122   1.075   .     S
C1110  C1112   1.398   .     A
C1110  H1121   1.075   .     S
C1111  C1115   1.424   .     A
C1111  C1113   1.424   .     A
C1112  C1114   1.423   .     A
C1112  C1116   1.424   .     A
C1113  C543    1.401   1_556 S
C1115  C1118   1.420   .     A
C1115  C540    1.415   1_556 S
C1116  C1117   1.419   .     A
C1117  H1127   1.076   .     S
C1117  C1119   1.390   .     A
C1118  C1120   1.390   .     A
C1118  H1128   1.076   .     S
C1119  C1149   1.448   .     S
C1120  C1151   1.448   .     S
C1120  C538    1.401   1_556 S
C1129  C1138   1.397   .     A
C1129  H1131   1.084   .     S
C1129  C749    1.370   1_565 S
C1130  H1132   1.084   .     S
C1130  C1137   1.397   .     A
C1133  C1137   1.397   .     A
C1133  H1135   1.084   .     S
C1134  C1138   1.397   .     A
C1134  H1136   1.084   .     S
C1134  C746    1.370   1_565 S
C1139  N1148   1.366   .     A
C1139  H1141   1.082   .     S
C1139  C1015   1.417   1_655 S
C1140  N1147   1.366   .     A
C1140  H1142   1.082   .     S
C1143  N1147   1.367   .     A
C1143  H1145   1.082   .     S
C1144  N1148   1.367   .     A
C1144  H1146   1.082   .     S
C1144  C1012   1.417   1_655 S
N1150  C1021   1.157   1_655 S
C1151  N1024   1.157   1_655 S
