data_str_m2_o2_o5_pcu_sym.68
_audit_creation_date              2020-01-03
_audit_creation_method            'Materials Studio'
_symmetry_space_group_name_H-M    'P1'
_symmetry_Int_Tables_number       1
_symmetry_cell_setting            triclinic
loop_
_symmetry_equiv_pos_as_xyz
  x,y,z
_cell_length_a                    30.2267
_cell_length_b                    27.9902
_cell_length_c                    27.2527
_cell_angle_alpha                 89.1799
_cell_angle_beta                  91.6013
_cell_angle_gamma                 89.8664
loop_
_atom_site_label
_atom_site_type_symbol
_atom_site_fract_x
_atom_site_fract_y
_atom_site_fract_z
_atom_site_U_iso_or_equiv
_atom_site_adp_type
_atom_site_occupancy
C1     C     0.16495   0.25012   0.16615   0.00000  Uiso   1.00
C2     C     0.24691   0.44638   0.21063   0.00000  Uiso   1.00
C3     C     0.24993   0.25018   0.07360   0.00000  Uiso   1.00
C4     C     0.25002   0.24979   0.25973   0.00000  Uiso   1.00
C5     C     0.24959   0.02755   0.16857   0.00000  Uiso   1.00
C6     C     0.25014   0.47342   0.16719   0.00000  Uiso   1.00
C7     C     0.24998   0.25019   0.02185   0.00000  Uiso   1.00
C8     C     0.25000   0.24966   0.31148   0.00000  Uiso   1.00
C9     C     0.04745   0.28406   0.12941   0.00000  Uiso   1.00
C10    C     0.45139   0.22315   0.12916   0.00000  Uiso   1.00
C11    C     0.45354   0.28522   0.19146   0.00000  Uiso   1.00
C12    C     0.33495   0.25002   0.16657   0.00000  Uiso   1.00
C13    C     0.04587   0.21824   0.18907   0.00000  Uiso   1.00
C14    C     0.09396   0.28592   0.13489   0.00000  Uiso   1.00
C15    C     0.40524   0.21918   0.13382   0.00000  Uiso   1.00
C16    C     0.40728   0.28370   0.19356   0.00000  Uiso   1.00
C17    C     0.09247   0.21551   0.18936   0.00000  Uiso   1.00
C18    C     0.11636   0.25062   0.16369   0.00000  Uiso   1.00
C19    C     0.38328   0.25064   0.16486   0.00000  Uiso   1.00
C20    C     0.02386   0.25267   0.15944   0.00000  Uiso   1.00
C21    C     0.47539   0.25468   0.15922   0.00000  Uiso   1.00
C22    C     0.31796   0.13651   0.25356   0.00000  Uiso   1.00
C23    C     0.28648   0.10377   0.18432   0.00000  Uiso   1.00
C24    C     0.22506   0.37478   0.05083   0.00000  Uiso   1.00
C25    C     0.17888   0.12285   0.07719   0.00000  Uiso   1.00
C26    C     0.18322   0.37752   0.25532   0.00000  Uiso   1.00
C27    C     0.03574   0.30653   0.04862   0.00000  Uiso   1.00
C28    C     0.46398   0.20804   0.04866   0.00000  Uiso   1.00
C29    C     0.49316   0.35420   0.20351   0.00000  Uiso   1.00
C30    C     0.01985   0.19655   0.26357   0.00000  Uiso   1.00
C31    C     0.10923   0.36594   0.12902   0.00000  Uiso   1.00
C32    C     0.39154   0.13978   0.12046   0.00000  Uiso   1.00
C33    C     0.38037   0.35785   0.21129   0.00000  Uiso   1.00
C34    C     0.25597   0.39733   0.12391   0.00000  Uiso   1.00
C35    C     0.10539   0.13543   0.20526   0.00000  Uiso   1.00
C36    C     0.35260   0.03144   0.22414   0.00000  Uiso   1.00
C37    C     0.23167   0.49907   0.06035   0.00000  Uiso   1.00
C38    C     0.15309   0.01146   0.18860   0.00000  Uiso   1.00
C39    C     0.28360   0.45441   0.28459   0.00000  Uiso   1.00
C40    C     0.21360   0.10446   0.15005   0.00000  Uiso   1.00
C41    C     0.24199   0.39578   0.20883   0.00000  Uiso   1.00
C42    C     0.28838   0.05290   0.18036   0.00000  Uiso   1.00
C43    C     0.25563   0.44831   0.12334   0.00000  Uiso   1.00
C44    C     0.21075   0.05423   0.15704   0.00000  Uiso   1.00
Cu45   Cu    0.25000   0.29822   0.16667   0.00000  Uiso   1.00
Cu46   Cu    0.25000   0.20179   0.16667   0.00000  Uiso   1.00
H47    H     0.28468   0.12788   0.26810   0.00000  Uiso   1.00
H48    H     0.17234   0.35414   0.28586   0.00000  Uiso   1.00
H49    H     0.16497   0.36604   0.22163   0.00000  Uiso   1.00
H50    H     0.17433   0.41488   0.26433   0.00000  Uiso   1.00
H51    H     0.04305   0.26828   0.04128   0.00000  Uiso   1.00
H52    H     0.06434   0.32896   0.03840   0.00000  Uiso   1.00
H53    H     0.00748   0.31735   0.02407   0.00000  Uiso   1.00
H54    H     0.43532   0.18747   0.03401   0.00000  Uiso   1.00
H55    H     0.49291   0.19925   0.02661   0.00000  Uiso   1.00
H56    H     0.45753   0.24708   0.04363   0.00000  Uiso   1.00
H57    H     0.02890   0.35005   0.19681   0.00000  Uiso   1.00
H58    H     0.32511   0.17472   0.26034   0.00000  Uiso   1.00
H59    H     0.49002   0.38386   0.22975   0.00000  Uiso   1.00
H60    H     0.47522   0.36525   0.16881   0.00000  Uiso   1.00
H61    H     0.00272   0.23125   0.26842   0.00000  Uiso   1.00
H62    H     0.05340   0.19739   0.28133   0.00000  Uiso   1.00
H63    H     0.00061   0.16855   0.28259   0.00000  Uiso   1.00
H64    H     0.08013   0.38237   0.10960   0.00000  Uiso   1.00
H65    H     0.13805   0.38940   0.12246   0.00000  Uiso   1.00
H66    H     0.10391   0.36545   0.16928   0.00000  Uiso   1.00
H67    H     0.41978   0.12625   0.09952   0.00000  Uiso   1.00
H68    H     0.39903   0.13580   0.16061   0.00000  Uiso   1.00
H69    H     0.34318   0.11619   0.27556   0.00000  Uiso   1.00
H70    H     0.36277   0.11661   0.11158   0.00000  Uiso   1.00
H71    H     0.34943   0.37230   0.22631   0.00000  Uiso   1.00
H72    H     0.37737   0.36165   0.17050   0.00000  Uiso   1.00
H73    H     0.40799   0.38012   0.22552   0.00000  Uiso   1.00
H74    H     0.07801   0.12098   0.22722   0.00000  Uiso   1.00
H75    H     0.09741   0.13184   0.16528   0.00000  Uiso   1.00
H76    H     0.13476   0.11280   0.21403   0.00000  Uiso   1.00
H77    H     0.37743   0.06043   0.22149   0.00000  Uiso   1.00
H78    H     0.37137   0.49768   0.23023   0.00000  Uiso   1.00
H79    H     0.33148   0.03627   0.25645   0.00000  Uiso   1.00
H80    H     0.23062   0.35174   0.01888   0.00000  Uiso   1.00
H81    H     0.23776   0.03753   0.06659   0.00000  Uiso   1.00
H82    H     0.19864   0.48808   0.07362   0.00000  Uiso   1.00
H83    H     0.23009   0.49459   0.02012   0.00000  Uiso   1.00
H84    H     0.11669   0.01667   0.18689   0.00000  Uiso   1.00
H85    H     0.16560   0.02744   0.22362   0.00000  Uiso   1.00
H86    H     0.15933   0.47240   0.18930   0.00000  Uiso   1.00
H87    H     0.29374   0.48368   0.30938   0.00000  Uiso   1.00
H88    H     0.31319   0.44502   0.26316   0.00000  Uiso   1.00
H89    H     0.27436   0.42350   0.30795   0.00000  Uiso   1.00
H90    H     0.21635   0.41057   0.03597   0.00000  Uiso   1.00
H91    H     0.19662   0.35964   0.07086   0.00000  Uiso   1.00
H92    H     0.21220   0.12966   0.06209   0.00000  Uiso   1.00
H93    H     0.15567   0.14912   0.05962   0.00000  Uiso   1.00
H94    H     0.16721   0.08663   0.06698   0.00000  Uiso   1.00
N95    N     0.25000   0.12935   0.16667   0.00000  Uiso   1.00
N96    N     0.25000   0.37066   0.16667   0.00000  Uiso   1.00
O97    O     0.18573   0.29071   0.16667   0.00000  Uiso   1.00
O98    O     0.26438   0.37514   0.08032   0.00000  Uiso   1.00
O99    O     0.17824   0.12874   0.12848   0.00000  Uiso   1.00
O100   O     0.22934   0.37232   0.25088   0.00000  Uiso   1.00
O101   O     0.02414   0.31483   0.09770   0.00000  Uiso   1.00
O102   O     0.47412   0.19423   0.09769   0.00000  Uiso   1.00
O103   O     0.47696   0.31205   0.22567   0.00000  Uiso   1.00
O104   O     0.02127   0.18444   0.21370   0.00000  Uiso   1.00
O105   O     0.11814   0.32021   0.11011   0.00000  Uiso   1.00
O106   O     0.38077   0.18715   0.10582   0.00000  Uiso   1.00
O107   O     0.38566   0.31016   0.22821   0.00000  Uiso   1.00
O108   O     0.31427   0.20929   0.16666   0.00000  Uiso   1.00
O109   O     0.11541   0.18270   0.21920   0.00000  Uiso   1.00
O110   O     0.32827   0.02810   0.17951   0.00000  Uiso   1.00
O111   O     0.26747   0.47197   0.08053   0.00000  Uiso   1.00
O112   O     0.17091   0.03200   0.14585   0.00000  Uiso   1.00
O113   O     0.24692   0.46994   0.25502   0.00000  Uiso   1.00
O114   O     0.31427   0.29072   0.16666   0.00000  Uiso   1.00
O115   O     0.18573   0.20929   0.16667   0.00000  Uiso   1.00
O116   O     0.25000   0.29071   0.09613   0.00000  Uiso   1.00
O117   O     0.25000   0.20929   0.23720   0.00000  Uiso   1.00
O118   O     0.25000   0.29071   0.23720   0.00000  Uiso   1.00
O119   O     0.25000   0.20929   0.09613   0.00000  Uiso   1.00
O120   O     0.32303   0.12745   0.20301   0.00000  Uiso   1.00
C121   C     0.66495   0.25012   0.16615   0.00000  Uiso   1.00
C122   C     0.74691   0.44638   0.21063   0.00000  Uiso   1.00
C123   C     0.74993   0.25018   0.07360   0.00000  Uiso   1.00
C124   C     0.75002   0.24979   0.25973   0.00000  Uiso   1.00
C125   C     0.74959   0.02755   0.16857   0.00000  Uiso   1.00
C126   C     0.75014   0.47342   0.16719   0.00000  Uiso   1.00
C127   C     0.74998   0.25019   0.02185   0.00000  Uiso   1.00
C128   C     0.75000   0.24966   0.31148   0.00000  Uiso   1.00
C129   C     0.54745   0.28406   0.12941   0.00000  Uiso   1.00
C130   C     0.95139   0.22315   0.12916   0.00000  Uiso   1.00
C131   C     0.95354   0.28522   0.19146   0.00000  Uiso   1.00
C132   C     0.83495   0.25002   0.16657   0.00000  Uiso   1.00
C133   C     0.54587   0.21824   0.18907   0.00000  Uiso   1.00
C134   C     0.59396   0.28592   0.13489   0.00000  Uiso   1.00
C135   C     0.90524   0.21918   0.13382   0.00000  Uiso   1.00
C136   C     0.90728   0.28370   0.19356   0.00000  Uiso   1.00
C137   C     0.59247   0.21551   0.18936   0.00000  Uiso   1.00
C138   C     0.61636   0.25062   0.16369   0.00000  Uiso   1.00
C139   C     0.88328   0.25064   0.16486   0.00000  Uiso   1.00
C140   C     0.52386   0.25267   0.15944   0.00000  Uiso   1.00
C141   C     0.97539   0.25468   0.15922   0.00000  Uiso   1.00
C142   C     0.81796   0.13651   0.25356   0.00000  Uiso   1.00
C143   C     0.78648   0.10377   0.18432   0.00000  Uiso   1.00
C144   C     0.72506   0.37478   0.05083   0.00000  Uiso   1.00
C145   C     0.67888   0.12285   0.07719   0.00000  Uiso   1.00
C146   C     0.68322   0.37752   0.25532   0.00000  Uiso   1.00
C147   C     0.53574   0.30653   0.04862   0.00000  Uiso   1.00
C148   C     0.96398   0.20804   0.04866   0.00000  Uiso   1.00
C149   C     0.99316   0.35420   0.20351   0.00000  Uiso   1.00
C150   C     0.51985   0.19655   0.26357   0.00000  Uiso   1.00
C151   C     0.60923   0.36594   0.12902   0.00000  Uiso   1.00
C152   C     0.89154   0.13978   0.12046   0.00000  Uiso   1.00
C153   C     0.88037   0.35785   0.21129   0.00000  Uiso   1.00
C154   C     0.75597   0.39733   0.12391   0.00000  Uiso   1.00
C155   C     0.60539   0.13543   0.20526   0.00000  Uiso   1.00
C156   C     0.85260   0.03144   0.22414   0.00000  Uiso   1.00
C157   C     0.73167   0.49907   0.06035   0.00000  Uiso   1.00
C158   C     0.65309   0.01146   0.18860   0.00000  Uiso   1.00
C159   C     0.78360   0.45441   0.28459   0.00000  Uiso   1.00
C160   C     0.71360   0.10446   0.15005   0.00000  Uiso   1.00
C161   C     0.74199   0.39578   0.20883   0.00000  Uiso   1.00
C162   C     0.78838   0.05290   0.18036   0.00000  Uiso   1.00
C163   C     0.75563   0.44831   0.12334   0.00000  Uiso   1.00
C164   C     0.71075   0.05423   0.15704   0.00000  Uiso   1.00
Cu165  Cu    0.75000   0.29822   0.16667   0.00000  Uiso   1.00
Cu166  Cu    0.75000   0.20179   0.16667   0.00000  Uiso   1.00
H167   H     0.78468   0.12788   0.26810   0.00000  Uiso   1.00
H168   H     0.67234   0.35414   0.28586   0.00000  Uiso   1.00
H169   H     0.66497   0.36604   0.22163   0.00000  Uiso   1.00
H170   H     0.67433   0.41488   0.26433   0.00000  Uiso   1.00
H171   H     0.54305   0.26828   0.04128   0.00000  Uiso   1.00
H172   H     0.56434   0.32896   0.03840   0.00000  Uiso   1.00
H173   H     0.50748   0.31735   0.02407   0.00000  Uiso   1.00
H174   H     0.93532   0.18747   0.03401   0.00000  Uiso   1.00
H175   H     0.99291   0.19925   0.02661   0.00000  Uiso   1.00
H176   H     0.95753   0.24708   0.04363   0.00000  Uiso   1.00
H177   H     0.52890   0.35005   0.19681   0.00000  Uiso   1.00
H178   H     0.82511   0.17472   0.26034   0.00000  Uiso   1.00
H179   H     0.99002   0.38386   0.22975   0.00000  Uiso   1.00
H180   H     0.97522   0.36525   0.16881   0.00000  Uiso   1.00
H181   H     0.50272   0.23125   0.26842   0.00000  Uiso   1.00
H182   H     0.55340   0.19739   0.28133   0.00000  Uiso   1.00
H183   H     0.50061   0.16855   0.28259   0.00000  Uiso   1.00
H184   H     0.58013   0.38237   0.10960   0.00000  Uiso   1.00
H185   H     0.63805   0.38940   0.12246   0.00000  Uiso   1.00
H186   H     0.60391   0.36545   0.16928   0.00000  Uiso   1.00
H187   H     0.91978   0.12625   0.09952   0.00000  Uiso   1.00
H188   H     0.89903   0.13580   0.16061   0.00000  Uiso   1.00
H189   H     0.84318   0.11619   0.27556   0.00000  Uiso   1.00
H190   H     0.86277   0.11661   0.11158   0.00000  Uiso   1.00
H191   H     0.84943   0.37230   0.22631   0.00000  Uiso   1.00
H192   H     0.87737   0.36165   0.17050   0.00000  Uiso   1.00
H193   H     0.90799   0.38012   0.22552   0.00000  Uiso   1.00
H194   H     0.57801   0.12098   0.22722   0.00000  Uiso   1.00
H195   H     0.59741   0.13184   0.16528   0.00000  Uiso   1.00
H196   H     0.63476   0.11280   0.21403   0.00000  Uiso   1.00
H197   H     0.87743   0.06043   0.22149   0.00000  Uiso   1.00
H198   H     0.87137   0.49768   0.23023   0.00000  Uiso   1.00
H199   H     0.83148   0.03627   0.25645   0.00000  Uiso   1.00
H200   H     0.73062   0.35174   0.01888   0.00000  Uiso   1.00
H201   H     0.73776   0.03753   0.06659   0.00000  Uiso   1.00
H202   H     0.69864   0.48808   0.07362   0.00000  Uiso   1.00
H203   H     0.73009   0.49459   0.02012   0.00000  Uiso   1.00
H204   H     0.61669   0.01667   0.18689   0.00000  Uiso   1.00
H205   H     0.66560   0.02744   0.22362   0.00000  Uiso   1.00
H206   H     0.65933   0.47240   0.18930   0.00000  Uiso   1.00
H207   H     0.79374   0.48368   0.30938   0.00000  Uiso   1.00
H208   H     0.81319   0.44502   0.26316   0.00000  Uiso   1.00
H209   H     0.77436   0.42350   0.30795   0.00000  Uiso   1.00
H210   H     0.71635   0.41057   0.03597   0.00000  Uiso   1.00
H211   H     0.69662   0.35964   0.07086   0.00000  Uiso   1.00
H212   H     0.71220   0.12966   0.06209   0.00000  Uiso   1.00
H213   H     0.65567   0.14912   0.05962   0.00000  Uiso   1.00
H214   H     0.66721   0.08663   0.06698   0.00000  Uiso   1.00
N215   N     0.75000   0.12935   0.16667   0.00000  Uiso   1.00
N216   N     0.75000   0.37066   0.16667   0.00000  Uiso   1.00
O217   O     0.68573   0.29071   0.16667   0.00000  Uiso   1.00
O218   O     0.76438   0.37514   0.08032   0.00000  Uiso   1.00
O219   O     0.67824   0.12874   0.12848   0.00000  Uiso   1.00
O220   O     0.72934   0.37232   0.25088   0.00000  Uiso   1.00
O221   O     0.52414   0.31483   0.09770   0.00000  Uiso   1.00
O222   O     0.97412   0.19423   0.09769   0.00000  Uiso   1.00
O223   O     0.97696   0.31205   0.22567   0.00000  Uiso   1.00
O224   O     0.52127   0.18444   0.21370   0.00000  Uiso   1.00
O225   O     0.61814   0.32021   0.11011   0.00000  Uiso   1.00
O226   O     0.88077   0.18715   0.10582   0.00000  Uiso   1.00
O227   O     0.88566   0.31016   0.22821   0.00000  Uiso   1.00
O228   O     0.81427   0.20929   0.16666   0.00000  Uiso   1.00
O229   O     0.61541   0.18270   0.21920   0.00000  Uiso   1.00
O230   O     0.82827   0.02810   0.17951   0.00000  Uiso   1.00
O231   O     0.76747   0.47197   0.08053   0.00000  Uiso   1.00
O232   O     0.67091   0.03200   0.14585   0.00000  Uiso   1.00
O233   O     0.74692   0.46994   0.25502   0.00000  Uiso   1.00
O234   O     0.81427   0.29072   0.16666   0.00000  Uiso   1.00
O235   O     0.68573   0.20929   0.16667   0.00000  Uiso   1.00
O236   O     0.75000   0.29071   0.09613   0.00000  Uiso   1.00
O237   O     0.75000   0.20929   0.23720   0.00000  Uiso   1.00
O238   O     0.75000   0.29071   0.23720   0.00000  Uiso   1.00
O239   O     0.75000   0.20929   0.09613   0.00000  Uiso   1.00
O240   O     0.82303   0.12745   0.20301   0.00000  Uiso   1.00
C241   C     0.16495   0.75012   0.16615   0.00000  Uiso   1.00
C242   C     0.24691   0.94638   0.21063   0.00000  Uiso   1.00
C243   C     0.24993   0.75018   0.07360   0.00000  Uiso   1.00
C244   C     0.25002   0.74979   0.25973   0.00000  Uiso   1.00
C245   C     0.24959   0.52755   0.16857   0.00000  Uiso   1.00
C246   C     0.25014   0.97342   0.16719   0.00000  Uiso   1.00
C247   C     0.24998   0.75019   0.02185   0.00000  Uiso   1.00
C248   C     0.25000   0.74966   0.31148   0.00000  Uiso   1.00
C249   C     0.04745   0.78406   0.12941   0.00000  Uiso   1.00
C250   C     0.45139   0.72315   0.12916   0.00000  Uiso   1.00
C251   C     0.45354   0.78522   0.19146   0.00000  Uiso   1.00
C252   C     0.33495   0.75002   0.16657   0.00000  Uiso   1.00
C253   C     0.04587   0.71824   0.18907   0.00000  Uiso   1.00
C254   C     0.09396   0.78592   0.13489   0.00000  Uiso   1.00
C255   C     0.40524   0.71918   0.13382   0.00000  Uiso   1.00
C256   C     0.40728   0.78370   0.19356   0.00000  Uiso   1.00
C257   C     0.09247   0.71551   0.18936   0.00000  Uiso   1.00
C258   C     0.11636   0.75062   0.16369   0.00000  Uiso   1.00
C259   C     0.38328   0.75064   0.16486   0.00000  Uiso   1.00
C260   C     0.02386   0.75267   0.15944   0.00000  Uiso   1.00
C261   C     0.47539   0.75468   0.15922   0.00000  Uiso   1.00
C262   C     0.31796   0.63651   0.25356   0.00000  Uiso   1.00
C263   C     0.28648   0.60377   0.18432   0.00000  Uiso   1.00
C264   C     0.22506   0.87478   0.05083   0.00000  Uiso   1.00
C265   C     0.17888   0.62285   0.07719   0.00000  Uiso   1.00
C266   C     0.18322   0.87752   0.25532   0.00000  Uiso   1.00
C267   C     0.03574   0.80653   0.04862   0.00000  Uiso   1.00
C268   C     0.46398   0.70804   0.04866   0.00000  Uiso   1.00
C269   C     0.49316   0.85420   0.20351   0.00000  Uiso   1.00
C270   C     0.01985   0.69655   0.26357   0.00000  Uiso   1.00
C271   C     0.10923   0.86594   0.12902   0.00000  Uiso   1.00
C272   C     0.39154   0.63978   0.12046   0.00000  Uiso   1.00
C273   C     0.38037   0.85785   0.21129   0.00000  Uiso   1.00
C274   C     0.25597   0.89733   0.12391   0.00000  Uiso   1.00
C275   C     0.10539   0.63543   0.20526   0.00000  Uiso   1.00
C276   C     0.35260   0.53144   0.22414   0.00000  Uiso   1.00
C277   C     0.23167   0.99907   0.06035   0.00000  Uiso   1.00
C278   C     0.15309   0.51146   0.18860   0.00000  Uiso   1.00
C279   C     0.28360   0.95441   0.28459   0.00000  Uiso   1.00
C280   C     0.21360   0.60446   0.15005   0.00000  Uiso   1.00
C281   C     0.24199   0.89578   0.20883   0.00000  Uiso   1.00
C282   C     0.28838   0.55290   0.18036   0.00000  Uiso   1.00
C283   C     0.25563   0.94831   0.12334   0.00000  Uiso   1.00
C284   C     0.21075   0.55423   0.15704   0.00000  Uiso   1.00
Cu285  Cu    0.25000   0.79822   0.16667   0.00000  Uiso   1.00
Cu286  Cu    0.25000   0.70179   0.16667   0.00000  Uiso   1.00
H287   H     0.28468   0.62788   0.26810   0.00000  Uiso   1.00
H288   H     0.17234   0.85414   0.28586   0.00000  Uiso   1.00
H289   H     0.16497   0.86604   0.22163   0.00000  Uiso   1.00
H290   H     0.17433   0.91488   0.26433   0.00000  Uiso   1.00
H291   H     0.04305   0.76828   0.04128   0.00000  Uiso   1.00
H292   H     0.06434   0.82896   0.03840   0.00000  Uiso   1.00
H293   H     0.00748   0.81735   0.02407   0.00000  Uiso   1.00
H294   H     0.43532   0.68747   0.03401   0.00000  Uiso   1.00
H295   H     0.49291   0.69925   0.02661   0.00000  Uiso   1.00
H296   H     0.45753   0.74708   0.04363   0.00000  Uiso   1.00
H297   H     0.02890   0.85005   0.19681   0.00000  Uiso   1.00
H298   H     0.32511   0.67472   0.26034   0.00000  Uiso   1.00
H299   H     0.49002   0.88386   0.22975   0.00000  Uiso   1.00
H300   H     0.47522   0.86525   0.16881   0.00000  Uiso   1.00
H301   H     0.00272   0.73125   0.26842   0.00000  Uiso   1.00
H302   H     0.05340   0.69739   0.28133   0.00000  Uiso   1.00
H303   H     0.00061   0.66855   0.28259   0.00000  Uiso   1.00
H304   H     0.08013   0.88237   0.10960   0.00000  Uiso   1.00
H305   H     0.13805   0.88940   0.12246   0.00000  Uiso   1.00
H306   H     0.10391   0.86545   0.16928   0.00000  Uiso   1.00
H307   H     0.41978   0.62625   0.09952   0.00000  Uiso   1.00
H308   H     0.39903   0.63580   0.16061   0.00000  Uiso   1.00
H309   H     0.34318   0.61619   0.27556   0.00000  Uiso   1.00
H310   H     0.36277   0.61661   0.11158   0.00000  Uiso   1.00
H311   H     0.34943   0.87230   0.22631   0.00000  Uiso   1.00
H312   H     0.37737   0.86165   0.17050   0.00000  Uiso   1.00
H313   H     0.40799   0.88012   0.22552   0.00000  Uiso   1.00
H314   H     0.07801   0.62098   0.22722   0.00000  Uiso   1.00
H315   H     0.09741   0.63184   0.16528   0.00000  Uiso   1.00
H316   H     0.13476   0.61280   0.21403   0.00000  Uiso   1.00
H317   H     0.37743   0.56043   0.22149   0.00000  Uiso   1.00
H318   H     0.37137   0.99768   0.23023   0.00000  Uiso   1.00
H319   H     0.33148   0.53627   0.25645   0.00000  Uiso   1.00
H320   H     0.23062   0.85174   0.01888   0.00000  Uiso   1.00
H321   H     0.23776   0.53753   0.06659   0.00000  Uiso   1.00
H322   H     0.19864   0.98808   0.07362   0.00000  Uiso   1.00
H323   H     0.23009   0.99459   0.02012   0.00000  Uiso   1.00
H324   H     0.11669   0.51667   0.18689   0.00000  Uiso   1.00
H325   H     0.16560   0.52744   0.22362   0.00000  Uiso   1.00
H326   H     0.15933   0.97240   0.18930   0.00000  Uiso   1.00
H327   H     0.29374   0.98368   0.30938   0.00000  Uiso   1.00
H328   H     0.31319   0.94502   0.26316   0.00000  Uiso   1.00
H329   H     0.27436   0.92350   0.30795   0.00000  Uiso   1.00
H330   H     0.21635   0.91057   0.03597   0.00000  Uiso   1.00
H331   H     0.19662   0.85964   0.07086   0.00000  Uiso   1.00
H332   H     0.21220   0.62966   0.06209   0.00000  Uiso   1.00
H333   H     0.15567   0.64912   0.05962   0.00000  Uiso   1.00
H334   H     0.16721   0.58663   0.06698   0.00000  Uiso   1.00
N335   N     0.25000   0.62935   0.16667   0.00000  Uiso   1.00
N336   N     0.25000   0.87066   0.16667   0.00000  Uiso   1.00
O337   O     0.18573   0.79071   0.16667   0.00000  Uiso   1.00
O338   O     0.26438   0.87514   0.08032   0.00000  Uiso   1.00
O339   O     0.17824   0.62874   0.12848   0.00000  Uiso   1.00
O340   O     0.22934   0.87232   0.25088   0.00000  Uiso   1.00
O341   O     0.02414   0.81483   0.09770   0.00000  Uiso   1.00
O342   O     0.47412   0.69423   0.09769   0.00000  Uiso   1.00
O343   O     0.47696   0.81205   0.22567   0.00000  Uiso   1.00
O344   O     0.02127   0.68444   0.21370   0.00000  Uiso   1.00
O345   O     0.11814   0.82021   0.11011   0.00000  Uiso   1.00
O346   O     0.38077   0.68715   0.10582   0.00000  Uiso   1.00
O347   O     0.38566   0.81016   0.22821   0.00000  Uiso   1.00
O348   O     0.31427   0.70929   0.16666   0.00000  Uiso   1.00
O349   O     0.11541   0.68270   0.21920   0.00000  Uiso   1.00
O350   O     0.32827   0.52810   0.17951   0.00000  Uiso   1.00
O351   O     0.26747   0.97197   0.08053   0.00000  Uiso   1.00
O352   O     0.17091   0.53200   0.14585   0.00000  Uiso   1.00
O353   O     0.24692   0.96994   0.25502   0.00000  Uiso   1.00
O354   O     0.31427   0.79072   0.16666   0.00000  Uiso   1.00
O355   O     0.18573   0.70929   0.16667   0.00000  Uiso   1.00
O356   O     0.25000   0.79071   0.09613   0.00000  Uiso   1.00
O357   O     0.25000   0.70929   0.23720   0.00000  Uiso   1.00
O358   O     0.25000   0.79071   0.23720   0.00000  Uiso   1.00
O359   O     0.25000   0.70929   0.09613   0.00000  Uiso   1.00
O360   O     0.32303   0.62745   0.20301   0.00000  Uiso   1.00
C361   C     0.66495   0.75012   0.16615   0.00000  Uiso   1.00
C362   C     0.74691   0.94638   0.21063   0.00000  Uiso   1.00
C363   C     0.74993   0.75018   0.07360   0.00000  Uiso   1.00
C364   C     0.75002   0.74979   0.25973   0.00000  Uiso   1.00
C365   C     0.74959   0.52755   0.16857   0.00000  Uiso   1.00
C366   C     0.75014   0.97342   0.16719   0.00000  Uiso   1.00
C367   C     0.74998   0.75019   0.02185   0.00000  Uiso   1.00
C368   C     0.75000   0.74966   0.31148   0.00000  Uiso   1.00
C369   C     0.54745   0.78406   0.12941   0.00000  Uiso   1.00
C370   C     0.95139   0.72315   0.12916   0.00000  Uiso   1.00
C371   C     0.95354   0.78522   0.19146   0.00000  Uiso   1.00
C372   C     0.83495   0.75002   0.16657   0.00000  Uiso   1.00
C373   C     0.54587   0.71824   0.18907   0.00000  Uiso   1.00
C374   C     0.59396   0.78592   0.13489   0.00000  Uiso   1.00
C375   C     0.90524   0.71918   0.13382   0.00000  Uiso   1.00
C376   C     0.90728   0.78370   0.19356   0.00000  Uiso   1.00
C377   C     0.59247   0.71551   0.18936   0.00000  Uiso   1.00
C378   C     0.61636   0.75062   0.16369   0.00000  Uiso   1.00
C379   C     0.88328   0.75064   0.16486   0.00000  Uiso   1.00
C380   C     0.52386   0.75267   0.15944   0.00000  Uiso   1.00
C381   C     0.97539   0.75468   0.15922   0.00000  Uiso   1.00
C382   C     0.81796   0.63651   0.25356   0.00000  Uiso   1.00
C383   C     0.78648   0.60377   0.18432   0.00000  Uiso   1.00
C384   C     0.72506   0.87478   0.05083   0.00000  Uiso   1.00
C385   C     0.67888   0.62285   0.07719   0.00000  Uiso   1.00
C386   C     0.68322   0.87752   0.25532   0.00000  Uiso   1.00
C387   C     0.53574   0.80653   0.04862   0.00000  Uiso   1.00
C388   C     0.96398   0.70804   0.04866   0.00000  Uiso   1.00
C389   C     0.99316   0.85420   0.20351   0.00000  Uiso   1.00
C390   C     0.51985   0.69655   0.26357   0.00000  Uiso   1.00
C391   C     0.60923   0.86594   0.12902   0.00000  Uiso   1.00
C392   C     0.89154   0.63978   0.12046   0.00000  Uiso   1.00
C393   C     0.88037   0.85785   0.21129   0.00000  Uiso   1.00
C394   C     0.75597   0.89733   0.12391   0.00000  Uiso   1.00
C395   C     0.60539   0.63543   0.20526   0.00000  Uiso   1.00
C396   C     0.85260   0.53144   0.22414   0.00000  Uiso   1.00
C397   C     0.73167   0.99907   0.06035   0.00000  Uiso   1.00
C398   C     0.65309   0.51146   0.18860   0.00000  Uiso   1.00
C399   C     0.78360   0.95441   0.28459   0.00000  Uiso   1.00
C400   C     0.71360   0.60446   0.15005   0.00000  Uiso   1.00
C401   C     0.74199   0.89578   0.20883   0.00000  Uiso   1.00
C402   C     0.78838   0.55290   0.18036   0.00000  Uiso   1.00
C403   C     0.75563   0.94831   0.12334   0.00000  Uiso   1.00
C404   C     0.71075   0.55423   0.15704   0.00000  Uiso   1.00
Cu405  Cu    0.75000   0.79822   0.16667   0.00000  Uiso   1.00
Cu406  Cu    0.75000   0.70179   0.16667   0.00000  Uiso   1.00
H407   H     0.78468   0.62788   0.26810   0.00000  Uiso   1.00
H408   H     0.67234   0.85414   0.28586   0.00000  Uiso   1.00
H409   H     0.66497   0.86604   0.22163   0.00000  Uiso   1.00
H410   H     0.67433   0.91488   0.26433   0.00000  Uiso   1.00
H411   H     0.54305   0.76828   0.04128   0.00000  Uiso   1.00
H412   H     0.56434   0.82896   0.03840   0.00000  Uiso   1.00
H413   H     0.50748   0.81735   0.02407   0.00000  Uiso   1.00
H414   H     0.93532   0.68747   0.03401   0.00000  Uiso   1.00
H415   H     0.99291   0.69925   0.02661   0.00000  Uiso   1.00
H416   H     0.95753   0.74708   0.04363   0.00000  Uiso   1.00
H417   H     0.52890   0.85005   0.19681   0.00000  Uiso   1.00
H418   H     0.82511   0.67472   0.26034   0.00000  Uiso   1.00
H419   H     0.99002   0.88386   0.22975   0.00000  Uiso   1.00
H420   H     0.97522   0.86525   0.16881   0.00000  Uiso   1.00
H421   H     0.50272   0.73125   0.26842   0.00000  Uiso   1.00
H422   H     0.55340   0.69739   0.28133   0.00000  Uiso   1.00
H423   H     0.50061   0.66855   0.28259   0.00000  Uiso   1.00
H424   H     0.58013   0.88237   0.10960   0.00000  Uiso   1.00
H425   H     0.63805   0.88940   0.12246   0.00000  Uiso   1.00
H426   H     0.60391   0.86545   0.16928   0.00000  Uiso   1.00
H427   H     0.91978   0.62625   0.09952   0.00000  Uiso   1.00
H428   H     0.89903   0.63580   0.16061   0.00000  Uiso   1.00
H429   H     0.84318   0.61619   0.27556   0.00000  Uiso   1.00
H430   H     0.86277   0.61661   0.11158   0.00000  Uiso   1.00
H431   H     0.84943   0.87230   0.22631   0.00000  Uiso   1.00
H432   H     0.87737   0.86165   0.17050   0.00000  Uiso   1.00
H433   H     0.90799   0.88012   0.22552   0.00000  Uiso   1.00
H434   H     0.57801   0.62098   0.22722   0.00000  Uiso   1.00
H435   H     0.59741   0.63184   0.16528   0.00000  Uiso   1.00
H436   H     0.63476   0.61280   0.21403   0.00000  Uiso   1.00
H437   H     0.87743   0.56043   0.22149   0.00000  Uiso   1.00
H438   H     0.87137   0.99768   0.23023   0.00000  Uiso   1.00
H439   H     0.83148   0.53627   0.25645   0.00000  Uiso   1.00
H440   H     0.73062   0.85174   0.01888   0.00000  Uiso   1.00
H441   H     0.73776   0.53753   0.06659   0.00000  Uiso   1.00
H442   H     0.69864   0.98808   0.07362   0.00000  Uiso   1.00
H443   H     0.73009   0.99459   0.02012   0.00000  Uiso   1.00
H444   H     0.61669   0.51667   0.18689   0.00000  Uiso   1.00
H445   H     0.66560   0.52744   0.22362   0.00000  Uiso   1.00
H446   H     0.65933   0.97240   0.18930   0.00000  Uiso   1.00
H447   H     0.79374   0.98368   0.30938   0.00000  Uiso   1.00
H448   H     0.81319   0.94502   0.26316   0.00000  Uiso   1.00
H449   H     0.77436   0.92350   0.30795   0.00000  Uiso   1.00
H450   H     0.71635   0.91057   0.03597   0.00000  Uiso   1.00
H451   H     0.69662   0.85964   0.07086   0.00000  Uiso   1.00
H452   H     0.71220   0.62966   0.06209   0.00000  Uiso   1.00
H453   H     0.65567   0.64912   0.05962   0.00000  Uiso   1.00
H454   H     0.66721   0.58663   0.06698   0.00000  Uiso   1.00
N455   N     0.75000   0.62935   0.16667   0.00000  Uiso   1.00
N456   N     0.75000   0.87066   0.16667   0.00000  Uiso   1.00
O457   O     0.68573   0.79071   0.16667   0.00000  Uiso   1.00
O458   O     0.76438   0.87514   0.08032   0.00000  Uiso   1.00
O459   O     0.67824   0.62874   0.12848   0.00000  Uiso   1.00
O460   O     0.72934   0.87232   0.25088   0.00000  Uiso   1.00
O461   O     0.52414   0.81483   0.09770   0.00000  Uiso   1.00
O462   O     0.97412   0.69423   0.09769   0.00000  Uiso   1.00
O463   O     0.97696   0.81205   0.22567   0.00000  Uiso   1.00
O464   O     0.52127   0.68444   0.21370   0.00000  Uiso   1.00
O465   O     0.61814   0.82021   0.11011   0.00000  Uiso   1.00
O466   O     0.88077   0.68715   0.10582   0.00000  Uiso   1.00
O467   O     0.88566   0.81016   0.22821   0.00000  Uiso   1.00
O468   O     0.81427   0.70929   0.16666   0.00000  Uiso   1.00
O469   O     0.61541   0.68270   0.21920   0.00000  Uiso   1.00
O470   O     0.82827   0.52810   0.17951   0.00000  Uiso   1.00
O471   O     0.76747   0.97197   0.08053   0.00000  Uiso   1.00
O472   O     0.67091   0.53200   0.14585   0.00000  Uiso   1.00
O473   O     0.74692   0.96994   0.25502   0.00000  Uiso   1.00
O474   O     0.81427   0.79072   0.16666   0.00000  Uiso   1.00
O475   O     0.68573   0.70929   0.16667   0.00000  Uiso   1.00
O476   O     0.75000   0.79071   0.09613   0.00000  Uiso   1.00
O477   O     0.75000   0.70929   0.23720   0.00000  Uiso   1.00
O478   O     0.75000   0.79071   0.23720   0.00000  Uiso   1.00
O479   O     0.75000   0.70929   0.09613   0.00000  Uiso   1.00
O480   O     0.82303   0.62745   0.20301   0.00000  Uiso   1.00
C481   C     0.16495   0.25012   0.49948   0.00000  Uiso   1.00
C482   C     0.24691   0.44638   0.54397   0.00000  Uiso   1.00
C483   C     0.24993   0.25018   0.40693   0.00000  Uiso   1.00
C484   C     0.25002   0.24979   0.59307   0.00000  Uiso   1.00
C485   C     0.24959   0.02755   0.50190   0.00000  Uiso   1.00
C486   C     0.25014   0.47342   0.50053   0.00000  Uiso   1.00
C487   C     0.24998   0.25019   0.35518   0.00000  Uiso   1.00
C488   C     0.25000   0.24966   0.64481   0.00000  Uiso   1.00
C489   C     0.04745   0.28406   0.46274   0.00000  Uiso   1.00
C490   C     0.45139   0.22315   0.46249   0.00000  Uiso   1.00
C491   C     0.45354   0.28522   0.52479   0.00000  Uiso   1.00
C492   C     0.33495   0.25002   0.49991   0.00000  Uiso   1.00
C493   C     0.04587   0.21824   0.52240   0.00000  Uiso   1.00
C494   C     0.09396   0.28592   0.46822   0.00000  Uiso   1.00
C495   C     0.40524   0.21918   0.46715   0.00000  Uiso   1.00
C496   C     0.40728   0.28370   0.52689   0.00000  Uiso   1.00
C497   C     0.09247   0.21551   0.52270   0.00000  Uiso   1.00
C498   C     0.11636   0.25062   0.49702   0.00000  Uiso   1.00
C499   C     0.38328   0.25064   0.49820   0.00000  Uiso   1.00
C500   C     0.02386   0.25267   0.49278   0.00000  Uiso   1.00
C501   C     0.47539   0.25468   0.49256   0.00000  Uiso   1.00
C502   C     0.31796   0.13651   0.58690   0.00000  Uiso   1.00
C503   C     0.28648   0.10377   0.51766   0.00000  Uiso   1.00
C504   C     0.22506   0.37478   0.38417   0.00000  Uiso   1.00
C505   C     0.17888   0.12285   0.41053   0.00000  Uiso   1.00
C506   C     0.18322   0.37752   0.58866   0.00000  Uiso   1.00
C507   C     0.03574   0.30653   0.38196   0.00000  Uiso   1.00
C508   C     0.46398   0.20804   0.38200   0.00000  Uiso   1.00
C509   C     0.49316   0.35420   0.53685   0.00000  Uiso   1.00
C510   C     0.01985   0.19655   0.59690   0.00000  Uiso   1.00
C511   C     0.10923   0.36594   0.46235   0.00000  Uiso   1.00
C512   C     0.39154   0.13978   0.45379   0.00000  Uiso   1.00
C513   C     0.38037   0.35785   0.54462   0.00000  Uiso   1.00
C514   C     0.25597   0.39733   0.45725   0.00000  Uiso   1.00
C515   C     0.10539   0.13543   0.53859   0.00000  Uiso   1.00
C516   C     0.35260   0.03144   0.55747   0.00000  Uiso   1.00
C517   C     0.23167   0.49907   0.39368   0.00000  Uiso   1.00
C518   C     0.15309   0.01146   0.52194   0.00000  Uiso   1.00
C519   C     0.28360   0.45441   0.61792   0.00000  Uiso   1.00
C520   C     0.21360   0.10446   0.48339   0.00000  Uiso   1.00
C521   C     0.24199   0.39578   0.54216   0.00000  Uiso   1.00
C522   C     0.28838   0.05290   0.51369   0.00000  Uiso   1.00
C523   C     0.25563   0.44831   0.45668   0.00000  Uiso   1.00
C524   C     0.21075   0.05423   0.49038   0.00000  Uiso   1.00
Cu525  Cu    0.25000   0.29822   0.50000   0.00000  Uiso   1.00
Cu526  Cu    0.25000   0.20179   0.50000   0.00000  Uiso   1.00
H527   H     0.28468   0.12788   0.60144   0.00000  Uiso   1.00
H528   H     0.17234   0.35414   0.61919   0.00000  Uiso   1.00
H529   H     0.16497   0.36604   0.55497   0.00000  Uiso   1.00
H530   H     0.17433   0.41488   0.59766   0.00000  Uiso   1.00
H531   H     0.04305   0.26828   0.37461   0.00000  Uiso   1.00
H532   H     0.06434   0.32896   0.37173   0.00000  Uiso   1.00
H533   H     0.00748   0.31735   0.35741   0.00000  Uiso   1.00
H534   H     0.43532   0.18747   0.36734   0.00000  Uiso   1.00
H535   H     0.49291   0.19925   0.35994   0.00000  Uiso   1.00
H536   H     0.45753   0.24708   0.37697   0.00000  Uiso   1.00
H537   H     0.02890   0.35005   0.53015   0.00000  Uiso   1.00
H538   H     0.32511   0.17472   0.59367   0.00000  Uiso   1.00
H539   H     0.49002   0.38386   0.56309   0.00000  Uiso   1.00
H540   H     0.47522   0.36525   0.50214   0.00000  Uiso   1.00
H541   H     0.00272   0.23125   0.60175   0.00000  Uiso   1.00
H542   H     0.05340   0.19739   0.61467   0.00000  Uiso   1.00
H543   H     0.00061   0.16855   0.61592   0.00000  Uiso   1.00
H544   H     0.08013   0.38237   0.44293   0.00000  Uiso   1.00
H545   H     0.13805   0.38940   0.45580   0.00000  Uiso   1.00
H546   H     0.10391   0.36545   0.50261   0.00000  Uiso   1.00
H547   H     0.41978   0.12625   0.43285   0.00000  Uiso   1.00
H548   H     0.39903   0.13580   0.49395   0.00000  Uiso   1.00
H549   H     0.34318   0.11619   0.60889   0.00000  Uiso   1.00
H550   H     0.36277   0.11661   0.44491   0.00000  Uiso   1.00
H551   H     0.34943   0.37230   0.55964   0.00000  Uiso   1.00
H552   H     0.37737   0.36165   0.50384   0.00000  Uiso   1.00
H553   H     0.40799   0.38012   0.55886   0.00000  Uiso   1.00
H554   H     0.07801   0.12098   0.56056   0.00000  Uiso   1.00
H555   H     0.09741   0.13184   0.49861   0.00000  Uiso   1.00
H556   H     0.13476   0.11280   0.54736   0.00000  Uiso   1.00
H557   H     0.37743   0.06043   0.55483   0.00000  Uiso   1.00
H558   H     0.37137   0.49768   0.56356   0.00000  Uiso   1.00
H559   H     0.33148   0.03627   0.58978   0.00000  Uiso   1.00
H560   H     0.23062   0.35174   0.35221   0.00000  Uiso   1.00
H561   H     0.23776   0.03753   0.39992   0.00000  Uiso   1.00
H562   H     0.19864   0.48808   0.40696   0.00000  Uiso   1.00
H563   H     0.23009   0.49459   0.35345   0.00000  Uiso   1.00
H564   H     0.11669   0.01667   0.52022   0.00000  Uiso   1.00
H565   H     0.16560   0.02744   0.55696   0.00000  Uiso   1.00
H566   H     0.15933   0.47240   0.52263   0.00000  Uiso   1.00
H567   H     0.29374   0.48368   0.64271   0.00000  Uiso   1.00
H568   H     0.31319   0.44502   0.59649   0.00000  Uiso   1.00
H569   H     0.27436   0.42350   0.64129   0.00000  Uiso   1.00
H570   H     0.21635   0.41057   0.36930   0.00000  Uiso   1.00
H571   H     0.19662   0.35964   0.40419   0.00000  Uiso   1.00
H572   H     0.21220   0.12966   0.39543   0.00000  Uiso   1.00
H573   H     0.15567   0.14912   0.39295   0.00000  Uiso   1.00
H574   H     0.16721   0.08663   0.40031   0.00000  Uiso   1.00
N575   N     0.25000   0.12935   0.50000   0.00000  Uiso   1.00
N576   N     0.25000   0.37066   0.50000   0.00000  Uiso   1.00
O577   O     0.18573   0.29071   0.50000   0.00000  Uiso   1.00
O578   O     0.26438   0.37514   0.41365   0.00000  Uiso   1.00
O579   O     0.17824   0.12874   0.46181   0.00000  Uiso   1.00
O580   O     0.22934   0.37232   0.58421   0.00000  Uiso   1.00
O581   O     0.02414   0.31483   0.43103   0.00000  Uiso   1.00
O582   O     0.47412   0.19423   0.43102   0.00000  Uiso   1.00
O583   O     0.47696   0.31205   0.55900   0.00000  Uiso   1.00
O584   O     0.02127   0.18444   0.54704   0.00000  Uiso   1.00
O585   O     0.11814   0.32021   0.44344   0.00000  Uiso   1.00
O586   O     0.38077   0.18715   0.43915   0.00000  Uiso   1.00
O587   O     0.38566   0.31016   0.56155   0.00000  Uiso   1.00
O588   O     0.31427   0.20929   0.50000   0.00000  Uiso   1.00
O589   O     0.11541   0.18270   0.55253   0.00000  Uiso   1.00
O590   O     0.32827   0.02810   0.51285   0.00000  Uiso   1.00
O591   O     0.26747   0.47197   0.41386   0.00000  Uiso   1.00
O592   O     0.17091   0.03200   0.47918   0.00000  Uiso   1.00
O593   O     0.24692   0.46994   0.58835   0.00000  Uiso   1.00
O594   O     0.31427   0.29072   0.50000   0.00000  Uiso   1.00
O595   O     0.18573   0.20929   0.50000   0.00000  Uiso   1.00
O596   O     0.25000   0.29071   0.42946   0.00000  Uiso   1.00
O597   O     0.25000   0.20929   0.57054   0.00000  Uiso   1.00
O598   O     0.25000   0.29071   0.57054   0.00000  Uiso   1.00
O599   O     0.25000   0.20929   0.42946   0.00000  Uiso   1.00
O600   O     0.32303   0.12745   0.53635   0.00000  Uiso   1.00
C601   C     0.66495   0.25012   0.49948   0.00000  Uiso   1.00
C602   C     0.74691   0.44638   0.54397   0.00000  Uiso   1.00
C603   C     0.74993   0.25018   0.40693   0.00000  Uiso   1.00
C604   C     0.75002   0.24979   0.59307   0.00000  Uiso   1.00
C605   C     0.74959   0.02755   0.50190   0.00000  Uiso   1.00
C606   C     0.75014   0.47342   0.50053   0.00000  Uiso   1.00
C607   C     0.74998   0.25019   0.35518   0.00000  Uiso   1.00
C608   C     0.75000   0.24966   0.64481   0.00000  Uiso   1.00
C609   C     0.54745   0.28406   0.46274   0.00000  Uiso   1.00
C610   C     0.95139   0.22315   0.46249   0.00000  Uiso   1.00
C611   C     0.95354   0.28522   0.52479   0.00000  Uiso   1.00
C612   C     0.83495   0.25002   0.49991   0.00000  Uiso   1.00
C613   C     0.54587   0.21824   0.52240   0.00000  Uiso   1.00
C614   C     0.59396   0.28592   0.46822   0.00000  Uiso   1.00
C615   C     0.90524   0.21918   0.46715   0.00000  Uiso   1.00
C616   C     0.90728   0.28370   0.52689   0.00000  Uiso   1.00
C617   C     0.59247   0.21551   0.52270   0.00000  Uiso   1.00
C618   C     0.61636   0.25062   0.49702   0.00000  Uiso   1.00
C619   C     0.88328   0.25064   0.49820   0.00000  Uiso   1.00
C620   C     0.52386   0.25267   0.49278   0.00000  Uiso   1.00
C621   C     0.97539   0.25468   0.49256   0.00000  Uiso   1.00
C622   C     0.81796   0.13651   0.58690   0.00000  Uiso   1.00
C623   C     0.78648   0.10377   0.51766   0.00000  Uiso   1.00
C624   C     0.72506   0.37478   0.38417   0.00000  Uiso   1.00
C625   C     0.67888   0.12285   0.41053   0.00000  Uiso   1.00
C626   C     0.68322   0.37752   0.58866   0.00000  Uiso   1.00
C627   C     0.53574   0.30653   0.38196   0.00000  Uiso   1.00
C628   C     0.96398   0.20804   0.38200   0.00000  Uiso   1.00
C629   C     0.99316   0.35420   0.53685   0.00000  Uiso   1.00
C630   C     0.51985   0.19655   0.59690   0.00000  Uiso   1.00
C631   C     0.60923   0.36594   0.46235   0.00000  Uiso   1.00
C632   C     0.89154   0.13978   0.45379   0.00000  Uiso   1.00
C633   C     0.88037   0.35785   0.54462   0.00000  Uiso   1.00
C634   C     0.75597   0.39733   0.45725   0.00000  Uiso   1.00
C635   C     0.60539   0.13543   0.53859   0.00000  Uiso   1.00
C636   C     0.85260   0.03144   0.55747   0.00000  Uiso   1.00
C637   C     0.73167   0.49907   0.39368   0.00000  Uiso   1.00
C638   C     0.65309   0.01146   0.52194   0.00000  Uiso   1.00
C639   C     0.78360   0.45441   0.61792   0.00000  Uiso   1.00
C640   C     0.71360   0.10446   0.48339   0.00000  Uiso   1.00
C641   C     0.74199   0.39578   0.54216   0.00000  Uiso   1.00
C642   C     0.78838   0.05290   0.51369   0.00000  Uiso   1.00
C643   C     0.75563   0.44831   0.45668   0.00000  Uiso   1.00
C644   C     0.71075   0.05423   0.49038   0.00000  Uiso   1.00
Cu645  Cu    0.75000   0.29822   0.50000   0.00000  Uiso   1.00
Cu646  Cu    0.75000   0.20179   0.50000   0.00000  Uiso   1.00
H647   H     0.78468   0.12788   0.60144   0.00000  Uiso   1.00
H648   H     0.67234   0.35414   0.61919   0.00000  Uiso   1.00
H649   H     0.66497   0.36604   0.55497   0.00000  Uiso   1.00
H650   H     0.67433   0.41488   0.59766   0.00000  Uiso   1.00
H651   H     0.54305   0.26828   0.37461   0.00000  Uiso   1.00
H652   H     0.56434   0.32896   0.37173   0.00000  Uiso   1.00
H653   H     0.50748   0.31735   0.35741   0.00000  Uiso   1.00
H654   H     0.93532   0.18747   0.36734   0.00000  Uiso   1.00
H655   H     0.99291   0.19925   0.35994   0.00000  Uiso   1.00
H656   H     0.95753   0.24708   0.37697   0.00000  Uiso   1.00
H657   H     0.52890   0.35005   0.53015   0.00000  Uiso   1.00
H658   H     0.82511   0.17472   0.59367   0.00000  Uiso   1.00
H659   H     0.99002   0.38386   0.56309   0.00000  Uiso   1.00
H660   H     0.97522   0.36525   0.50214   0.00000  Uiso   1.00
H661   H     0.50272   0.23125   0.60175   0.00000  Uiso   1.00
H662   H     0.55340   0.19739   0.61467   0.00000  Uiso   1.00
H663   H     0.50061   0.16855   0.61592   0.00000  Uiso   1.00
H664   H     0.58013   0.38237   0.44293   0.00000  Uiso   1.00
H665   H     0.63805   0.38940   0.45580   0.00000  Uiso   1.00
H666   H     0.60391   0.36545   0.50261   0.00000  Uiso   1.00
H667   H     0.91978   0.12625   0.43285   0.00000  Uiso   1.00
H668   H     0.89903   0.13580   0.49395   0.00000  Uiso   1.00
H669   H     0.84318   0.11619   0.60889   0.00000  Uiso   1.00
H670   H     0.86277   0.11661   0.44491   0.00000  Uiso   1.00
H671   H     0.84943   0.37230   0.55964   0.00000  Uiso   1.00
H672   H     0.87737   0.36165   0.50384   0.00000  Uiso   1.00
H673   H     0.90799   0.38012   0.55886   0.00000  Uiso   1.00
H674   H     0.57801   0.12098   0.56056   0.00000  Uiso   1.00
H675   H     0.59741   0.13184   0.49861   0.00000  Uiso   1.00
H676   H     0.63476   0.11280   0.54736   0.00000  Uiso   1.00
H677   H     0.87743   0.06043   0.55483   0.00000  Uiso   1.00
H678   H     0.87137   0.49768   0.56356   0.00000  Uiso   1.00
H679   H     0.83148   0.03627   0.58978   0.00000  Uiso   1.00
H680   H     0.73062   0.35174   0.35221   0.00000  Uiso   1.00
H681   H     0.73776   0.03753   0.39992   0.00000  Uiso   1.00
H682   H     0.69864   0.48808   0.40696   0.00000  Uiso   1.00
H683   H     0.73009   0.49459   0.35345   0.00000  Uiso   1.00
H684   H     0.61669   0.01667   0.52022   0.00000  Uiso   1.00
H685   H     0.66560   0.02744   0.55696   0.00000  Uiso   1.00
H686   H     0.65933   0.47240   0.52263   0.00000  Uiso   1.00
H687   H     0.79374   0.48368   0.64271   0.00000  Uiso   1.00
H688   H     0.81319   0.44502   0.59649   0.00000  Uiso   1.00
H689   H     0.77436   0.42350   0.64129   0.00000  Uiso   1.00
H690   H     0.71635   0.41057   0.36930   0.00000  Uiso   1.00
H691   H     0.69662   0.35964   0.40419   0.00000  Uiso   1.00
H692   H     0.71220   0.12966   0.39543   0.00000  Uiso   1.00
H693   H     0.65567   0.14912   0.39295   0.00000  Uiso   1.00
H694   H     0.66721   0.08663   0.40031   0.00000  Uiso   1.00
N695   N     0.75000   0.12935   0.50000   0.00000  Uiso   1.00
N696   N     0.75000   0.37066   0.50000   0.00000  Uiso   1.00
O697   O     0.68573   0.29071   0.50000   0.00000  Uiso   1.00
O698   O     0.76438   0.37514   0.41365   0.00000  Uiso   1.00
O699   O     0.67824   0.12874   0.46181   0.00000  Uiso   1.00
O700   O     0.72934   0.37232   0.58421   0.00000  Uiso   1.00
O701   O     0.52414   0.31483   0.43103   0.00000  Uiso   1.00
O702   O     0.97412   0.19423   0.43102   0.00000  Uiso   1.00
O703   O     0.97696   0.31205   0.55900   0.00000  Uiso   1.00
O704   O     0.52127   0.18444   0.54704   0.00000  Uiso   1.00
O705   O     0.61814   0.32021   0.44344   0.00000  Uiso   1.00
O706   O     0.88077   0.18715   0.43915   0.00000  Uiso   1.00
O707   O     0.88566   0.31016   0.56155   0.00000  Uiso   1.00
O708   O     0.81427   0.20929   0.50000   0.00000  Uiso   1.00
O709   O     0.61541   0.18270   0.55253   0.00000  Uiso   1.00
O710   O     0.82827   0.02810   0.51285   0.00000  Uiso   1.00
O711   O     0.76747   0.47197   0.41386   0.00000  Uiso   1.00
O712   O     0.67091   0.03200   0.47918   0.00000  Uiso   1.00
O713   O     0.74692   0.46994   0.58835   0.00000  Uiso   1.00
O714   O     0.81427   0.29072   0.50000   0.00000  Uiso   1.00
O715   O     0.68573   0.20929   0.50000   0.00000  Uiso   1.00
O716   O     0.75000   0.29071   0.42946   0.00000  Uiso   1.00
O717   O     0.75000   0.20929   0.57054   0.00000  Uiso   1.00
O718   O     0.75000   0.29071   0.57054   0.00000  Uiso   1.00
O719   O     0.75000   0.20929   0.42946   0.00000  Uiso   1.00
O720   O     0.82303   0.12745   0.53635   0.00000  Uiso   1.00
C721   C     0.16495   0.75012   0.49948   0.00000  Uiso   1.00
C722   C     0.24691   0.94638   0.54397   0.00000  Uiso   1.00
C723   C     0.24993   0.75018   0.40693   0.00000  Uiso   1.00
C724   C     0.25002   0.74979   0.59307   0.00000  Uiso   1.00
C725   C     0.24959   0.52755   0.50190   0.00000  Uiso   1.00
C726   C     0.25014   0.97342   0.50053   0.00000  Uiso   1.00
C727   C     0.24998   0.75019   0.35518   0.00000  Uiso   1.00
C728   C     0.25000   0.74966   0.64481   0.00000  Uiso   1.00
C729   C     0.04745   0.78406   0.46274   0.00000  Uiso   1.00
C730   C     0.45139   0.72315   0.46249   0.00000  Uiso   1.00
C731   C     0.45354   0.78522   0.52479   0.00000  Uiso   1.00
C732   C     0.33495   0.75002   0.49991   0.00000  Uiso   1.00
C733   C     0.04587   0.71824   0.52240   0.00000  Uiso   1.00
C734   C     0.09396   0.78592   0.46822   0.00000  Uiso   1.00
C735   C     0.40524   0.71918   0.46715   0.00000  Uiso   1.00
C736   C     0.40728   0.78370   0.52689   0.00000  Uiso   1.00
C737   C     0.09247   0.71551   0.52270   0.00000  Uiso   1.00
C738   C     0.11636   0.75062   0.49702   0.00000  Uiso   1.00
C739   C     0.38328   0.75064   0.49820   0.00000  Uiso   1.00
C740   C     0.02386   0.75267   0.49278   0.00000  Uiso   1.00
C741   C     0.47539   0.75468   0.49256   0.00000  Uiso   1.00
C742   C     0.31796   0.63651   0.58690   0.00000  Uiso   1.00
C743   C     0.28648   0.60377   0.51766   0.00000  Uiso   1.00
C744   C     0.22506   0.87478   0.38417   0.00000  Uiso   1.00
C745   C     0.17888   0.62285   0.41053   0.00000  Uiso   1.00
C746   C     0.18322   0.87752   0.58866   0.00000  Uiso   1.00
C747   C     0.03574   0.80653   0.38196   0.00000  Uiso   1.00
C748   C     0.46398   0.70804   0.38200   0.00000  Uiso   1.00
C749   C     0.49316   0.85420   0.53685   0.00000  Uiso   1.00
C750   C     0.01985   0.69655   0.59690   0.00000  Uiso   1.00
C751   C     0.10923   0.86594   0.46235   0.00000  Uiso   1.00
C752   C     0.39154   0.63978   0.45379   0.00000  Uiso   1.00
C753   C     0.38037   0.85785   0.54462   0.00000  Uiso   1.00
C754   C     0.25597   0.89733   0.45725   0.00000  Uiso   1.00
C755   C     0.10539   0.63543   0.53859   0.00000  Uiso   1.00
C756   C     0.35260   0.53144   0.55747   0.00000  Uiso   1.00
C757   C     0.23167   0.99907   0.39368   0.00000  Uiso   1.00
C758   C     0.15309   0.51146   0.52194   0.00000  Uiso   1.00
C759   C     0.28360   0.95441   0.61792   0.00000  Uiso   1.00
C760   C     0.21360   0.60446   0.48339   0.00000  Uiso   1.00
C761   C     0.24199   0.89578   0.54216   0.00000  Uiso   1.00
C762   C     0.28838   0.55290   0.51369   0.00000  Uiso   1.00
C763   C     0.25563   0.94831   0.45668   0.00000  Uiso   1.00
C764   C     0.21075   0.55423   0.49038   0.00000  Uiso   1.00
Cu765  Cu    0.25000   0.79822   0.50000   0.00000  Uiso   1.00
Cu766  Cu    0.25000   0.70179   0.50000   0.00000  Uiso   1.00
H767   H     0.28468   0.62788   0.60144   0.00000  Uiso   1.00
H768   H     0.17234   0.85414   0.61919   0.00000  Uiso   1.00
H769   H     0.16497   0.86604   0.55497   0.00000  Uiso   1.00
H770   H     0.17433   0.91488   0.59766   0.00000  Uiso   1.00
H771   H     0.04305   0.76828   0.37461   0.00000  Uiso   1.00
H772   H     0.06434   0.82896   0.37173   0.00000  Uiso   1.00
H773   H     0.00748   0.81735   0.35741   0.00000  Uiso   1.00
H774   H     0.43532   0.68747   0.36734   0.00000  Uiso   1.00
H775   H     0.49291   0.69925   0.35994   0.00000  Uiso   1.00
H776   H     0.45753   0.74708   0.37697   0.00000  Uiso   1.00
H777   H     0.02890   0.85005   0.53015   0.00000  Uiso   1.00
H778   H     0.32511   0.67472   0.59367   0.00000  Uiso   1.00
H779   H     0.49002   0.88386   0.56309   0.00000  Uiso   1.00
H780   H     0.47522   0.86525   0.50214   0.00000  Uiso   1.00
H781   H     0.00272   0.73125   0.60175   0.00000  Uiso   1.00
H782   H     0.05340   0.69739   0.61467   0.00000  Uiso   1.00
H783   H     0.00061   0.66855   0.61592   0.00000  Uiso   1.00
H784   H     0.08013   0.88237   0.44293   0.00000  Uiso   1.00
H785   H     0.13805   0.88940   0.45580   0.00000  Uiso   1.00
H786   H     0.10391   0.86545   0.50261   0.00000  Uiso   1.00
H787   H     0.41978   0.62625   0.43285   0.00000  Uiso   1.00
H788   H     0.39903   0.63580   0.49395   0.00000  Uiso   1.00
H789   H     0.34318   0.61619   0.60889   0.00000  Uiso   1.00
H790   H     0.36277   0.61661   0.44491   0.00000  Uiso   1.00
H791   H     0.34943   0.87230   0.55964   0.00000  Uiso   1.00
H792   H     0.37737   0.86165   0.50384   0.00000  Uiso   1.00
H793   H     0.40799   0.88012   0.55886   0.00000  Uiso   1.00
H794   H     0.07801   0.62098   0.56056   0.00000  Uiso   1.00
H795   H     0.09741   0.63184   0.49861   0.00000  Uiso   1.00
H796   H     0.13476   0.61280   0.54736   0.00000  Uiso   1.00
H797   H     0.37743   0.56043   0.55483   0.00000  Uiso   1.00
H798   H     0.37137   0.99768   0.56356   0.00000  Uiso   1.00
H799   H     0.33148   0.53627   0.58978   0.00000  Uiso   1.00
H800   H     0.23062   0.85174   0.35221   0.00000  Uiso   1.00
H801   H     0.23776   0.53753   0.39992   0.00000  Uiso   1.00
H802   H     0.19864   0.98808   0.40696   0.00000  Uiso   1.00
H803   H     0.23009   0.99459   0.35345   0.00000  Uiso   1.00
H804   H     0.11669   0.51667   0.52022   0.00000  Uiso   1.00
H805   H     0.16560   0.52744   0.55696   0.00000  Uiso   1.00
H806   H     0.15933   0.97240   0.52263   0.00000  Uiso   1.00
H807   H     0.29374   0.98368   0.64271   0.00000  Uiso   1.00
H808   H     0.31319   0.94502   0.59649   0.00000  Uiso   1.00
H809   H     0.27436   0.92350   0.64129   0.00000  Uiso   1.00
H810   H     0.21635   0.91057   0.36930   0.00000  Uiso   1.00
H811   H     0.19662   0.85964   0.40419   0.00000  Uiso   1.00
H812   H     0.21220   0.62966   0.39543   0.00000  Uiso   1.00
H813   H     0.15567   0.64912   0.39295   0.00000  Uiso   1.00
H814   H     0.16721   0.58663   0.40031   0.00000  Uiso   1.00
N815   N     0.25000   0.62935   0.50000   0.00000  Uiso   1.00
N816   N     0.25000   0.87066   0.50000   0.00000  Uiso   1.00
O817   O     0.18573   0.79071   0.50000   0.00000  Uiso   1.00
O818   O     0.26438   0.87514   0.41365   0.00000  Uiso   1.00
O819   O     0.17824   0.62874   0.46181   0.00000  Uiso   1.00
O820   O     0.22934   0.87232   0.58421   0.00000  Uiso   1.00
O821   O     0.02414   0.81483   0.43103   0.00000  Uiso   1.00
O822   O     0.47412   0.69423   0.43102   0.00000  Uiso   1.00
O823   O     0.47696   0.81205   0.55900   0.00000  Uiso   1.00
O824   O     0.02127   0.68444   0.54704   0.00000  Uiso   1.00
O825   O     0.11814   0.82021   0.44344   0.00000  Uiso   1.00
O826   O     0.38077   0.68715   0.43915   0.00000  Uiso   1.00
O827   O     0.38566   0.81016   0.56155   0.00000  Uiso   1.00
O828   O     0.31427   0.70929   0.50000   0.00000  Uiso   1.00
O829   O     0.11541   0.68270   0.55253   0.00000  Uiso   1.00
O830   O     0.32827   0.52810   0.51285   0.00000  Uiso   1.00
O831   O     0.26747   0.97197   0.41386   0.00000  Uiso   1.00
O832   O     0.17091   0.53200   0.47918   0.00000  Uiso   1.00
O833   O     0.24692   0.96994   0.58835   0.00000  Uiso   1.00
O834   O     0.31427   0.79072   0.50000   0.00000  Uiso   1.00
O835   O     0.18573   0.70929   0.50000   0.00000  Uiso   1.00
O836   O     0.25000   0.79071   0.42946   0.00000  Uiso   1.00
O837   O     0.25000   0.70929   0.57054   0.00000  Uiso   1.00
O838   O     0.25000   0.79071   0.57054   0.00000  Uiso   1.00
O839   O     0.25000   0.70929   0.42946   0.00000  Uiso   1.00
O840   O     0.32303   0.62745   0.53635   0.00000  Uiso   1.00
C841   C     0.66495   0.75012   0.49948   0.00000  Uiso   1.00
C842   C     0.74691   0.94638   0.54397   0.00000  Uiso   1.00
C843   C     0.74993   0.75018   0.40693   0.00000  Uiso   1.00
C844   C     0.75002   0.74979   0.59307   0.00000  Uiso   1.00
C845   C     0.74959   0.52755   0.50190   0.00000  Uiso   1.00
C846   C     0.75014   0.97342   0.50053   0.00000  Uiso   1.00
C847   C     0.74998   0.75019   0.35518   0.00000  Uiso   1.00
C848   C     0.75000   0.74966   0.64481   0.00000  Uiso   1.00
C849   C     0.54745   0.78406   0.46274   0.00000  Uiso   1.00
C850   C     0.95139   0.72315   0.46249   0.00000  Uiso   1.00
C851   C     0.95354   0.78522   0.52479   0.00000  Uiso   1.00
C852   C     0.83495   0.75002   0.49991   0.00000  Uiso   1.00
C853   C     0.54587   0.71824   0.52240   0.00000  Uiso   1.00
C854   C     0.59396   0.78592   0.46822   0.00000  Uiso   1.00
C855   C     0.90524   0.71918   0.46715   0.00000  Uiso   1.00
C856   C     0.90728   0.78370   0.52689   0.00000  Uiso   1.00
C857   C     0.59247   0.71551   0.52270   0.00000  Uiso   1.00
C858   C     0.61636   0.75062   0.49702   0.00000  Uiso   1.00
C859   C     0.88328   0.75064   0.49820   0.00000  Uiso   1.00
C860   C     0.52386   0.75267   0.49278   0.00000  Uiso   1.00
C861   C     0.97539   0.75468   0.49256   0.00000  Uiso   1.00
C862   C     0.81796   0.63651   0.58690   0.00000  Uiso   1.00
C863   C     0.78648   0.60377   0.51766   0.00000  Uiso   1.00
C864   C     0.72506   0.87478   0.38417   0.00000  Uiso   1.00
C865   C     0.67888   0.62285   0.41053   0.00000  Uiso   1.00
C866   C     0.68322   0.87752   0.58866   0.00000  Uiso   1.00
C867   C     0.53574   0.80653   0.38196   0.00000  Uiso   1.00
C868   C     0.96398   0.70804   0.38200   0.00000  Uiso   1.00
C869   C     0.99316   0.85420   0.53685   0.00000  Uiso   1.00
C870   C     0.51985   0.69655   0.59690   0.00000  Uiso   1.00
C871   C     0.60923   0.86594   0.46235   0.00000  Uiso   1.00
C872   C     0.89154   0.63978   0.45379   0.00000  Uiso   1.00
C873   C     0.88037   0.85785   0.54462   0.00000  Uiso   1.00
C874   C     0.75597   0.89733   0.45725   0.00000  Uiso   1.00
C875   C     0.60539   0.63543   0.53859   0.00000  Uiso   1.00
C876   C     0.85260   0.53144   0.55747   0.00000  Uiso   1.00
C877   C     0.73167   0.99907   0.39368   0.00000  Uiso   1.00
C878   C     0.65309   0.51146   0.52194   0.00000  Uiso   1.00
C879   C     0.78360   0.95441   0.61792   0.00000  Uiso   1.00
C880   C     0.71360   0.60446   0.48339   0.00000  Uiso   1.00
C881   C     0.74199   0.89578   0.54216   0.00000  Uiso   1.00
C882   C     0.78838   0.55290   0.51369   0.00000  Uiso   1.00
C883   C     0.75563   0.94831   0.45668   0.00000  Uiso   1.00
C884   C     0.71075   0.55423   0.49038   0.00000  Uiso   1.00
Cu885  Cu    0.75000   0.79822   0.50000   0.00000  Uiso   1.00
Cu886  Cu    0.75000   0.70179   0.50000   0.00000  Uiso   1.00
H887   H     0.78468   0.62788   0.60144   0.00000  Uiso   1.00
H888   H     0.67234   0.85414   0.61919   0.00000  Uiso   1.00
H889   H     0.66497   0.86604   0.55497   0.00000  Uiso   1.00
H890   H     0.67433   0.91488   0.59766   0.00000  Uiso   1.00
H891   H     0.54305   0.76828   0.37461   0.00000  Uiso   1.00
H892   H     0.56434   0.82896   0.37173   0.00000  Uiso   1.00
H893   H     0.50748   0.81735   0.35741   0.00000  Uiso   1.00
H894   H     0.93532   0.68747   0.36734   0.00000  Uiso   1.00
H895   H     0.99291   0.69925   0.35994   0.00000  Uiso   1.00
H896   H     0.95753   0.74708   0.37697   0.00000  Uiso   1.00
H897   H     0.52890   0.85005   0.53015   0.00000  Uiso   1.00
H898   H     0.82511   0.67472   0.59367   0.00000  Uiso   1.00
H899   H     0.99002   0.88386   0.56309   0.00000  Uiso   1.00
H900   H     0.97522   0.86525   0.50214   0.00000  Uiso   1.00
H901   H     0.50272   0.73125   0.60175   0.00000  Uiso   1.00
H902   H     0.55340   0.69739   0.61467   0.00000  Uiso   1.00
H903   H     0.50061   0.66855   0.61592   0.00000  Uiso   1.00
H904   H     0.58013   0.88237   0.44293   0.00000  Uiso   1.00
H905   H     0.63805   0.88940   0.45580   0.00000  Uiso   1.00
H906   H     0.60391   0.86545   0.50261   0.00000  Uiso   1.00
H907   H     0.91978   0.62625   0.43285   0.00000  Uiso   1.00
H908   H     0.89903   0.63580   0.49395   0.00000  Uiso   1.00
H909   H     0.84318   0.61619   0.60889   0.00000  Uiso   1.00
H910   H     0.86277   0.61661   0.44491   0.00000  Uiso   1.00
H911   H     0.84943   0.87230   0.55964   0.00000  Uiso   1.00
H912   H     0.87737   0.86165   0.50384   0.00000  Uiso   1.00
H913   H     0.90799   0.88012   0.55886   0.00000  Uiso   1.00
H914   H     0.57801   0.62098   0.56056   0.00000  Uiso   1.00
H915   H     0.59741   0.63184   0.49861   0.00000  Uiso   1.00
H916   H     0.63476   0.61280   0.54736   0.00000  Uiso   1.00
H917   H     0.87743   0.56043   0.55483   0.00000  Uiso   1.00
H918   H     0.87137   0.99768   0.56356   0.00000  Uiso   1.00
H919   H     0.83148   0.53627   0.58978   0.00000  Uiso   1.00
H920   H     0.73062   0.85174   0.35221   0.00000  Uiso   1.00
H921   H     0.73776   0.53753   0.39992   0.00000  Uiso   1.00
H922   H     0.69864   0.98808   0.40696   0.00000  Uiso   1.00
H923   H     0.73009   0.99459   0.35345   0.00000  Uiso   1.00
H924   H     0.61669   0.51667   0.52022   0.00000  Uiso   1.00
H925   H     0.66560   0.52744   0.55696   0.00000  Uiso   1.00
H926   H     0.65933   0.97240   0.52263   0.00000  Uiso   1.00
H927   H     0.79374   0.98368   0.64271   0.00000  Uiso   1.00
H928   H     0.81319   0.94502   0.59649   0.00000  Uiso   1.00
H929   H     0.77436   0.92350   0.64129   0.00000  Uiso   1.00
H930   H     0.71635   0.91057   0.36930   0.00000  Uiso   1.00
H931   H     0.69662   0.85964   0.40419   0.00000  Uiso   1.00
H932   H     0.71220   0.62966   0.39543   0.00000  Uiso   1.00
H933   H     0.65567   0.64912   0.39295   0.00000  Uiso   1.00
H934   H     0.66721   0.58663   0.40031   0.00000  Uiso   1.00
N935   N     0.75000   0.62935   0.50000   0.00000  Uiso   1.00
N936   N     0.75000   0.87066   0.50000   0.00000  Uiso   1.00
O937   O     0.68573   0.79071   0.50000   0.00000  Uiso   1.00
O938   O     0.76438   0.87514   0.41365   0.00000  Uiso   1.00
O939   O     0.67824   0.62874   0.46181   0.00000  Uiso   1.00
O940   O     0.72934   0.87232   0.58421   0.00000  Uiso   1.00
O941   O     0.52414   0.81483   0.43103   0.00000  Uiso   1.00
O942   O     0.97412   0.69423   0.43102   0.00000  Uiso   1.00
O943   O     0.97696   0.81205   0.55900   0.00000  Uiso   1.00
O944   O     0.52127   0.68444   0.54704   0.00000  Uiso   1.00
O945   O     0.61814   0.82021   0.44344   0.00000  Uiso   1.00
O946   O     0.88077   0.68715   0.43915   0.00000  Uiso   1.00
O947   O     0.88566   0.81016   0.56155   0.00000  Uiso   1.00
O948   O     0.81427   0.70929   0.50000   0.00000  Uiso   1.00
O949   O     0.61541   0.68270   0.55253   0.00000  Uiso   1.00
O950   O     0.82827   0.52810   0.51285   0.00000  Uiso   1.00
O951   O     0.76747   0.97197   0.41386   0.00000  Uiso   1.00
O952   O     0.67091   0.53200   0.47918   0.00000  Uiso   1.00
O953   O     0.74692   0.96994   0.58835   0.00000  Uiso   1.00
O954   O     0.81427   0.79072   0.50000   0.00000  Uiso   1.00
O955   O     0.68573   0.70929   0.50000   0.00000  Uiso   1.00
O956   O     0.75000   0.79071   0.42946   0.00000  Uiso   1.00
O957   O     0.75000   0.70929   0.57054   0.00000  Uiso   1.00
O958   O     0.75000   0.79071   0.57054   0.00000  Uiso   1.00
O959   O     0.75000   0.70929   0.42946   0.00000  Uiso   1.00
O960   O     0.82303   0.62745   0.53635   0.00000  Uiso   1.00
C961   C     0.16495   0.25012   0.83281   0.00000  Uiso   1.00
C962   C     0.24691   0.44638   0.87730   0.00000  Uiso   1.00
C963   C     0.24993   0.25018   0.74027   0.00000  Uiso   1.00
C964   C     0.25002   0.24979   0.92640   0.00000  Uiso   1.00
C965   C     0.24959   0.02755   0.83523   0.00000  Uiso   1.00
C966   C     0.25014   0.47342   0.83386   0.00000  Uiso   1.00
C967   C     0.24998   0.25019   0.68851   0.00000  Uiso   1.00
C968   C     0.25000   0.24966   0.97815   0.00000  Uiso   1.00
C969   C     0.04745   0.28406   0.79607   0.00000  Uiso   1.00
C970   C     0.45139   0.22315   0.79583   0.00000  Uiso   1.00
C971   C     0.45354   0.28522   0.85813   0.00000  Uiso   1.00
C972   C     0.33495   0.25002   0.83324   0.00000  Uiso   1.00
C973   C     0.04587   0.21824   0.85574   0.00000  Uiso   1.00
C974   C     0.09396   0.28592   0.80156   0.00000  Uiso   1.00
C975   C     0.40524   0.21918   0.80049   0.00000  Uiso   1.00
C976   C     0.40728   0.28370   0.86022   0.00000  Uiso   1.00
C977   C     0.09247   0.21551   0.85603   0.00000  Uiso   1.00
C978   C     0.11636   0.25062   0.83036   0.00000  Uiso   1.00
C979   C     0.38328   0.25064   0.83153   0.00000  Uiso   1.00
C980   C     0.02386   0.25267   0.82611   0.00000  Uiso   1.00
C981   C     0.47539   0.25468   0.82589   0.00000  Uiso   1.00
C982   C     0.31796   0.13651   0.92023   0.00000  Uiso   1.00
C983   C     0.28648   0.10377   0.85099   0.00000  Uiso   1.00
C984   C     0.22506   0.37478   0.71750   0.00000  Uiso   1.00
C985   C     0.17888   0.12285   0.74386   0.00000  Uiso   1.00
C986   C     0.18322   0.37752   0.92199   0.00000  Uiso   1.00
C987   C     0.03574   0.30653   0.71529   0.00000  Uiso   1.00
C988   C     0.46398   0.20804   0.71533   0.00000  Uiso   1.00
C989   C     0.49316   0.35420   0.87018   0.00000  Uiso   1.00
C990   C     0.01985   0.19655   0.93023   0.00000  Uiso   1.00
C991   C     0.10923   0.36594   0.79568   0.00000  Uiso   1.00
C992   C     0.39154   0.13978   0.78713   0.00000  Uiso   1.00
C993   C     0.38037   0.35785   0.87795   0.00000  Uiso   1.00
C994   C     0.25597   0.39733   0.79058   0.00000  Uiso   1.00
C995   C     0.10539   0.13543   0.87193   0.00000  Uiso   1.00
C996   C     0.35260   0.03144   0.89080   0.00000  Uiso   1.00
C997   C     0.23167   0.49907   0.72701   0.00000  Uiso   1.00
C998   C     0.15309   0.01146   0.85527   0.00000  Uiso   1.00
C999   C     0.28360   0.45441   0.95126   0.00000  Uiso   1.00
C1000  C     0.21360   0.10446   0.81672   0.00000  Uiso   1.00
C1001  C     0.24199   0.39578   0.87550   0.00000  Uiso   1.00
C1002  C     0.28838   0.05290   0.84703   0.00000  Uiso   1.00
C1003  C     0.25563   0.44831   0.79001   0.00000  Uiso   1.00
C1004  C     0.21075   0.05423   0.82371   0.00000  Uiso   1.00
Cu1005 Cu    0.25000   0.29822   0.83333   0.00000  Uiso   1.00
Cu1006 Cu    0.25000   0.20179   0.83333   0.00000  Uiso   1.00
H1007  H     0.28468   0.12788   0.93477   0.00000  Uiso   1.00
H1008  H     0.17234   0.35414   0.95252   0.00000  Uiso   1.00
H1009  H     0.16497   0.36604   0.88830   0.00000  Uiso   1.00
H1010  H     0.17433   0.41488   0.93100   0.00000  Uiso   1.00
H1011  H     0.04305   0.26828   0.70794   0.00000  Uiso   1.00
H1012  H     0.06434   0.32896   0.70506   0.00000  Uiso   1.00
H1013  H     0.00748   0.31735   0.69074   0.00000  Uiso   1.00
H1014  H     0.43532   0.18747   0.70068   0.00000  Uiso   1.00
H1015  H     0.49291   0.19925   0.69327   0.00000  Uiso   1.00
H1016  H     0.45753   0.24708   0.71030   0.00000  Uiso   1.00
H1017  H     0.02890   0.35005   0.86348   0.00000  Uiso   1.00
H1018  H     0.32511   0.17472   0.92700   0.00000  Uiso   1.00
H1019  H     0.49002   0.38386   0.89642   0.00000  Uiso   1.00
H1020  H     0.47522   0.36525   0.83548   0.00000  Uiso   1.00
H1021  H     0.00272   0.23125   0.93509   0.00000  Uiso   1.00
H1022  H     0.05340   0.19739   0.94800   0.00000  Uiso   1.00
H1023  H     0.00061   0.16855   0.94925   0.00000  Uiso   1.00
H1024  H     0.08013   0.38237   0.77626   0.00000  Uiso   1.00
H1025  H     0.13805   0.38940   0.78913   0.00000  Uiso   1.00
H1026  H     0.10391   0.36545   0.83595   0.00000  Uiso   1.00
H1027  H     0.41978   0.12625   0.76618   0.00000  Uiso   1.00
H1028  H     0.39903   0.13580   0.82728   0.00000  Uiso   1.00
H1029  H     0.34318   0.11619   0.94223   0.00000  Uiso   1.00
H1030  H     0.36277   0.11661   0.77825   0.00000  Uiso   1.00
H1031  H     0.34943   0.37230   0.89298   0.00000  Uiso   1.00
H1032  H     0.37737   0.36165   0.83717   0.00000  Uiso   1.00
H1033  H     0.40799   0.38012   0.89219   0.00000  Uiso   1.00
H1034  H     0.07801   0.12098   0.89389   0.00000  Uiso   1.00
H1035  H     0.09741   0.13184   0.83195   0.00000  Uiso   1.00
H1036  H     0.13476   0.11280   0.88069   0.00000  Uiso   1.00
H1037  H     0.37743   0.06043   0.88816   0.00000  Uiso   1.00
H1038  H     0.37137   0.49768   0.89689   0.00000  Uiso   1.00
H1039  H     0.33148   0.03627   0.92311   0.00000  Uiso   1.00
H1040  H     0.23062   0.35174   0.68554   0.00000  Uiso   1.00
H1041  H     0.23776   0.03753   0.73325   0.00000  Uiso   1.00
H1042  H     0.19864   0.48808   0.74029   0.00000  Uiso   1.00
H1043  H     0.23009   0.49459   0.68679   0.00000  Uiso   1.00
H1044  H     0.11669   0.01667   0.85355   0.00000  Uiso   1.00
H1045  H     0.16560   0.02744   0.89029   0.00000  Uiso   1.00
H1046  H     0.15933   0.47240   0.85596   0.00000  Uiso   1.00
H1047  H     0.29374   0.48368   0.97604   0.00000  Uiso   1.00
H1048  H     0.31319   0.44502   0.92983   0.00000  Uiso   1.00
H1049  H     0.27436   0.42350   0.97462   0.00000  Uiso   1.00
H1050  H     0.21635   0.41057   0.70263   0.00000  Uiso   1.00
H1051  H     0.19662   0.35964   0.73753   0.00000  Uiso   1.00
H1052  H     0.21220   0.12966   0.72876   0.00000  Uiso   1.00
H1053  H     0.15567   0.14912   0.72629   0.00000  Uiso   1.00
H1054  H     0.16721   0.08663   0.73364   0.00000  Uiso   1.00
N1055  N     0.25000   0.12935   0.83333   0.00000  Uiso   1.00
N1056  N     0.25000   0.37066   0.83333   0.00000  Uiso   1.00
O1057  O     0.18573   0.29071   0.83334   0.00000  Uiso   1.00
O1058  O     0.26438   0.37514   0.74698   0.00000  Uiso   1.00
O1059  O     0.17824   0.12874   0.79514   0.00000  Uiso   1.00
O1060  O     0.22934   0.37232   0.91755   0.00000  Uiso   1.00
O1061  O     0.02414   0.31483   0.76436   0.00000  Uiso   1.00
O1062  O     0.47412   0.19423   0.76436   0.00000  Uiso   1.00
O1063  O     0.47696   0.31205   0.89234   0.00000  Uiso   1.00
O1064  O     0.02127   0.18444   0.88037   0.00000  Uiso   1.00
O1065  O     0.11814   0.32021   0.77678   0.00000  Uiso   1.00
O1066  O     0.38077   0.18715   0.77248   0.00000  Uiso   1.00
O1067  O     0.38566   0.31016   0.89488   0.00000  Uiso   1.00
O1068  O     0.31427   0.20929   0.83333   0.00000  Uiso   1.00
O1069  O     0.11541   0.18270   0.88587   0.00000  Uiso   1.00
O1070  O     0.32827   0.02810   0.84618   0.00000  Uiso   1.00
O1071  O     0.26747   0.47197   0.74720   0.00000  Uiso   1.00
O1072  O     0.17091   0.03200   0.81252   0.00000  Uiso   1.00
O1073  O     0.24692   0.46994   0.92168   0.00000  Uiso   1.00
O1074  O     0.31427   0.29072   0.83333   0.00000  Uiso   1.00
O1075  O     0.18573   0.20929   0.83334   0.00000  Uiso   1.00
O1076  O     0.25000   0.29071   0.76280   0.00000  Uiso   1.00
O1077  O     0.25000   0.20929   0.90387   0.00000  Uiso   1.00
O1078  O     0.25000   0.29071   0.90387   0.00000  Uiso   1.00
O1079  O     0.25000   0.20929   0.76280   0.00000  Uiso   1.00
O1080  O     0.32303   0.12745   0.86968   0.00000  Uiso   1.00
C1081  C     0.66495   0.25012   0.83281   0.00000  Uiso   1.00
C1082  C     0.74691   0.44638   0.87730   0.00000  Uiso   1.00
C1083  C     0.74993   0.25018   0.74027   0.00000  Uiso   1.00
C1084  C     0.75002   0.24979   0.92640   0.00000  Uiso   1.00
C1085  C     0.74959   0.02755   0.83523   0.00000  Uiso   1.00
C1086  C     0.75014   0.47342   0.83386   0.00000  Uiso   1.00
C1087  C     0.74998   0.25019   0.68851   0.00000  Uiso   1.00
C1088  C     0.75000   0.24966   0.97815   0.00000  Uiso   1.00
C1089  C     0.54745   0.28406   0.79607   0.00000  Uiso   1.00
C1090  C     0.95139   0.22315   0.79583   0.00000  Uiso   1.00
C1091  C     0.95354   0.28522   0.85813   0.00000  Uiso   1.00
C1092  C     0.83495   0.25002   0.83324   0.00000  Uiso   1.00
C1093  C     0.54587   0.21824   0.85574   0.00000  Uiso   1.00
C1094  C     0.59396   0.28592   0.80156   0.00000  Uiso   1.00
C1095  C     0.90524   0.21918   0.80049   0.00000  Uiso   1.00
C1096  C     0.90728   0.28370   0.86022   0.00000  Uiso   1.00
C1097  C     0.59247   0.21551   0.85603   0.00000  Uiso   1.00
C1098  C     0.61636   0.25062   0.83036   0.00000  Uiso   1.00
C1099  C     0.88328   0.25064   0.83153   0.00000  Uiso   1.00
C1100  C     0.52386   0.25267   0.82611   0.00000  Uiso   1.00
C1101  C     0.97539   0.25468   0.82589   0.00000  Uiso   1.00
C1102  C     0.81796   0.13651   0.92023   0.00000  Uiso   1.00
C1103  C     0.78648   0.10377   0.85099   0.00000  Uiso   1.00
C1104  C     0.72506   0.37478   0.71750   0.00000  Uiso   1.00
C1105  C     0.67888   0.12285   0.74386   0.00000  Uiso   1.00
C1106  C     0.68322   0.37752   0.92199   0.00000  Uiso   1.00
C1107  C     0.53574   0.30653   0.71529   0.00000  Uiso   1.00
C1108  C     0.96398   0.20804   0.71533   0.00000  Uiso   1.00
C1109  C     0.99316   0.35420   0.87018   0.00000  Uiso   1.00
C1110  C     0.51985   0.19655   0.93023   0.00000  Uiso   1.00
C1111  C     0.60923   0.36594   0.79568   0.00000  Uiso   1.00
C1112  C     0.89154   0.13978   0.78713   0.00000  Uiso   1.00
C1113  C     0.88037   0.35785   0.87795   0.00000  Uiso   1.00
C1114  C     0.75597   0.39733   0.79058   0.00000  Uiso   1.00
C1115  C     0.60539   0.13543   0.87193   0.00000  Uiso   1.00
C1116  C     0.85260   0.03144   0.89080   0.00000  Uiso   1.00
C1117  C     0.73167   0.49907   0.72701   0.00000  Uiso   1.00
C1118  C     0.65309   0.01146   0.85527   0.00000  Uiso   1.00
C1119  C     0.78360   0.45441   0.95126   0.00000  Uiso   1.00
C1120  C     0.71360   0.10446   0.81672   0.00000  Uiso   1.00
C1121  C     0.74199   0.39578   0.87550   0.00000  Uiso   1.00
C1122  C     0.78838   0.05290   0.84703   0.00000  Uiso   1.00
C1123  C     0.75563   0.44831   0.79001   0.00000  Uiso   1.00
C1124  C     0.71075   0.05423   0.82371   0.00000  Uiso   1.00
Cu1125 Cu    0.75000   0.29822   0.83333   0.00000  Uiso   1.00
Cu1126 Cu    0.75000   0.20179   0.83333   0.00000  Uiso   1.00
H1127  H     0.78468   0.12788   0.93477   0.00000  Uiso   1.00
H1128  H     0.67234   0.35414   0.95252   0.00000  Uiso   1.00
H1129  H     0.66497   0.36604   0.88830   0.00000  Uiso   1.00
H1130  H     0.67433   0.41488   0.93100   0.00000  Uiso   1.00
H1131  H     0.54305   0.26828   0.70794   0.00000  Uiso   1.00
H1132  H     0.56434   0.32896   0.70506   0.00000  Uiso   1.00
H1133  H     0.50748   0.31735   0.69074   0.00000  Uiso   1.00
H1134  H     0.93532   0.18747   0.70068   0.00000  Uiso   1.00
H1135  H     0.99291   0.19925   0.69327   0.00000  Uiso   1.00
H1136  H     0.95753   0.24708   0.71030   0.00000  Uiso   1.00
H1137  H     0.52890   0.35005   0.86348   0.00000  Uiso   1.00
H1138  H     0.82511   0.17472   0.92700   0.00000  Uiso   1.00
H1139  H     0.99002   0.38386   0.89642   0.00000  Uiso   1.00
H1140  H     0.97522   0.36525   0.83548   0.00000  Uiso   1.00
H1141  H     0.50272   0.23125   0.93509   0.00000  Uiso   1.00
H1142  H     0.55340   0.19739   0.94800   0.00000  Uiso   1.00
H1143  H     0.50061   0.16855   0.94925   0.00000  Uiso   1.00
H1144  H     0.58013   0.38237   0.77626   0.00000  Uiso   1.00
H1145  H     0.63805   0.38940   0.78913   0.00000  Uiso   1.00
H1146  H     0.60391   0.36545   0.83595   0.00000  Uiso   1.00
H1147  H     0.91978   0.12625   0.76618   0.00000  Uiso   1.00
H1148  H     0.89903   0.13580   0.82728   0.00000  Uiso   1.00
H1149  H     0.84318   0.11619   0.94223   0.00000  Uiso   1.00
H1150  H     0.86277   0.11661   0.77825   0.00000  Uiso   1.00
H1151  H     0.84943   0.37230   0.89298   0.00000  Uiso   1.00
H1152  H     0.87737   0.36165   0.83717   0.00000  Uiso   1.00
H1153  H     0.90799   0.38012   0.89219   0.00000  Uiso   1.00
H1154  H     0.57801   0.12098   0.89389   0.00000  Uiso   1.00
H1155  H     0.59741   0.13184   0.83195   0.00000  Uiso   1.00
H1156  H     0.63476   0.11280   0.88069   0.00000  Uiso   1.00
H1157  H     0.87743   0.06043   0.88816   0.00000  Uiso   1.00
H1158  H     0.87137   0.49768   0.89689   0.00000  Uiso   1.00
H1159  H     0.83148   0.03627   0.92311   0.00000  Uiso   1.00
H1160  H     0.73062   0.35174   0.68554   0.00000  Uiso   1.00
H1161  H     0.73776   0.03753   0.73325   0.00000  Uiso   1.00
H1162  H     0.69864   0.48808   0.74029   0.00000  Uiso   1.00
H1163  H     0.73009   0.49459   0.68679   0.00000  Uiso   1.00
H1164  H     0.61669   0.01667   0.85355   0.00000  Uiso   1.00
H1165  H     0.66560   0.02744   0.89029   0.00000  Uiso   1.00
H1166  H     0.65933   0.47240   0.85596   0.00000  Uiso   1.00
H1167  H     0.79374   0.48368   0.97604   0.00000  Uiso   1.00
H1168  H     0.81319   0.44502   0.92983   0.00000  Uiso   1.00
H1169  H     0.77436   0.42350   0.97462   0.00000  Uiso   1.00
H1170  H     0.71635   0.41057   0.70263   0.00000  Uiso   1.00
H1171  H     0.69662   0.35964   0.73753   0.00000  Uiso   1.00
H1172  H     0.71220   0.12966   0.72876   0.00000  Uiso   1.00
H1173  H     0.65567   0.14912   0.72629   0.00000  Uiso   1.00
H1174  H     0.66721   0.08663   0.73364   0.00000  Uiso   1.00
N1175  N     0.75000   0.12935   0.83333   0.00000  Uiso   1.00
N1176  N     0.75000   0.37066   0.83333   0.00000  Uiso   1.00
O1177  O     0.68573   0.29071   0.83334   0.00000  Uiso   1.00
O1178  O     0.76438   0.37514   0.74698   0.00000  Uiso   1.00
O1179  O     0.67824   0.12874   0.79514   0.00000  Uiso   1.00
O1180  O     0.72934   0.37232   0.91755   0.00000  Uiso   1.00
O1181  O     0.52414   0.31483   0.76436   0.00000  Uiso   1.00
O1182  O     0.97412   0.19423   0.76436   0.00000  Uiso   1.00
O1183  O     0.97696   0.31205   0.89234   0.00000  Uiso   1.00
O1184  O     0.52127   0.18444   0.88037   0.00000  Uiso   1.00
O1185  O     0.61814   0.32021   0.77678   0.00000  Uiso   1.00
O1186  O     0.88077   0.18715   0.77248   0.00000  Uiso   1.00
O1187  O     0.88566   0.31016   0.89488   0.00000  Uiso   1.00
O1188  O     0.81427   0.20929   0.83333   0.00000  Uiso   1.00
O1189  O     0.61541   0.18270   0.88587   0.00000  Uiso   1.00
O1190  O     0.82827   0.02810   0.84618   0.00000  Uiso   1.00
O1191  O     0.76747   0.47197   0.74720   0.00000  Uiso   1.00
O1192  O     0.67091   0.03200   0.81252   0.00000  Uiso   1.00
O1193  O     0.74692   0.46994   0.92168   0.00000  Uiso   1.00
O1194  O     0.81427   0.29072   0.83333   0.00000  Uiso   1.00
O1195  O     0.68573   0.20929   0.83334   0.00000  Uiso   1.00
O1196  O     0.75000   0.29071   0.76280   0.00000  Uiso   1.00
O1197  O     0.75000   0.20929   0.90387   0.00000  Uiso   1.00
O1198  O     0.75000   0.29071   0.90387   0.00000  Uiso   1.00
O1199  O     0.75000   0.20929   0.76280   0.00000  Uiso   1.00
O1200  O     0.82303   0.12745   0.86968   0.00000  Uiso   1.00
C1201  C     0.16495   0.75012   0.83281   0.00000  Uiso   1.00
C1202  C     0.24691   0.94638   0.87730   0.00000  Uiso   1.00
C1203  C     0.24993   0.75018   0.74027   0.00000  Uiso   1.00
C1204  C     0.25002   0.74979   0.92640   0.00000  Uiso   1.00
C1205  C     0.24959   0.52755   0.83523   0.00000  Uiso   1.00
C1206  C     0.25014   0.97342   0.83386   0.00000  Uiso   1.00
C1207  C     0.24998   0.75019   0.68851   0.00000  Uiso   1.00
C1208  C     0.25000   0.74966   0.97815   0.00000  Uiso   1.00
C1209  C     0.04745   0.78406   0.79607   0.00000  Uiso   1.00
C1210  C     0.45139   0.72315   0.79583   0.00000  Uiso   1.00
C1211  C     0.45354   0.78522   0.85813   0.00000  Uiso   1.00
C1212  C     0.33495   0.75002   0.83324   0.00000  Uiso   1.00
C1213  C     0.04587   0.71824   0.85574   0.00000  Uiso   1.00
C1214  C     0.09396   0.78592   0.80156   0.00000  Uiso   1.00
C1215  C     0.40524   0.71918   0.80049   0.00000  Uiso   1.00
C1216  C     0.40728   0.78370   0.86022   0.00000  Uiso   1.00
C1217  C     0.09247   0.71551   0.85603   0.00000  Uiso   1.00
C1218  C     0.11636   0.75062   0.83036   0.00000  Uiso   1.00
C1219  C     0.38328   0.75064   0.83153   0.00000  Uiso   1.00
C1220  C     0.02386   0.75267   0.82611   0.00000  Uiso   1.00
C1221  C     0.47539   0.75468   0.82589   0.00000  Uiso   1.00
C1222  C     0.31796   0.63651   0.92023   0.00000  Uiso   1.00
C1223  C     0.28648   0.60377   0.85099   0.00000  Uiso   1.00
C1224  C     0.22506   0.87478   0.71750   0.00000  Uiso   1.00
C1225  C     0.17888   0.62285   0.74386   0.00000  Uiso   1.00
C1226  C     0.18322   0.87752   0.92199   0.00000  Uiso   1.00
C1227  C     0.03574   0.80653   0.71529   0.00000  Uiso   1.00
C1228  C     0.46398   0.70804   0.71533   0.00000  Uiso   1.00
C1229  C     0.49316   0.85420   0.87018   0.00000  Uiso   1.00
C1230  C     0.01985   0.69655   0.93023   0.00000  Uiso   1.00
C1231  C     0.10923   0.86594   0.79568   0.00000  Uiso   1.00
C1232  C     0.39154   0.63978   0.78713   0.00000  Uiso   1.00
C1233  C     0.38037   0.85785   0.87795   0.00000  Uiso   1.00
C1234  C     0.25597   0.89733   0.79058   0.00000  Uiso   1.00
C1235  C     0.10539   0.63543   0.87193   0.00000  Uiso   1.00
C1236  C     0.35260   0.53144   0.89080   0.00000  Uiso   1.00
C1237  C     0.23167   0.99907   0.72701   0.00000  Uiso   1.00
C1238  C     0.15309   0.51146   0.85527   0.00000  Uiso   1.00
C1239  C     0.28360   0.95441   0.95126   0.00000  Uiso   1.00
C1240  C     0.21360   0.60446   0.81672   0.00000  Uiso   1.00
C1241  C     0.24199   0.89578   0.87550   0.00000  Uiso   1.00
C1242  C     0.28838   0.55290   0.84703   0.00000  Uiso   1.00
C1243  C     0.25563   0.94831   0.79001   0.00000  Uiso   1.00
C1244  C     0.21075   0.55423   0.82371   0.00000  Uiso   1.00
Cu1245 Cu    0.25000   0.79822   0.83333   0.00000  Uiso   1.00
Cu1246 Cu    0.25000   0.70179   0.83333   0.00000  Uiso   1.00
H1247  H     0.28468   0.62788   0.93477   0.00000  Uiso   1.00
H1248  H     0.17234   0.85414   0.95252   0.00000  Uiso   1.00
H1249  H     0.16497   0.86604   0.88830   0.00000  Uiso   1.00
H1250  H     0.17433   0.91488   0.93100   0.00000  Uiso   1.00
H1251  H     0.04305   0.76828   0.70794   0.00000  Uiso   1.00
H1252  H     0.06434   0.82896   0.70506   0.00000  Uiso   1.00
H1253  H     0.00748   0.81735   0.69074   0.00000  Uiso   1.00
H1254  H     0.43532   0.68747   0.70068   0.00000  Uiso   1.00
H1255  H     0.49291   0.69925   0.69327   0.00000  Uiso   1.00
H1256  H     0.45753   0.74708   0.71030   0.00000  Uiso   1.00
H1257  H     0.02890   0.85005   0.86348   0.00000  Uiso   1.00
H1258  H     0.32511   0.67472   0.92700   0.00000  Uiso   1.00
H1259  H     0.49002   0.88386   0.89642   0.00000  Uiso   1.00
H1260  H     0.47522   0.86525   0.83548   0.00000  Uiso   1.00
H1261  H     0.00272   0.73125   0.93509   0.00000  Uiso   1.00
H1262  H     0.05340   0.69739   0.94800   0.00000  Uiso   1.00
H1263  H     0.00061   0.66855   0.94925   0.00000  Uiso   1.00
H1264  H     0.08013   0.88237   0.77626   0.00000  Uiso   1.00
H1265  H     0.13805   0.88940   0.78913   0.00000  Uiso   1.00
H1266  H     0.10391   0.86545   0.83595   0.00000  Uiso   1.00
H1267  H     0.41978   0.62625   0.76618   0.00000  Uiso   1.00
H1268  H     0.39903   0.63580   0.82728   0.00000  Uiso   1.00
H1269  H     0.34318   0.61619   0.94223   0.00000  Uiso   1.00
H1270  H     0.36277   0.61661   0.77825   0.00000  Uiso   1.00
H1271  H     0.34943   0.87230   0.89298   0.00000  Uiso   1.00
H1272  H     0.37737   0.86165   0.83717   0.00000  Uiso   1.00
H1273  H     0.40799   0.88012   0.89219   0.00000  Uiso   1.00
H1274  H     0.07801   0.62098   0.89389   0.00000  Uiso   1.00
H1275  H     0.09741   0.63184   0.83195   0.00000  Uiso   1.00
H1276  H     0.13476   0.61280   0.88069   0.00000  Uiso   1.00
H1277  H     0.37743   0.56043   0.88816   0.00000  Uiso   1.00
H1278  H     0.37137   0.99768   0.89689   0.00000  Uiso   1.00
H1279  H     0.33148   0.53627   0.92311   0.00000  Uiso   1.00
H1280  H     0.23062   0.85174   0.68554   0.00000  Uiso   1.00
H1281  H     0.23776   0.53753   0.73325   0.00000  Uiso   1.00
H1282  H     0.19864   0.98808   0.74029   0.00000  Uiso   1.00
H1283  H     0.23009   0.99459   0.68679   0.00000  Uiso   1.00
H1284  H     0.11669   0.51667   0.85355   0.00000  Uiso   1.00
H1285  H     0.16560   0.52744   0.89029   0.00000  Uiso   1.00
H1286  H     0.15933   0.97240   0.85596   0.00000  Uiso   1.00
H1287  H     0.29374   0.98368   0.97604   0.00000  Uiso   1.00
H1288  H     0.31319   0.94502   0.92983   0.00000  Uiso   1.00
H1289  H     0.27436   0.92350   0.97462   0.00000  Uiso   1.00
H1290  H     0.21635   0.91057   0.70263   0.00000  Uiso   1.00
H1291  H     0.19662   0.85964   0.73753   0.00000  Uiso   1.00
H1292  H     0.21220   0.62966   0.72876   0.00000  Uiso   1.00
H1293  H     0.15567   0.64912   0.72629   0.00000  Uiso   1.00
H1294  H     0.16721   0.58663   0.73364   0.00000  Uiso   1.00
N1295  N     0.25000   0.62935   0.83333   0.00000  Uiso   1.00
N1296  N     0.25000   0.87066   0.83333   0.00000  Uiso   1.00
O1297  O     0.18573   0.79071   0.83334   0.00000  Uiso   1.00
O1298  O     0.26438   0.87514   0.74698   0.00000  Uiso   1.00
O1299  O     0.17824   0.62874   0.79514   0.00000  Uiso   1.00
O1300  O     0.22934   0.87232   0.91755   0.00000  Uiso   1.00
O1301  O     0.02414   0.81483   0.76436   0.00000  Uiso   1.00
O1302  O     0.47412   0.69423   0.76436   0.00000  Uiso   1.00
O1303  O     0.47696   0.81205   0.89234   0.00000  Uiso   1.00
O1304  O     0.02127   0.68444   0.88037   0.00000  Uiso   1.00
O1305  O     0.11814   0.82021   0.77678   0.00000  Uiso   1.00
O1306  O     0.38077   0.68715   0.77248   0.00000  Uiso   1.00
O1307  O     0.38566   0.81016   0.89488   0.00000  Uiso   1.00
O1308  O     0.31427   0.70929   0.83333   0.00000  Uiso   1.00
O1309  O     0.11541   0.68270   0.88587   0.00000  Uiso   1.00
O1310  O     0.32827   0.52810   0.84618   0.00000  Uiso   1.00
O1311  O     0.26747   0.97197   0.74720   0.00000  Uiso   1.00
O1312  O     0.17091   0.53200   0.81252   0.00000  Uiso   1.00
O1313  O     0.24692   0.96994   0.92168   0.00000  Uiso   1.00
O1314  O     0.31427   0.79072   0.83333   0.00000  Uiso   1.00
O1315  O     0.18573   0.70929   0.83334   0.00000  Uiso   1.00
O1316  O     0.25000   0.79071   0.76280   0.00000  Uiso   1.00
O1317  O     0.25000   0.70929   0.90387   0.00000  Uiso   1.00
O1318  O     0.25000   0.79071   0.90387   0.00000  Uiso   1.00
O1319  O     0.25000   0.70929   0.76280   0.00000  Uiso   1.00
O1320  O     0.32303   0.62745   0.86968   0.00000  Uiso   1.00
C1321  C     0.66495   0.75012   0.83281   0.00000  Uiso   1.00
C1322  C     0.74691   0.94638   0.87730   0.00000  Uiso   1.00
C1323  C     0.74993   0.75018   0.74027   0.00000  Uiso   1.00
C1324  C     0.75002   0.74979   0.92640   0.00000  Uiso   1.00
C1325  C     0.74959   0.52755   0.83523   0.00000  Uiso   1.00
C1326  C     0.75014   0.97342   0.83386   0.00000  Uiso   1.00
C1327  C     0.74998   0.75019   0.68851   0.00000  Uiso   1.00
C1328  C     0.75000   0.74966   0.97815   0.00000  Uiso   1.00
C1329  C     0.54745   0.78406   0.79607   0.00000  Uiso   1.00
C1330  C     0.95139   0.72315   0.79583   0.00000  Uiso   1.00
C1331  C     0.95354   0.78522   0.85813   0.00000  Uiso   1.00
C1332  C     0.83495   0.75002   0.83324   0.00000  Uiso   1.00
C1333  C     0.54587   0.71824   0.85574   0.00000  Uiso   1.00
C1334  C     0.59396   0.78592   0.80156   0.00000  Uiso   1.00
C1335  C     0.90524   0.71918   0.80049   0.00000  Uiso   1.00
C1336  C     0.90728   0.78370   0.86022   0.00000  Uiso   1.00
C1337  C     0.59247   0.71551   0.85603   0.00000  Uiso   1.00
C1338  C     0.61636   0.75062   0.83036   0.00000  Uiso   1.00
C1339  C     0.88328   0.75064   0.83153   0.00000  Uiso   1.00
C1340  C     0.52386   0.75267   0.82611   0.00000  Uiso   1.00
C1341  C     0.97539   0.75468   0.82589   0.00000  Uiso   1.00
C1342  C     0.81796   0.63651   0.92023   0.00000  Uiso   1.00
C1343  C     0.78648   0.60377   0.85099   0.00000  Uiso   1.00
C1344  C     0.72506   0.87478   0.71750   0.00000  Uiso   1.00
C1345  C     0.67888   0.62285   0.74386   0.00000  Uiso   1.00
C1346  C     0.68322   0.87752   0.92199   0.00000  Uiso   1.00
C1347  C     0.53574   0.80653   0.71529   0.00000  Uiso   1.00
C1348  C     0.96398   0.70804   0.71533   0.00000  Uiso   1.00
C1349  C     0.99316   0.85420   0.87018   0.00000  Uiso   1.00
C1350  C     0.51985   0.69655   0.93023   0.00000  Uiso   1.00
C1351  C     0.60923   0.86594   0.79568   0.00000  Uiso   1.00
C1352  C     0.89154   0.63978   0.78713   0.00000  Uiso   1.00
C1353  C     0.88037   0.85785   0.87795   0.00000  Uiso   1.00
C1354  C     0.75597   0.89733   0.79058   0.00000  Uiso   1.00
C1355  C     0.60539   0.63543   0.87193   0.00000  Uiso   1.00
C1356  C     0.85260   0.53144   0.89080   0.00000  Uiso   1.00
C1357  C     0.73167   0.99907   0.72701   0.00000  Uiso   1.00
C1358  C     0.65309   0.51146   0.85527   0.00000  Uiso   1.00
C1359  C     0.78360   0.95441   0.95126   0.00000  Uiso   1.00
C1360  C     0.71360   0.60446   0.81672   0.00000  Uiso   1.00
C1361  C     0.74199   0.89578   0.87550   0.00000  Uiso   1.00
C1362  C     0.78838   0.55290   0.84703   0.00000  Uiso   1.00
C1363  C     0.75563   0.94831   0.79001   0.00000  Uiso   1.00
C1364  C     0.71075   0.55423   0.82371   0.00000  Uiso   1.00
Cu1365 Cu    0.75000   0.79822   0.83333   0.00000  Uiso   1.00
Cu1366 Cu    0.75000   0.70179   0.83333   0.00000  Uiso   1.00
H1367  H     0.78468   0.62788   0.93477   0.00000  Uiso   1.00
H1368  H     0.67234   0.85414   0.95252   0.00000  Uiso   1.00
H1369  H     0.66497   0.86604   0.88830   0.00000  Uiso   1.00
H1370  H     0.67433   0.91488   0.93100   0.00000  Uiso   1.00
H1371  H     0.54305   0.76828   0.70794   0.00000  Uiso   1.00
H1372  H     0.56434   0.82896   0.70506   0.00000  Uiso   1.00
H1373  H     0.50748   0.81735   0.69074   0.00000  Uiso   1.00
H1374  H     0.93532   0.68747   0.70068   0.00000  Uiso   1.00
H1375  H     0.99291   0.69925   0.69327   0.00000  Uiso   1.00
H1376  H     0.95753   0.74708   0.71030   0.00000  Uiso   1.00
H1377  H     0.52890   0.85005   0.86348   0.00000  Uiso   1.00
H1378  H     0.82511   0.67472   0.92700   0.00000  Uiso   1.00
H1379  H     0.99002   0.88386   0.89642   0.00000  Uiso   1.00
H1380  H     0.97522   0.86525   0.83548   0.00000  Uiso   1.00
H1381  H     0.50272   0.73125   0.93509   0.00000  Uiso   1.00
H1382  H     0.55340   0.69739   0.94800   0.00000  Uiso   1.00
H1383  H     0.50061   0.66855   0.94925   0.00000  Uiso   1.00
H1384  H     0.58013   0.88237   0.77626   0.00000  Uiso   1.00
H1385  H     0.63805   0.88940   0.78913   0.00000  Uiso   1.00
H1386  H     0.60391   0.86545   0.83595   0.00000  Uiso   1.00
H1387  H     0.91978   0.62625   0.76618   0.00000  Uiso   1.00
H1388  H     0.89903   0.63580   0.82728   0.00000  Uiso   1.00
H1389  H     0.84318   0.61619   0.94223   0.00000  Uiso   1.00
H1390  H     0.86277   0.61661   0.77825   0.00000  Uiso   1.00
H1391  H     0.84943   0.87230   0.89298   0.00000  Uiso   1.00
H1392  H     0.87737   0.86165   0.83717   0.00000  Uiso   1.00
H1393  H     0.90799   0.88012   0.89219   0.00000  Uiso   1.00
H1394  H     0.57801   0.62098   0.89389   0.00000  Uiso   1.00
H1395  H     0.59741   0.63184   0.83195   0.00000  Uiso   1.00
H1396  H     0.63476   0.61280   0.88069   0.00000  Uiso   1.00
H1397  H     0.87743   0.56043   0.88816   0.00000  Uiso   1.00
H1398  H     0.87137   0.99768   0.89689   0.00000  Uiso   1.00
H1399  H     0.83148   0.53627   0.92311   0.00000  Uiso   1.00
H1400  H     0.73062   0.85174   0.68554   0.00000  Uiso   1.00
H1401  H     0.73776   0.53753   0.73325   0.00000  Uiso   1.00
H1402  H     0.69864   0.98808   0.74029   0.00000  Uiso   1.00
H1403  H     0.73009   0.99459   0.68679   0.00000  Uiso   1.00
H1404  H     0.61669   0.51667   0.85355   0.00000  Uiso   1.00
H1405  H     0.66560   0.52744   0.89029   0.00000  Uiso   1.00
H1406  H     0.65933   0.97240   0.85596   0.00000  Uiso   1.00
H1407  H     0.79374   0.98368   0.97604   0.00000  Uiso   1.00
H1408  H     0.81319   0.94502   0.92983   0.00000  Uiso   1.00
H1409  H     0.77436   0.92350   0.97462   0.00000  Uiso   1.00
H1410  H     0.71635   0.91057   0.70263   0.00000  Uiso   1.00
H1411  H     0.69662   0.85964   0.73753   0.00000  Uiso   1.00
H1412  H     0.71220   0.62966   0.72876   0.00000  Uiso   1.00
H1413  H     0.65567   0.64912   0.72629   0.00000  Uiso   1.00
H1414  H     0.66721   0.58663   0.73364   0.00000  Uiso   1.00
N1415  N     0.75000   0.62935   0.83333   0.00000  Uiso   1.00
N1416  N     0.75000   0.87066   0.83333   0.00000  Uiso   1.00
O1417  O     0.68573   0.79071   0.83334   0.00000  Uiso   1.00
O1418  O     0.76438   0.87514   0.74698   0.00000  Uiso   1.00
O1419  O     0.67824   0.62874   0.79514   0.00000  Uiso   1.00
O1420  O     0.72934   0.87232   0.91755   0.00000  Uiso   1.00
O1421  O     0.52414   0.81483   0.76436   0.00000  Uiso   1.00
O1422  O     0.97412   0.69423   0.76436   0.00000  Uiso   1.00
O1423  O     0.97696   0.81205   0.89234   0.00000  Uiso   1.00
O1424  O     0.52127   0.68444   0.88037   0.00000  Uiso   1.00
O1425  O     0.61814   0.82021   0.77678   0.00000  Uiso   1.00
O1426  O     0.88077   0.68715   0.77248   0.00000  Uiso   1.00
O1427  O     0.88566   0.81016   0.89488   0.00000  Uiso   1.00
O1428  O     0.81427   0.70929   0.83333   0.00000  Uiso   1.00
O1429  O     0.61541   0.68270   0.88587   0.00000  Uiso   1.00
O1430  O     0.82827   0.52810   0.84618   0.00000  Uiso   1.00
O1431  O     0.76747   0.97197   0.74720   0.00000  Uiso   1.00
O1432  O     0.67091   0.53200   0.81252   0.00000  Uiso   1.00
O1433  O     0.74692   0.96994   0.92168   0.00000  Uiso   1.00
O1434  O     0.81427   0.79072   0.83333   0.00000  Uiso   1.00
O1435  O     0.68573   0.70929   0.83334   0.00000  Uiso   1.00
O1436  O     0.75000   0.79071   0.76280   0.00000  Uiso   1.00
O1437  O     0.75000   0.70929   0.90387   0.00000  Uiso   1.00
O1438  O     0.75000   0.79071   0.90387   0.00000  Uiso   1.00
O1439  O     0.75000   0.70929   0.76280   0.00000  Uiso   1.00
O1440  O     0.82303   0.62745   0.86968   0.00000  Uiso   1.00
loop_
_geom_bond_atom_site_label_1
_geom_bond_atom_site_label_2
_geom_bond_distance
_geom_bond_site_symmetry_2
_ccdc_geom_bond_type
C1     C18     1.469   .     S
C1     O97     1.300   .     A
C1     O115    1.303   .     A
C2     O113    1.386   .     S
C2     C41     1.426   .     A
C2     C6      1.402   .     A
C3     C7      1.410   .     S
C3     O116    1.298   .     A
C3     O119    1.291   .     A
C4     C8      1.410   .     S
C4     O118    1.292   .     A
C4     O117    1.297   .     A
C5     C42     1.404   .     A
C5     C44     1.415   .     A
C5     C246    1.516   1_545 S
C6     C43     1.409   .     A
C6     C245    1.516   .     S
C7     C968    1.191   1_554 S
C8     C487    1.191   .     S
C9     C14     1.411   .     A
C9     C20     1.402   .     A
C9     O101    1.388   .     S
C10    C21     1.402   .     A
C10    O102    1.383   .     S
C10    C15     1.409   .     A
C11    C21     1.410   .     A
C11    C16     1.402   .     A
C11    O103    1.386   .     S
C12    O114    1.298   .     A
C12    O108    1.301   .     A
C12    C19     1.463   .     S
C13    O104    1.383   .     S
C13    C20     1.403   .     A
C13    C17     1.410   .     A
C14    C18     1.413   .     A
C14    O105    1.387   .     S
C15    C19     1.408   .     A
C15    O106    1.387   .     S
C16    O107    1.386   .     S
C16    C19     1.409   .     A
C17    C18     1.410   .     A
C17    O109    1.389   .     S
C20    C141    1.466   1_455 S
C21    C140    1.466   .     S
C22    H69     1.108   .     S
C22    H47     1.117   .     S
C22    O120    1.417   .     S
C22    H58     1.109   .     S
C23    C42     1.431   .     A
C23    O120    1.379   .     S
C23    N95     1.384   .     A
C24    O98     1.416   .     S
C24    H80     1.107   .     S
C24    H90     1.104   .     S
C24    H91     1.113   .     S
C25    H93     1.109   .     S
C25    O99     1.410   .     S
C25    H94     1.111   .     S
C25    H92     1.114   .     S
C26    H50     1.112   .     S
C26    H48     1.109   .     S
C26    H49     1.110   .     S
C26    O100    1.410   .     S
C27    H51     1.115   .     S
C27    H52     1.109   .     S
C27    H53     1.109   .     S
C27    O101    1.414   .     S
C28    H56     1.115   .     S
C28    H55     1.104   .     S
C28    H54     1.110   .     S
C28    O102    1.411   .     S
C29    O103    1.413   .     S
C29    H59     1.109   .     S
C29    H60     1.116   .     S
C29    H177    1.107   .     S
C30    H63     1.108   .     S
C30    H62     1.112   .     S
C30    H61     1.111   .     S
C30    O104    1.407   .     S
C31    H66     1.113   .     S
C31    O105    1.415   .     S
C31    H65     1.109   .     S
C31    H64     1.109   .     S
C32    H68     1.115   .     S
C32    O106    1.414   .     S
C32    H70     1.109   .     S
C32    H67     1.109   .     S
C33    O107    1.413   .     S
C33    H72     1.116   .     S
C33    H73     1.108   .     S
C33    H71     1.109   .     S
C34    N96     1.391   .     A
C34    C43     1.427   .     A
C34    O98     1.378   .     S
C35    H74     1.109   .     S
C35    H75     1.115   .     S
C35    O109    1.413   .     S
C35    H76     1.108   .     S
C36    O110    1.408   .     S
C36    H79     1.112   .     S
C36    H77     1.109   .     S
C36    H318    1.109   1_545 S
C37    H82     1.114   .     S
C37    O111    1.414   .     S
C37    H83     1.105   .     S
C37    H321    1.107   .     S
C38    H85     1.116   .     S
C38    O112    1.413   .     S
C38    H84     1.109   .     S
C38    H326    1.109   1_545 S
C39    H87     1.108   .     S
C39    O113    1.416   .     S
C39    H88     1.115   .     S
C39    H89     1.108   .     S
C40    O99     1.378   .     S
C40    N95     1.373   .     A
C40    C44     1.419   .     A
C41    N96     1.383   .     A
C41    O100    1.377   .     S
C42    O110    1.391   .     S
C43    O111    1.389   .     S
C44    O112    1.385   .     S
Cu45   O118    1.931   .     S
Cu45   Cu46    2.699   .     S
Cu45   O114    1.953   .     S
Cu45   O97     1.954   .     S
Cu45   O116    1.937   .     S
Cu45   N96     2.028   .     S
Cu46   O115    1.953   .     S
Cu46   N95     2.028   .     S
Cu46   O108    1.954   .     S
Cu46   O117    1.937   .     S
Cu46   O119    1.931   .     S
H57    C149    1.107   1_455 S
H78    C276    1.109   .     S
H81    C277    1.107   1_545 S
H86    C278    1.109   .     S
C121   C138    1.469   .     S
C121   O217    1.300   .     A
C121   O235    1.303   .     A
C122   O233    1.386   .     S
C122   C161    1.426   .     A
C122   C126    1.402   .     A
C123   C127    1.410   .     S
C123   O236    1.298   .     A
C123   O239    1.291   .     A
C124   C128    1.410   .     S
C124   O238    1.292   .     A
C124   O237    1.297   .     A
C125   C162    1.404   .     A
C125   C164    1.415   .     A
C125   C366    1.516   1_545 S
C126   C163    1.409   .     A
C126   C365    1.516   .     S
C127   C1088   1.191   1_554 S
C128   C607    1.191   .     S
C129   C134    1.411   .     A
C129   C140    1.402   .     A
C129   O221    1.388   .     S
C130   C141    1.402   .     A
C130   O222    1.383   .     S
C130   C135    1.409   .     A
C131   C141    1.410   .     A
C131   C136    1.402   .     A
C131   O223    1.386   .     S
C132   O234    1.298   .     A
C132   O228    1.301   .     A
C132   C139    1.463   .     S
C133   O224    1.383   .     S
C133   C140    1.403   .     A
C133   C137    1.410   .     A
C134   C138    1.413   .     A
C134   O225    1.387   .     S
C135   C139    1.408   .     A
C135   O226    1.387   .     S
C136   O227    1.386   .     S
C136   C139    1.409   .     A
C137   C138    1.410   .     A
C137   O229    1.389   .     S
C141   C20     1.466   1_655 S
C142   H189    1.108   .     S
C142   H167    1.117   .     S
C142   O240    1.417   .     S
C142   H178    1.109   .     S
C143   C162    1.431   .     A
C143   O240    1.379   .     S
C143   N215    1.384   .     A
C144   O218    1.416   .     S
C144   H200    1.107   .     S
C144   H210    1.104   .     S
C144   H211    1.113   .     S
C145   H213    1.109   .     S
C145   O219    1.410   .     S
C145   H214    1.111   .     S
C145   H212    1.114   .     S
C146   H170    1.112   .     S
C146   H168    1.109   .     S
C146   H169    1.110   .     S
C146   O220    1.410   .     S
C147   H171    1.115   .     S
C147   H172    1.109   .     S
C147   H173    1.109   .     S
C147   O221    1.414   .     S
C148   H176    1.115   .     S
C148   H175    1.104   .     S
C148   H174    1.110   .     S
C148   O222    1.411   .     S
C149   O223    1.413   .     S
C149   H179    1.109   .     S
C149   H180    1.116   .     S
C149   H57     1.107   1_655 S
C150   H183    1.108   .     S
C150   H182    1.112   .     S
C150   H181    1.111   .     S
C150   O224    1.407   .     S
C151   H186    1.113   .     S
C151   O225    1.415   .     S
C151   H185    1.109   .     S
C151   H184    1.109   .     S
C152   H188    1.115   .     S
C152   O226    1.414   .     S
C152   H190    1.109   .     S
C152   H187    1.109   .     S
C153   O227    1.413   .     S
C153   H192    1.116   .     S
C153   H193    1.108   .     S
C153   H191    1.109   .     S
C154   N216    1.391   .     A
C154   C163    1.427   .     A
C154   O218    1.378   .     S
C155   H194    1.109   .     S
C155   H195    1.115   .     S
C155   O229    1.413   .     S
C155   H196    1.108   .     S
C156   O230    1.408   .     S
C156   H199    1.112   .     S
C156   H197    1.109   .     S
C156   H438    1.109   1_545 S
C157   H202    1.114   .     S
C157   O231    1.414   .     S
C157   H203    1.105   .     S
C157   H441    1.107   .     S
C158   H205    1.116   .     S
C158   O232    1.413   .     S
C158   H204    1.109   .     S
C158   H446    1.109   1_545 S
C159   H207    1.108   .     S
C159   O233    1.416   .     S
C159   H208    1.115   .     S
C159   H209    1.108   .     S
C160   O219    1.378   .     S
C160   N215    1.373   .     A
C160   C164    1.419   .     A
C161   N216    1.383   .     A
C161   O220    1.377   .     S
C162   O230    1.391   .     S
C163   O231    1.389   .     S
C164   O232    1.385   .     S
Cu165  O238    1.931   .     S
Cu165  Cu166   2.699   .     S
Cu165  O234    1.953   .     S
Cu165  O217    1.954   .     S
Cu165  O236    1.937   .     S
Cu165  N216    2.028   .     S
Cu166  O235    1.953   .     S
Cu166  N215    2.028   .     S
Cu166  O228    1.954   .     S
Cu166  O237    1.937   .     S
Cu166  O239    1.931   .     S
H198   C396    1.109   .     S
H201   C397    1.107   1_545 S
H206   C398    1.109   .     S
C241   C258    1.469   .     S
C241   O337    1.300   .     A
C241   O355    1.303   .     A
C242   O353    1.386   .     S
C242   C281    1.426   .     A
C242   C246    1.402   .     A
C243   C247    1.410   .     S
C243   O356    1.298   .     A
C243   O359    1.291   .     A
C244   C248    1.410   .     S
C244   O358    1.292   .     A
C244   O357    1.297   .     A
C245   C282    1.404   .     A
C245   C284    1.415   .     A
C246   C283    1.409   .     A
C246   C5      1.516   1_565 S
C247   C1208   1.191   1_554 S
C248   C727    1.191   .     S
C249   C254    1.411   .     A
C249   C260    1.402   .     A
C249   O341    1.388   .     S
C250   C261    1.402   .     A
C250   O342    1.383   .     S
C250   C255    1.409   .     A
C251   C261    1.410   .     A
C251   C256    1.402   .     A
C251   O343    1.386   .     S
C252   O354    1.298   .     A
C252   O348    1.301   .     A
C252   C259    1.463   .     S
C253   O344    1.383   .     S
C253   C260    1.403   .     A
C253   C257    1.410   .     A
C254   C258    1.413   .     A
C254   O345    1.387   .     S
C255   C259    1.408   .     A
C255   O346    1.387   .     S
C256   O347    1.386   .     S
C256   C259    1.409   .     A
C257   C258    1.410   .     A
C257   O349    1.389   .     S
C260   C381    1.466   1_455 S
C261   C380    1.466   .     S
C262   H309    1.108   .     S
C262   H287    1.117   .     S
C262   O360    1.417   .     S
C262   H298    1.109   .     S
C263   C282    1.431   .     A
C263   O360    1.379   .     S
C263   N335    1.384   .     A
C264   O338    1.416   .     S
C264   H320    1.107   .     S
C264   H330    1.104   .     S
C264   H331    1.113   .     S
C265   H333    1.109   .     S
C265   O339    1.410   .     S
C265   H334    1.111   .     S
C265   H332    1.114   .     S
C266   H290    1.112   .     S
C266   H288    1.109   .     S
C266   H289    1.110   .     S
C266   O340    1.410   .     S
C267   H291    1.115   .     S
C267   H292    1.109   .     S
C267   H293    1.109   .     S
C267   O341    1.414   .     S
C268   H296    1.115   .     S
C268   H295    1.104   .     S
C268   H294    1.110   .     S
C268   O342    1.411   .     S
C269   O343    1.413   .     S
C269   H299    1.109   .     S
C269   H300    1.116   .     S
C269   H417    1.107   .     S
C270   H303    1.108   .     S
C270   H302    1.112   .     S
C270   H301    1.111   .     S
C270   O344    1.407   .     S
C271   H306    1.113   .     S
C271   O345    1.415   .     S
C271   H305    1.109   .     S
C271   H304    1.109   .     S
C272   H308    1.115   .     S
C272   O346    1.414   .     S
C272   H310    1.109   .     S
C272   H307    1.109   .     S
C273   O347    1.413   .     S
C273   H312    1.116   .     S
C273   H313    1.108   .     S
C273   H311    1.109   .     S
C274   N336    1.391   .     A
C274   C283    1.427   .     A
C274   O338    1.378   .     S
C275   H314    1.109   .     S
C275   H315    1.115   .     S
C275   O349    1.413   .     S
C275   H316    1.108   .     S
C276   O350    1.408   .     S
C276   H319    1.112   .     S
C276   H317    1.109   .     S
C277   H322    1.114   .     S
C277   O351    1.414   .     S
C277   H323    1.105   .     S
C277   H81     1.107   1_565 S
C278   H325    1.116   .     S
C278   O352    1.413   .     S
C278   H324    1.109   .     S
C279   H327    1.108   .     S
C279   O353    1.416   .     S
C279   H328    1.115   .     S
C279   H329    1.108   .     S
C280   O339    1.378   .     S
C280   N335    1.373   .     A
C280   C284    1.419   .     A
C281   N336    1.383   .     A
C281   O340    1.377   .     S
C282   O350    1.391   .     S
C283   O351    1.389   .     S
C284   O352    1.385   .     S
Cu285  O358    1.931   .     S
Cu285  Cu286   2.699   .     S
Cu285  O354    1.953   .     S
Cu285  O337    1.954   .     S
Cu285  O356    1.937   .     S
Cu285  N336    2.028   .     S
Cu286  O355    1.953   .     S
Cu286  N335    2.028   .     S
Cu286  O348    1.954   .     S
Cu286  O357    1.937   .     S
Cu286  O359    1.931   .     S
H297   C389    1.107   1_455 S
H318   C36     1.109   1_565 S
H326   C38     1.109   1_565 S
C361   C378    1.469   .     S
C361   O457    1.300   .     A
C361   O475    1.303   .     A
C362   O473    1.386   .     S
C362   C401    1.426   .     A
C362   C366    1.402   .     A
C363   C367    1.410   .     S
C363   O476    1.298   .     A
C363   O479    1.291   .     A
C364   C368    1.410   .     S
C364   O478    1.292   .     A
C364   O477    1.297   .     A
C365   C402    1.404   .     A
C365   C404    1.415   .     A
C366   C403    1.409   .     A
C366   C125    1.516   1_565 S
C367   C1328   1.191   1_554 S
C368   C847    1.191   .     S
C369   C374    1.411   .     A
C369   C380    1.402   .     A
C369   O461    1.388   .     S
C370   C381    1.402   .     A
C370   O462    1.383   .     S
C370   C375    1.409   .     A
C371   C381    1.410   .     A
C371   C376    1.402   .     A
C371   O463    1.386   .     S
C372   O474    1.298   .     A
C372   O468    1.301   .     A
C372   C379    1.463   .     S
C373   O464    1.383   .     S
C373   C380    1.403   .     A
C373   C377    1.410   .     A
C374   C378    1.413   .     A
C374   O465    1.387   .     S
C375   C379    1.408   .     A
C375   O466    1.387   .     S
C376   O467    1.386   .     S
C376   C379    1.409   .     A
C377   C378    1.410   .     A
C377   O469    1.389   .     S
C381   C260    1.466   1_655 S
C382   H429    1.108   .     S
C382   H407    1.117   .     S
C382   O480    1.417   .     S
C382   H418    1.109   .     S
C383   C402    1.431   .     A
C383   O480    1.379   .     S
C383   N455    1.384   .     A
C384   O458    1.416   .     S
C384   H440    1.107   .     S
C384   H450    1.104   .     S
C384   H451    1.113   .     S
C385   H453    1.109   .     S
C385   O459    1.410   .     S
C385   H454    1.111   .     S
C385   H452    1.114   .     S
C386   H410    1.112   .     S
C386   H408    1.109   .     S
C386   H409    1.110   .     S
C386   O460    1.410   .     S
C387   H411    1.115   .     S
C387   H412    1.109   .     S
C387   H413    1.109   .     S
C387   O461    1.414   .     S
C388   H416    1.115   .     S
C388   H415    1.104   .     S
C388   H414    1.110   .     S
C388   O462    1.411   .     S
C389   O463    1.413   .     S
C389   H419    1.109   .     S
C389   H420    1.116   .     S
C389   H297    1.107   1_655 S
C390   H423    1.108   .     S
C390   H422    1.112   .     S
C390   H421    1.111   .     S
C390   O464    1.407   .     S
C391   H426    1.113   .     S
C391   O465    1.415   .     S
C391   H425    1.109   .     S
C391   H424    1.109   .     S
C392   H428    1.115   .     S
C392   O466    1.414   .     S
C392   H430    1.109   .     S
C392   H427    1.109   .     S
C393   O467    1.413   .     S
C393   H432    1.116   .     S
C393   H433    1.108   .     S
C393   H431    1.109   .     S
C394   N456    1.391   .     A
C394   C403    1.427   .     A
C394   O458    1.378   .     S
C395   H434    1.109   .     S
C395   H435    1.115   .     S
C395   O469    1.413   .     S
C395   H436    1.108   .     S
C396   O470    1.408   .     S
C396   H439    1.112   .     S
C396   H437    1.109   .     S
C397   H442    1.114   .     S
C397   O471    1.414   .     S
C397   H443    1.105   .     S
C397   H201    1.107   1_565 S
C398   H445    1.116   .     S
C398   O472    1.413   .     S
C398   H444    1.109   .     S
C399   H447    1.108   .     S
C399   O473    1.416   .     S
C399   H448    1.115   .     S
C399   H449    1.108   .     S
C400   O459    1.378   .     S
C400   N455    1.373   .     A
C400   C404    1.419   .     A
C401   N456    1.383   .     A
C401   O460    1.377   .     S
C402   O470    1.391   .     S
C403   O471    1.389   .     S
C404   O472    1.385   .     S
Cu405  O478    1.931   .     S
Cu405  Cu406   2.699   .     S
Cu405  O474    1.953   .     S
Cu405  O457    1.954   .     S
Cu405  O476    1.937   .     S
Cu405  N456    2.028   .     S
Cu406  O475    1.953   .     S
Cu406  N455    2.028   .     S
Cu406  O468    1.954   .     S
Cu406  O477    1.937   .     S
Cu406  O479    1.931   .     S
H438   C156    1.109   1_565 S
H446   C158    1.109   1_565 S
C481   C498    1.469   .     S
C481   O577    1.300   .     A
C481   O595    1.303   .     A
C482   O593    1.386   .     S
C482   C521    1.426   .     A
C482   C486    1.402   .     A
C483   C487    1.410   .     S
C483   O596    1.298   .     A
C483   O599    1.291   .     A
C484   C488    1.410   .     S
C484   O598    1.292   .     A
C484   O597    1.297   .     A
C485   C522    1.404   .     A
C485   C524    1.415   .     A
C485   C726    1.516   1_545 S
C486   C523    1.409   .     A
C486   C725    1.516   .     S
C488   C967    1.191   .     S
C489   C494    1.411   .     A
C489   C500    1.402   .     A
C489   O581    1.388   .     S
C490   C501    1.402   .     A
C490   O582    1.383   .     S
C490   C495    1.409   .     A
C491   C501    1.410   .     A
C491   C496    1.402   .     A
C491   O583    1.386   .     S
C492   O594    1.298   .     A
C492   O588    1.301   .     A
C492   C499    1.463   .     S
C493   O584    1.383   .     S
C493   C500    1.403   .     A
C493   C497    1.410   .     A
C494   C498    1.413   .     A
C494   O585    1.387   .     S
C495   C499    1.408   .     A
C495   O586    1.387   .     S
C496   O587    1.386   .     S
C496   C499    1.409   .     A
C497   C498    1.410   .     A
C497   O589    1.389   .     S
C500   C621    1.466   1_455 S
C501   C620    1.466   .     S
C502   H549    1.108   .     S
C502   H527    1.117   .     S
C502   O600    1.417   .     S
C502   H538    1.109   .     S
C503   C522    1.431   .     A
C503   O600    1.379   .     S
C503   N575    1.384   .     A
C504   O578    1.416   .     S
C504   H560    1.107   .     S
C504   H570    1.104   .     S
C504   H571    1.113   .     S
C505   H573    1.109   .     S
C505   O579    1.410   .     S
C505   H574    1.111   .     S
C505   H572    1.114   .     S
C506   H530    1.112   .     S
C506   H528    1.109   .     S
C506   H529    1.110   .     S
C506   O580    1.410   .     S
C507   H531    1.115   .     S
C507   H532    1.109   .     S
C507   H533    1.109   .     S
C507   O581    1.414   .     S
C508   H536    1.115   .     S
C508   H535    1.104   .     S
C508   H534    1.110   .     S
C508   O582    1.411   .     S
C509   O583    1.413   .     S
C509   H539    1.109   .     S
C509   H540    1.116   .     S
C509   H657    1.107   .     S
C510   H543    1.108   .     S
C510   H542    1.112   .     S
C510   H541    1.111   .     S
C510   O584    1.407   .     S
C511   H546    1.113   .     S
C511   O585    1.415   .     S
C511   H545    1.109   .     S
C511   H544    1.109   .     S
C512   H548    1.115   .     S
C512   O586    1.414   .     S
C512   H550    1.109   .     S
C512   H547    1.109   .     S
C513   O587    1.413   .     S
C513   H552    1.116   .     S
C513   H553    1.108   .     S
C513   H551    1.109   .     S
C514   N576    1.391   .     A
C514   C523    1.427   .     A
C514   O578    1.378   .     S
C515   H554    1.109   .     S
C515   H555    1.115   .     S
C515   O589    1.413   .     S
C515   H556    1.108   .     S
C516   O590    1.408   .     S
C516   H559    1.112   .     S
C516   H557    1.109   .     S
C516   H798    1.109   1_545 S
C517   H562    1.114   .     S
C517   O591    1.414   .     S
C517   H563    1.105   .     S
C517   H801    1.107   .     S
C518   H565    1.116   .     S
C518   O592    1.413   .     S
C518   H564    1.109   .     S
C518   H806    1.109   1_545 S
C519   H567    1.108   .     S
C519   O593    1.416   .     S
C519   H568    1.115   .     S
C519   H569    1.108   .     S
C520   O579    1.378   .     S
C520   N575    1.373   .     A
C520   C524    1.419   .     A
C521   N576    1.383   .     A
C521   O580    1.377   .     S
C522   O590    1.391   .     S
C523   O591    1.389   .     S
C524   O592    1.385   .     S
Cu525  O598    1.931   .     S
Cu525  Cu526   2.699   .     S
Cu525  O594    1.953   .     S
Cu525  O577    1.954   .     S
Cu525  O596    1.937   .     S
Cu525  N576    2.028   .     S
Cu526  O595    1.953   .     S
Cu526  N575    2.028   .     S
Cu526  O588    1.954   .     S
Cu526  O597    1.937   .     S
Cu526  O599    1.931   .     S
H537   C629    1.107   1_455 S
H558   C756    1.109   .     S
H561   C757    1.107   1_545 S
H566   C758    1.109   .     S
C601   C618    1.469   .     S
C601   O697    1.300   .     A
C601   O715    1.303   .     A
C602   O713    1.386   .     S
C602   C641    1.426   .     A
C602   C606    1.402   .     A
C603   C607    1.410   .     S
C603   O716    1.298   .     A
C603   O719    1.291   .     A
C604   C608    1.410   .     S
C604   O718    1.292   .     A
C604   O717    1.297   .     A
C605   C642    1.404   .     A
C605   C644    1.415   .     A
C605   C846    1.516   1_545 S
C606   C643    1.409   .     A
C606   C845    1.516   .     S
C608   C1087   1.191   .     S
C609   C614    1.411   .     A
C609   C620    1.402   .     A
C609   O701    1.388   .     S
C610   C621    1.402   .     A
C610   O702    1.383   .     S
C610   C615    1.409   .     A
C611   C621    1.410   .     A
C611   C616    1.402   .     A
C611   O703    1.386   .     S
C612   O714    1.298   .     A
C612   O708    1.301   .     A
C612   C619    1.463   .     S
C613   O704    1.383   .     S
C613   C620    1.403   .     A
C613   C617    1.410   .     A
C614   C618    1.413   .     A
C614   O705    1.387   .     S
C615   C619    1.408   .     A
C615   O706    1.387   .     S
C616   O707    1.386   .     S
C616   C619    1.409   .     A
C617   C618    1.410   .     A
C617   O709    1.389   .     S
C621   C500    1.466   1_655 S
C622   H669    1.108   .     S
C622   H647    1.117   .     S
C622   O720    1.417   .     S
C622   H658    1.109   .     S
C623   C642    1.431   .     A
C623   O720    1.379   .     S
C623   N695    1.384   .     A
C624   O698    1.416   .     S
C624   H680    1.107   .     S
C624   H690    1.104   .     S
C624   H691    1.113   .     S
C625   H693    1.109   .     S
C625   O699    1.410   .     S
C625   H694    1.111   .     S
C625   H692    1.114   .     S
C626   H650    1.112   .     S
C626   H648    1.109   .     S
C626   H649    1.110   .     S
C626   O700    1.410   .     S
C627   H651    1.115   .     S
C627   H652    1.109   .     S
C627   H653    1.109   .     S
C627   O701    1.414   .     S
C628   H656    1.115   .     S
C628   H655    1.104   .     S
C628   H654    1.110   .     S
C628   O702    1.411   .     S
C629   O703    1.413   .     S
C629   H659    1.109   .     S
C629   H660    1.116   .     S
C629   H537    1.107   1_655 S
C630   H663    1.108   .     S
C630   H662    1.112   .     S
C630   H661    1.111   .     S
C630   O704    1.407   .     S
C631   H666    1.113   .     S
C631   O705    1.415   .     S
C631   H665    1.109   .     S
C631   H664    1.109   .     S
C632   H668    1.115   .     S
C632   O706    1.414   .     S
C632   H670    1.109   .     S
C632   H667    1.109   .     S
C633   O707    1.413   .     S
C633   H672    1.116   .     S
C633   H673    1.108   .     S
C633   H671    1.109   .     S
C634   N696    1.391   .     A
C634   C643    1.427   .     A
C634   O698    1.378   .     S
C635   H674    1.109   .     S
C635   H675    1.115   .     S
C635   O709    1.413   .     S
C635   H676    1.108   .     S
C636   O710    1.408   .     S
C636   H679    1.112   .     S
C636   H677    1.109   .     S
C636   H918    1.109   1_545 S
C637   H682    1.114   .     S
C637   O711    1.414   .     S
C637   H683    1.105   .     S
C637   H921    1.107   .     S
C638   H685    1.116   .     S
C638   O712    1.413   .     S
C638   H684    1.109   .     S
C638   H926    1.109   1_545 S
C639   H687    1.108   .     S
C639   O713    1.416   .     S
C639   H688    1.115   .     S
C639   H689    1.108   .     S
C640   O699    1.378   .     S
C640   N695    1.373   .     A
C640   C644    1.419   .     A
C641   N696    1.383   .     A
C641   O700    1.377   .     S
C642   O710    1.391   .     S
C643   O711    1.389   .     S
C644   O712    1.385   .     S
Cu645  O718    1.931   .     S
Cu645  Cu646   2.699   .     S
Cu645  O714    1.953   .     S
Cu645  O697    1.954   .     S
Cu645  O716    1.937   .     S
Cu645  N696    2.028   .     S
Cu646  O715    1.953   .     S
Cu646  N695    2.028   .     S
Cu646  O708    1.954   .     S
Cu646  O717    1.937   .     S
Cu646  O719    1.931   .     S
H678   C876    1.109   .     S
H681   C877    1.107   1_545 S
H686   C878    1.109   .     S
C721   C738    1.469   .     S
C721   O817    1.300   .     A
C721   O835    1.303   .     A
C722   O833    1.386   .     S
C722   C761    1.426   .     A
C722   C726    1.402   .     A
C723   C727    1.410   .     S
C723   O836    1.298   .     A
C723   O839    1.291   .     A
C724   C728    1.410   .     S
C724   O838    1.292   .     A
C724   O837    1.297   .     A
C725   C762    1.404   .     A
C725   C764    1.415   .     A
C726   C763    1.409   .     A
C726   C485    1.516   1_565 S
C728   C1207   1.191   .     S
C729   C734    1.411   .     A
C729   C740    1.402   .     A
C729   O821    1.388   .     S
C730   C741    1.402   .     A
C730   O822    1.383   .     S
C730   C735    1.409   .     A
C731   C741    1.410   .     A
C731   C736    1.402   .     A
C731   O823    1.386   .     S
C732   O834    1.298   .     A
C732   O828    1.301   .     A
C732   C739    1.463   .     S
C733   O824    1.383   .     S
C733   C740    1.403   .     A
C733   C737    1.410   .     A
C734   C738    1.413   .     A
C734   O825    1.387   .     S
C735   C739    1.408   .     A
C735   O826    1.387   .     S
C736   O827    1.386   .     S
C736   C739    1.409   .     A
C737   C738    1.410   .     A
C737   O829    1.389   .     S
C740   C861    1.466   1_455 S
C741   C860    1.466   .     S
C742   H789    1.108   .     S
C742   H767    1.117   .     S
C742   O840    1.417   .     S
C742   H778    1.109   .     S
C743   C762    1.431   .     A
C743   O840    1.379   .     S
C743   N815    1.384   .     A
C744   O818    1.416   .     S
C744   H800    1.107   .     S
C744   H810    1.104   .     S
C744   H811    1.113   .     S
C745   H813    1.109   .     S
C745   O819    1.410   .     S
C745   H814    1.111   .     S
C745   H812    1.114   .     S
C746   H770    1.112   .     S
C746   H768    1.109   .     S
C746   H769    1.110   .     S
C746   O820    1.410   .     S
C747   H771    1.115   .     S
C747   H772    1.109   .     S
C747   H773    1.109   .     S
C747   O821    1.414   .     S
C748   H776    1.115   .     S
C748   H775    1.104   .     S
C748   H774    1.110   .     S
C748   O822    1.411   .     S
C749   O823    1.413   .     S
C749   H779    1.109   .     S
C749   H780    1.116   .     S
C749   H897    1.107   .     S
C750   H783    1.108   .     S
C750   H782    1.112   .     S
C750   H781    1.111   .     S
C750   O824    1.407   .     S
C751   H786    1.113   .     S
C751   O825    1.415   .     S
C751   H785    1.109   .     S
C751   H784    1.109   .     S
C752   H788    1.115   .     S
C752   O826    1.414   .     S
C752   H790    1.109   .     S
C752   H787    1.109   .     S
C753   O827    1.413   .     S
C753   H792    1.116   .     S
C753   H793    1.108   .     S
C753   H791    1.109   .     S
C754   N816    1.391   .     A
C754   C763    1.427   .     A
C754   O818    1.378   .     S
C755   H794    1.109   .     S
C755   H795    1.115   .     S
C755   O829    1.413   .     S
C755   H796    1.108   .     S
C756   O830    1.408   .     S
C756   H799    1.112   .     S
C756   H797    1.109   .     S
C757   H802    1.114   .     S
C757   O831    1.414   .     S
C757   H803    1.105   .     S
C757   H561    1.107   1_565 S
C758   H805    1.116   .     S
C758   O832    1.413   .     S
C758   H804    1.109   .     S
C759   H807    1.108   .     S
C759   O833    1.416   .     S
C759   H808    1.115   .     S
C759   H809    1.108   .     S
C760   O819    1.378   .     S
C760   N815    1.373   .     A
C760   C764    1.419   .     A
C761   N816    1.383   .     A
C761   O820    1.377   .     S
C762   O830    1.391   .     S
C763   O831    1.389   .     S
C764   O832    1.385   .     S
Cu765  O838    1.931   .     S
Cu765  Cu766   2.699   .     S
Cu765  O834    1.953   .     S
Cu765  O817    1.954   .     S
Cu765  O836    1.937   .     S
Cu765  N816    2.028   .     S
Cu766  O835    1.953   .     S
Cu766  N815    2.028   .     S
Cu766  O828    1.954   .     S
Cu766  O837    1.937   .     S
Cu766  O839    1.931   .     S
H777   C869    1.107   1_455 S
H798   C516    1.109   1_565 S
H806   C518    1.109   1_565 S
C841   C858    1.469   .     S
C841   O937    1.300   .     A
C841   O955    1.303   .     A
C842   O953    1.386   .     S
C842   C881    1.426   .     A
C842   C846    1.402   .     A
C843   C847    1.410   .     S
C843   O956    1.298   .     A
C843   O959    1.291   .     A
C844   C848    1.410   .     S
C844   O958    1.292   .     A
C844   O957    1.297   .     A
C845   C882    1.404   .     A
C845   C884    1.415   .     A
C846   C883    1.409   .     A
C846   C605    1.516   1_565 S
C848   C1327   1.191   .     S
C849   C854    1.411   .     A
C849   C860    1.402   .     A
C849   O941    1.388   .     S
C850   C861    1.402   .     A
C850   O942    1.383   .     S
C850   C855    1.409   .     A
C851   C861    1.410   .     A
C851   C856    1.402   .     A
C851   O943    1.386   .     S
C852   O954    1.298   .     A
C852   O948    1.301   .     A
C852   C859    1.463   .     S
C853   O944    1.383   .     S
C853   C860    1.403   .     A
C853   C857    1.410   .     A
C854   C858    1.413   .     A
C854   O945    1.387   .     S
C855   C859    1.408   .     A
C855   O946    1.387   .     S
C856   O947    1.386   .     S
C856   C859    1.409   .     A
C857   C858    1.410   .     A
C857   O949    1.389   .     S
C861   C740    1.466   1_655 S
C862   H909    1.108   .     S
C862   H887    1.117   .     S
C862   O960    1.417   .     S
C862   H898    1.109   .     S
C863   C882    1.431   .     A
C863   O960    1.379   .     S
C863   N935    1.384   .     A
C864   O938    1.416   .     S
C864   H920    1.107   .     S
C864   H930    1.104   .     S
C864   H931    1.113   .     S
C865   H933    1.109   .     S
C865   O939    1.410   .     S
C865   H934    1.111   .     S
C865   H932    1.114   .     S
C866   H890    1.112   .     S
C866   H888    1.109   .     S
C866   H889    1.110   .     S
C866   O940    1.410   .     S
C867   H891    1.115   .     S
C867   H892    1.109   .     S
C867   H893    1.109   .     S
C867   O941    1.414   .     S
C868   H896    1.115   .     S
C868   H895    1.104   .     S
C868   H894    1.110   .     S
C868   O942    1.411   .     S
C869   O943    1.413   .     S
C869   H899    1.109   .     S
C869   H900    1.116   .     S
C869   H777    1.107   1_655 S
C870   H903    1.108   .     S
C870   H902    1.112   .     S
C870   H901    1.111   .     S
C870   O944    1.407   .     S
C871   H906    1.113   .     S
C871   O945    1.415   .     S
C871   H905    1.109   .     S
C871   H904    1.109   .     S
C872   H908    1.115   .     S
C872   O946    1.414   .     S
C872   H910    1.109   .     S
C872   H907    1.109   .     S
C873   O947    1.413   .     S
C873   H912    1.116   .     S
C873   H913    1.108   .     S
C873   H911    1.109   .     S
C874   N936    1.391   .     A
C874   C883    1.427   .     A
C874   O938    1.378   .     S
C875   H914    1.109   .     S
C875   H915    1.115   .     S
C875   O949    1.413   .     S
C875   H916    1.108   .     S
C876   O950    1.408   .     S
C876   H919    1.112   .     S
C876   H917    1.109   .     S
C877   H922    1.114   .     S
C877   O951    1.414   .     S
C877   H923    1.105   .     S
C877   H681    1.107   1_565 S
C878   H925    1.116   .     S
C878   O952    1.413   .     S
C878   H924    1.109   .     S
C879   H927    1.108   .     S
C879   O953    1.416   .     S
C879   H928    1.115   .     S
C879   H929    1.108   .     S
C880   O939    1.378   .     S
C880   N935    1.373   .     A
C880   C884    1.419   .     A
C881   N936    1.383   .     A
C881   O940    1.377   .     S
C882   O950    1.391   .     S
C883   O951    1.389   .     S
C884   O952    1.385   .     S
Cu885  O958    1.931   .     S
Cu885  Cu886   2.699   .     S
Cu885  O954    1.953   .     S
Cu885  O937    1.954   .     S
Cu885  O956    1.937   .     S
Cu885  N936    2.028   .     S
Cu886  O955    1.953   .     S
Cu886  N935    2.028   .     S
Cu886  O948    1.954   .     S
Cu886  O957    1.937   .     S
Cu886  O959    1.931   .     S
H918   C636    1.109   1_565 S
H926   C638    1.109   1_565 S
C961   C978    1.469   .     S
C961   O1057   1.300   .     A
C961   O1075   1.303   .     A
C962   O1073   1.386   .     S
C962   C1001   1.426   .     A
C962   C966    1.402   .     A
C963   C967    1.410   .     S
C963   O1076   1.298   .     A
C963   O1079   1.291   .     A
C964   C968    1.410   .     S
C964   O1078   1.292   .     A
C964   O1077   1.297   .     A
C965   C1002   1.404   .     A
C965   C1004   1.415   .     A
C965   C1206   1.516   1_545 S
C966   C1003   1.409   .     A
C966   C1205   1.516   .     S
C968   C7      1.191   1_556 S
C969   C974    1.411   .     A
C969   C980    1.402   .     A
C969   O1061   1.388   .     S
C970   C981    1.402   .     A
C970   O1062   1.383   .     S
C970   C975    1.409   .     A
C971   C981    1.410   .     A
C971   C976    1.402   .     A
C971   O1063   1.386   .     S
C972   O1074   1.298   .     A
C972   O1068   1.301   .     A
C972   C979    1.463   .     S
C973   O1064   1.383   .     S
C973   C980    1.403   .     A
C973   C977    1.410   .     A
C974   C978    1.413   .     A
C974   O1065   1.387   .     S
C975   C979    1.408   .     A
C975   O1066   1.387   .     S
C976   O1067   1.386   .     S
C976   C979    1.409   .     A
C977   C978    1.410   .     A
C977   O1069   1.389   .     S
C980   C1101   1.466   1_455 S
C981   C1100   1.466   .     S
C982   H1029   1.108   .     S
C982   H1007   1.117   .     S
C982   O1080   1.417   .     S
C982   H1018   1.109   .     S
C983   C1002   1.431   .     A
C983   O1080   1.379   .     S
C983   N1055   1.384   .     A
C984   O1058   1.416   .     S
C984   H1040   1.107   .     S
C984   H1050   1.104   .     S
C984   H1051   1.113   .     S
C985   H1053   1.109   .     S
C985   O1059   1.410   .     S
C985   H1054   1.111   .     S
C985   H1052   1.114   .     S
C986   H1010   1.112   .     S
C986   H1008   1.109   .     S
C986   H1009   1.110   .     S
C986   O1060   1.410   .     S
C987   H1011   1.115   .     S
C987   H1012   1.109   .     S
C987   H1013   1.109   .     S
C987   O1061   1.414   .     S
C988   H1016   1.115   .     S
C988   H1015   1.104   .     S
C988   H1014   1.110   .     S
C988   O1062   1.411   .     S
C989   O1063   1.413   .     S
C989   H1019   1.109   .     S
C989   H1020   1.116   .     S
C989   H1137   1.107   .     S
C990   H1023   1.108   .     S
C990   H1022   1.112   .     S
C990   H1021   1.111   .     S
C990   O1064   1.407   .     S
C991   H1026   1.113   .     S
C991   O1065   1.415   .     S
C991   H1025   1.109   .     S
C991   H1024   1.109   .     S
C992   H1028   1.115   .     S
C992   O1066   1.414   .     S
C992   H1030   1.109   .     S
C992   H1027   1.109   .     S
C993   O1067   1.413   .     S
C993   H1032   1.116   .     S
C993   H1033   1.108   .     S
C993   H1031   1.109   .     S
C994   N1056   1.391   .     A
C994   C1003   1.427   .     A
C994   O1058   1.378   .     S
C995   H1034   1.109   .     S
C995   H1035   1.115   .     S
C995   O1069   1.413   .     S
C995   H1036   1.108   .     S
C996   O1070   1.408   .     S
C996   H1039   1.112   .     S
C996   H1037   1.109   .     S
C996   H1278   1.109   1_545 S
C997   H1042   1.114   .     S
C997   O1071   1.414   .     S
C997   H1043   1.105   .     S
C997   H1281   1.107   .     S
C998   H1045   1.116   .     S
C998   O1072   1.413   .     S
C998   H1044   1.109   .     S
C998   H1286   1.109   1_545 S
C999   H1047   1.108   .     S
C999   O1073   1.416   .     S
C999   H1048   1.115   .     S
C999   H1049   1.108   .     S
C1000  O1059   1.378   .     S
C1000  N1055   1.373   .     A
C1000  C1004   1.419   .     A
C1001  N1056   1.383   .     A
C1001  O1060   1.377   .     S
C1002  O1070   1.391   .     S
C1003  O1071   1.389   .     S
C1004  O1072   1.385   .     S
Cu1005 O1078   1.931   .     S
Cu1005 Cu1006  2.699   .     S
Cu1005 O1074   1.953   .     S
Cu1005 O1057   1.954   .     S
Cu1005 O1076   1.937   .     S
Cu1005 N1056   2.028   .     S
Cu1006 O1075   1.953   .     S
Cu1006 N1055   2.028   .     S
Cu1006 O1068   1.954   .     S
Cu1006 O1077   1.937   .     S
Cu1006 O1079   1.931   .     S
H1017  C1109   1.107   1_455 S
H1038  C1236   1.109   .     S
H1041  C1237   1.107   1_545 S
H1046  C1238   1.109   .     S
C1081  C1098   1.469   .     S
C1081  O1177   1.300   .     A
C1081  O1195   1.303   .     A
C1082  O1193   1.386   .     S
C1082  C1121   1.426   .     A
C1082  C1086   1.402   .     A
C1083  C1087   1.410   .     S
C1083  O1196   1.298   .     A
C1083  O1199   1.291   .     A
C1084  C1088   1.410   .     S
C1084  O1198   1.292   .     A
C1084  O1197   1.297   .     A
C1085  C1122   1.404   .     A
C1085  C1124   1.415   .     A
C1085  C1326   1.516   1_545 S
C1086  C1123   1.409   .     A
C1086  C1325   1.516   .     S
C1088  C127    1.191   1_556 S
C1089  C1094   1.411   .     A
C1089  C1100   1.402   .     A
C1089  O1181   1.388   .     S
C1090  C1101   1.402   .     A
C1090  O1182   1.383   .     S
C1090  C1095   1.409   .     A
C1091  C1101   1.410   .     A
C1091  C1096   1.402   .     A
C1091  O1183   1.386   .     S
C1092  O1194   1.298   .     A
C1092  O1188   1.301   .     A
C1092  C1099   1.463   .     S
C1093  O1184   1.383   .     S
C1093  C1100   1.403   .     A
C1093  C1097   1.410   .     A
C1094  C1098   1.413   .     A
C1094  O1185   1.387   .     S
C1095  C1099   1.408   .     A
C1095  O1186   1.387   .     S
C1096  O1187   1.386   .     S
C1096  C1099   1.409   .     A
C1097  C1098   1.410   .     A
C1097  O1189   1.389   .     S
C1101  C980    1.466   1_655 S
C1102  H1149   1.108   .     S
C1102  H1127   1.117   .     S
C1102  O1200   1.417   .     S
C1102  H1138   1.109   .     S
C1103  C1122   1.431   .     A
C1103  O1200   1.379   .     S
C1103  N1175   1.384   .     A
C1104  O1178   1.416   .     S
C1104  H1160   1.107   .     S
C1104  H1170   1.104   .     S
C1104  H1171   1.113   .     S
C1105  H1173   1.109   .     S
C1105  O1179   1.410   .     S
C1105  H1174   1.111   .     S
C1105  H1172   1.114   .     S
C1106  H1130   1.112   .     S
C1106  H1128   1.109   .     S
C1106  H1129   1.110   .     S
C1106  O1180   1.410   .     S
C1107  H1131   1.115   .     S
C1107  H1132   1.109   .     S
C1107  H1133   1.109   .     S
C1107  O1181   1.414   .     S
C1108  H1136   1.115   .     S
C1108  H1135   1.104   .     S
C1108  H1134   1.110   .     S
C1108  O1182   1.411   .     S
C1109  O1183   1.413   .     S
C1109  H1139   1.109   .     S
C1109  H1140   1.116   .     S
C1109  H1017   1.107   1_655 S
C1110  H1143   1.108   .     S
C1110  H1142   1.112   .     S
C1110  H1141   1.111   .     S
C1110  O1184   1.407   .     S
C1111  H1146   1.113   .     S
C1111  O1185   1.415   .     S
C1111  H1145   1.109   .     S
C1111  H1144   1.109   .     S
C1112  H1148   1.115   .     S
C1112  O1186   1.414   .     S
C1112  H1150   1.109   .     S
C1112  H1147   1.109   .     S
C1113  O1187   1.413   .     S
C1113  H1152   1.116   .     S
C1113  H1153   1.108   .     S
C1113  H1151   1.109   .     S
C1114  N1176   1.391   .     A
C1114  C1123   1.427   .     A
C1114  O1178   1.378   .     S
C1115  H1154   1.109   .     S
C1115  H1155   1.115   .     S
C1115  O1189   1.413   .     S
C1115  H1156   1.108   .     S
C1116  O1190   1.408   .     S
C1116  H1159   1.112   .     S
C1116  H1157   1.109   .     S
C1116  H1398   1.109   1_545 S
C1117  H1162   1.114   .     S
C1117  O1191   1.414   .     S
C1117  H1163   1.105   .     S
C1117  H1401   1.107   .     S
C1118  H1165   1.116   .     S
C1118  O1192   1.413   .     S
C1118  H1164   1.109   .     S
C1118  H1406   1.109   1_545 S
C1119  H1167   1.108   .     S
C1119  O1193   1.416   .     S
C1119  H1168   1.115   .     S
C1119  H1169   1.108   .     S
C1120  O1179   1.378   .     S
C1120  N1175   1.373   .     A
C1120  C1124   1.419   .     A
C1121  N1176   1.383   .     A
C1121  O1180   1.377   .     S
C1122  O1190   1.391   .     S
C1123  O1191   1.389   .     S
C1124  O1192   1.385   .     S
Cu1125 O1198   1.931   .     S
Cu1125 Cu1126  2.699   .     S
Cu1125 O1194   1.953   .     S
Cu1125 O1177   1.954   .     S
Cu1125 O1196   1.937   .     S
Cu1125 N1176   2.028   .     S
Cu1126 O1195   1.953   .     S
Cu1126 N1175   2.028   .     S
Cu1126 O1188   1.954   .     S
Cu1126 O1197   1.937   .     S
Cu1126 O1199   1.931   .     S
H1158  C1356   1.109   .     S
H1161  C1357   1.107   1_545 S
H1166  C1358   1.109   .     S
C1201  C1218   1.469   .     S
C1201  O1297   1.300   .     A
C1201  O1315   1.303   .     A
C1202  O1313   1.386   .     S
C1202  C1241   1.426   .     A
C1202  C1206   1.402   .     A
C1203  C1207   1.410   .     S
C1203  O1316   1.298   .     A
C1203  O1319   1.291   .     A
C1204  C1208   1.410   .     S
C1204  O1318   1.292   .     A
C1204  O1317   1.297   .     A
C1205  C1242   1.404   .     A
C1205  C1244   1.415   .     A
C1206  C1243   1.409   .     A
C1206  C965    1.516   1_565 S
C1208  C247    1.191   1_556 S
C1209  C1214   1.411   .     A
C1209  C1220   1.402   .     A
C1209  O1301   1.388   .     S
C1210  C1221   1.402   .     A
C1210  O1302   1.383   .     S
C1210  C1215   1.409   .     A
C1211  C1221   1.410   .     A
C1211  C1216   1.402   .     A
C1211  O1303   1.386   .     S
C1212  O1314   1.298   .     A
C1212  O1308   1.301   .     A
C1212  C1219   1.463   .     S
C1213  O1304   1.383   .     S
C1213  C1220   1.403   .     A
C1213  C1217   1.410   .     A
C1214  C1218   1.413   .     A
C1214  O1305   1.387   .     S
C1215  C1219   1.408   .     A
C1215  O1306   1.387   .     S
C1216  O1307   1.386   .     S
C1216  C1219   1.409   .     A
C1217  C1218   1.410   .     A
C1217  O1309   1.389   .     S
C1220  C1341   1.466   1_455 S
C1221  C1340   1.466   .     S
C1222  H1269   1.108   .     S
C1222  H1247   1.117   .     S
C1222  O1320   1.417   .     S
C1222  H1258   1.109   .     S
C1223  C1242   1.431   .     A
C1223  O1320   1.379   .     S
C1223  N1295   1.384   .     A
C1224  O1298   1.416   .     S
C1224  H1280   1.107   .     S
C1224  H1290   1.104   .     S
C1224  H1291   1.113   .     S
C1225  H1293   1.109   .     S
C1225  O1299   1.410   .     S
C1225  H1294   1.111   .     S
C1225  H1292   1.114   .     S
C1226  H1250   1.112   .     S
C1226  H1248   1.109   .     S
C1226  H1249   1.110   .     S
C1226  O1300   1.410   .     S
C1227  H1251   1.115   .     S
C1227  H1252   1.109   .     S
C1227  H1253   1.109   .     S
C1227  O1301   1.414   .     S
C1228  H1256   1.115   .     S
C1228  H1255   1.104   .     S
C1228  H1254   1.110   .     S
C1228  O1302   1.411   .     S
C1229  O1303   1.413   .     S
C1229  H1259   1.109   .     S
C1229  H1260   1.116   .     S
C1229  H1377   1.107   .     S
C1230  H1263   1.108   .     S
C1230  H1262   1.112   .     S
C1230  H1261   1.111   .     S
C1230  O1304   1.407   .     S
C1231  H1266   1.113   .     S
C1231  O1305   1.415   .     S
C1231  H1265   1.109   .     S
C1231  H1264   1.109   .     S
C1232  H1268   1.115   .     S
C1232  O1306   1.414   .     S
C1232  H1270   1.109   .     S
C1232  H1267   1.109   .     S
C1233  O1307   1.413   .     S
C1233  H1272   1.116   .     S
C1233  H1273   1.108   .     S
C1233  H1271   1.109   .     S
C1234  N1296   1.391   .     A
C1234  C1243   1.427   .     A
C1234  O1298   1.378   .     S
C1235  H1274   1.109   .     S
C1235  H1275   1.115   .     S
C1235  O1309   1.413   .     S
C1235  H1276   1.108   .     S
C1236  O1310   1.408   .     S
C1236  H1279   1.112   .     S
C1236  H1277   1.109   .     S
C1237  H1282   1.114   .     S
C1237  O1311   1.414   .     S
C1237  H1283   1.105   .     S
C1237  H1041   1.107   1_565 S
C1238  H1285   1.116   .     S
C1238  O1312   1.413   .     S
C1238  H1284   1.109   .     S
C1239  H1287   1.108   .     S
C1239  O1313   1.416   .     S
C1239  H1288   1.115   .     S
C1239  H1289   1.108   .     S
C1240  O1299   1.378   .     S
C1240  N1295   1.373   .     A
C1240  C1244   1.419   .     A
C1241  N1296   1.383   .     A
C1241  O1300   1.377   .     S
C1242  O1310   1.391   .     S
C1243  O1311   1.389   .     S
C1244  O1312   1.385   .     S
Cu1245 O1318   1.931   .     S
Cu1245 Cu1246  2.699   .     S
Cu1245 O1314   1.953   .     S
Cu1245 O1297   1.954   .     S
Cu1245 O1316   1.937   .     S
Cu1245 N1296   2.028   .     S
Cu1246 O1315   1.953   .     S
Cu1246 N1295   2.028   .     S
Cu1246 O1308   1.954   .     S
Cu1246 O1317   1.937   .     S
Cu1246 O1319   1.931   .     S
H1257  C1349   1.107   1_455 S
H1278  C996    1.109   1_565 S
H1286  C998    1.109   1_565 S
C1321  C1338   1.469   .     S
C1321  O1417   1.300   .     A
C1321  O1435   1.303   .     A
C1322  O1433   1.386   .     S
C1322  C1361   1.426   .     A
C1322  C1326   1.402   .     A
C1323  C1327   1.410   .     S
C1323  O1436   1.298   .     A
C1323  O1439   1.291   .     A
C1324  C1328   1.410   .     S
C1324  O1438   1.292   .     A
C1324  O1437   1.297   .     A
C1325  C1362   1.404   .     A
C1325  C1364   1.415   .     A
C1326  C1363   1.409   .     A
C1326  C1085   1.516   1_565 S
C1328  C367    1.191   1_556 S
C1329  C1334   1.411   .     A
C1329  C1340   1.402   .     A
C1329  O1421   1.388   .     S
C1330  C1341   1.402   .     A
C1330  O1422   1.383   .     S
C1330  C1335   1.409   .     A
C1331  C1341   1.410   .     A
C1331  C1336   1.402   .     A
C1331  O1423   1.386   .     S
C1332  O1434   1.298   .     A
C1332  O1428   1.301   .     A
C1332  C1339   1.463   .     S
C1333  O1424   1.383   .     S
C1333  C1340   1.403   .     A
C1333  C1337   1.410   .     A
C1334  C1338   1.413   .     A
C1334  O1425   1.387   .     S
C1335  C1339   1.408   .     A
C1335  O1426   1.387   .     S
C1336  O1427   1.386   .     S
C1336  C1339   1.409   .     A
C1337  C1338   1.410   .     A
C1337  O1429   1.389   .     S
C1341  C1220   1.466   1_655 S
C1342  H1389   1.108   .     S
C1342  H1367   1.117   .     S
C1342  O1440   1.417   .     S
C1342  H1378   1.109   .     S
C1343  C1362   1.431   .     A
C1343  O1440   1.379   .     S
C1343  N1415   1.384   .     A
C1344  O1418   1.416   .     S
C1344  H1400   1.107   .     S
C1344  H1410   1.104   .     S
C1344  H1411   1.113   .     S
C1345  H1413   1.109   .     S
C1345  O1419   1.410   .     S
C1345  H1414   1.111   .     S
C1345  H1412   1.114   .     S
C1346  H1370   1.112   .     S
C1346  H1368   1.109   .     S
C1346  H1369   1.110   .     S
C1346  O1420   1.410   .     S
C1347  H1371   1.115   .     S
C1347  H1372   1.109   .     S
C1347  H1373   1.109   .     S
C1347  O1421   1.414   .     S
C1348  H1376   1.115   .     S
C1348  H1375   1.104   .     S
C1348  H1374   1.110   .     S
C1348  O1422   1.411   .     S
C1349  O1423   1.413   .     S
C1349  H1379   1.109   .     S
C1349  H1380   1.116   .     S
C1349  H1257   1.107   1_655 S
C1350  H1383   1.108   .     S
C1350  H1382   1.112   .     S
C1350  H1381   1.111   .     S
C1350  O1424   1.407   .     S
C1351  H1386   1.113   .     S
C1351  O1425   1.415   .     S
C1351  H1385   1.109   .     S
C1351  H1384   1.109   .     S
C1352  H1388   1.115   .     S
C1352  O1426   1.414   .     S
C1352  H1390   1.109   .     S
C1352  H1387   1.109   .     S
C1353  O1427   1.413   .     S
C1353  H1392   1.116   .     S
C1353  H1393   1.108   .     S
C1353  H1391   1.109   .     S
C1354  N1416   1.391   .     A
C1354  C1363   1.427   .     A
C1354  O1418   1.378   .     S
C1355  H1394   1.109   .     S
C1355  H1395   1.115   .     S
C1355  O1429   1.413   .     S
C1355  H1396   1.108   .     S
C1356  O1430   1.408   .     S
C1356  H1399   1.112   .     S
C1356  H1397   1.109   .     S
C1357  H1402   1.114   .     S
C1357  O1431   1.414   .     S
C1357  H1403   1.105   .     S
C1357  H1161   1.107   1_565 S
C1358  H1405   1.116   .     S
C1358  O1432   1.413   .     S
C1358  H1404   1.109   .     S
C1359  H1407   1.108   .     S
C1359  O1433   1.416   .     S
C1359  H1408   1.115   .     S
C1359  H1409   1.108   .     S
C1360  O1419   1.378   .     S
C1360  N1415   1.373   .     A
C1360  C1364   1.419   .     A
C1361  N1416   1.383   .     A
C1361  O1420   1.377   .     S
C1362  O1430   1.391   .     S
C1363  O1431   1.389   .     S
C1364  O1432   1.385   .     S
Cu1365 O1438   1.931   .     S
Cu1365 Cu1366  2.699   .     S
Cu1365 O1434   1.953   .     S
Cu1365 O1417   1.954   .     S
Cu1365 O1436   1.937   .     S
Cu1365 N1416   2.028   .     S
Cu1366 O1435   1.953   .     S
Cu1366 N1415   2.028   .     S
Cu1366 O1428   1.954   .     S
Cu1366 O1437   1.937   .     S
Cu1366 O1439   1.931   .     S
H1398  C1116   1.109   1_565 S
H1406  C1118   1.109   1_565 S
