data_str_m3_o1_o18_pcu_sym.59
_audit_creation_date              2020-01-03
_audit_creation_method            'Materials Studio'
_symmetry_space_group_name_H-M    'P1'
_symmetry_Int_Tables_number       1
_symmetry_cell_setting            triclinic
loop_
_symmetry_equiv_pos_as_xyz
  x,y,z
_cell_length_a                    29.6584
_cell_length_b                    31.9510
_cell_length_c                    31.1561
_cell_angle_alpha                 90.8919
_cell_angle_beta                  66.3424
_cell_angle_gamma                 89.2706
loop_
_atom_site_label
_atom_site_type_symbol
_atom_site_fract_x
_atom_site_fract_y
_atom_site_fract_z
_atom_site_U_iso_or_equiv
_atom_site_adp_type
_atom_site_occupancy
O1     O     0.12846   0.22775   0.25000   0.00000  Uiso   1.00
O2     O     0.20488   0.10558   0.24999   0.00000  Uiso   1.00
O3     O     0.20490   0.22774   0.25000   0.00000  Uiso   1.00
O4     O     0.12843   0.10559   0.25000   0.00000  Uiso   1.00
C5     C     0.16680   0.24656   0.24916   0.00000  Uiso   1.00
C6     C     0.16654   0.08677   0.25084   0.00000  Uiso   1.00
O7     O     0.10661   0.16667   0.31612   0.00000  Uiso   1.00
O8     O     0.22672   0.16666   0.18387   0.00000  Uiso   1.00
O9     O     0.18305   0.16666   0.31612   0.00000  Uiso   1.00
O10    O     0.15028   0.16667   0.18388   0.00000  Uiso   1.00
C11    C     0.13549   0.16674   0.33819   0.00000  Uiso   1.00
C12    C     0.19785   0.16660   0.16181   0.00000  Uiso   1.00
Zn13   Zn    0.11562   0.16667   0.25000   0.00000  Uiso   1.00
Zn14   Zn    0.21771   0.16666   0.25000   0.00000  Uiso   1.00
C15    C     0.11523   0.16208   0.38917   0.00000  Uiso   1.00
C16    C     0.21811   0.17123   0.11082   0.00000  Uiso   1.00
C17    C     0.07916   0.11187   0.45042   0.00000  Uiso   1.00
C18    C     0.25423   0.22139   0.04953   0.00000  Uiso   1.00
C19    C     0.08042   0.13093   0.40984   0.00000  Uiso   1.00
C20    C     0.25296   0.20236   0.09013   0.00000  Uiso   1.00
C21    C     0.14081   0.18051   0.41393   0.00000  Uiso   1.00
C22    C     0.19253   0.15279   0.08607   0.00000  Uiso   1.00
C23    C     0.13716   0.16320   0.45680   0.00000  Uiso   1.00
C24    C     0.19618   0.17009   0.04320   0.00000  Uiso   1.00
C25    C     0.11116   0.12534   0.47092   0.00000  Uiso   1.00
C26    C     0.22220   0.20794   0.02906   0.00000  Uiso   1.00
C27    C     0.16250   0.17957   0.48359   0.00000  Uiso   1.00
C28    C     0.17083   0.15372   0.01642   0.00000  Uiso   1.00
C29    C     0.15432   0.11224   0.02067   0.00000  Uiso   1.00
C30    C     0.17900   0.22104   0.47935   0.00000  Uiso   1.00
C31    C     0.12126   0.09977   0.00207   0.00000  Uiso   1.00
C32    C     0.21209   0.23351   0.49792   0.00000  Uiso   1.00
H33    H     0.10668   0.06858   0.00954   0.00000  Uiso   1.00
H34    H     0.22667   0.26469   0.49045   0.00000  Uiso   1.00
H35    H     0.16636   0.08881   0.03852   0.00000  Uiso   1.00
H36    H     0.16695   0.24448   0.46151   0.00000  Uiso   1.00
C37    C     0.18464   0.31133   0.27842   0.00000  Uiso   1.00
C38    C     0.14869   0.02200   0.22159   0.00000  Uiso   1.00
H39    H     0.19806   0.29404   0.30070   0.00000  Uiso   1.00
H40    H     0.13527   0.03930   0.19930   0.00000  Uiso   1.00
C41    C     0.18450   0.02095   0.27997   0.00000  Uiso   1.00
C42    C     0.14883   0.31238   0.22003   0.00000  Uiso   1.00
C43    C     0.16673   0.04264   0.25105   0.00000  Uiso   1.00
C44    C     0.16661   0.29069   0.24895   0.00000  Uiso   1.00
C45    C     0.31876   0.13403   0.22978   0.00000  Uiso   1.00
C46    C     0.01457   0.19930   0.27022   0.00000  Uiso   1.00
C47    C     0.03300   0.13411   0.23037   0.00000  Uiso   1.00
C48    C     0.30034   0.19922   0.26963   0.00000  Uiso   1.00
H49    H     0.05854   0.10832   0.21431   0.00000  Uiso   1.00
H50    H     0.27479   0.22502   0.28569   0.00000  Uiso   1.00
N51    N     0.04759   0.16668   0.25001   0.00000  Uiso   1.00
N52    N     0.28574   0.16666   0.24999   0.00000  Uiso   1.00
N53    N     0.15639   0.12197   0.10930   0.00000  Uiso   1.00
O54    O     0.10992   0.13006   0.12012   0.00000  Uiso   1.00
O55    O     0.16920   0.08834   0.12498   0.00000  Uiso   1.00
N56    N     0.17696   0.21133   0.39071   0.00000  Uiso   1.00
O57    O     0.16415   0.24497   0.37503   0.00000  Uiso   1.00
O58    O     0.22343   0.20324   0.37989   0.00000  Uiso   1.00
N59    N     0.28244   0.21834   0.11335   0.00000  Uiso   1.00
O60    O     0.27582   0.25663   0.12985   0.00000  Uiso   1.00
O61    O     0.31607   0.19455   0.11795   0.00000  Uiso   1.00
N62    N     0.05095   0.11495   0.38660   0.00000  Uiso   1.00
O63    O     0.05767   0.07670   0.36999   0.00000  Uiso   1.00
O64    O     0.01726   0.13872   0.38206   0.00000  Uiso   1.00
Cl65   Cl    0.03826   0.07032   0.47431   0.00000  Uiso   1.00
Cl66   Cl    0.29519   0.26289   0.02557   0.00000  Uiso   1.00
Cl67   Cl    0.20398   0.04605   0.32029   0.00000  Uiso   1.00
Cl68   Cl    0.12935   0.28729   0.17971   0.00000  Uiso   1.00
N69    N     0.30627   0.09976   0.20689   0.00000  Uiso   1.00
O70    O     0.31668   0.06162   0.21445   0.00000  Uiso   1.00
O71    O     0.29509   0.10668   0.17132   0.00000  Uiso   1.00
N72    N     0.02706   0.23358   0.29310   0.00000  Uiso   1.00
O73    O     0.01665   0.27171   0.28555   0.00000  Uiso   1.00
O74    O     0.03826   0.22666   0.32867   0.00000  Uiso   1.00
O75    O     0.46179   0.22775   0.25000   0.00000  Uiso   1.00
O76    O     0.53821   0.10558   0.24999   0.00000  Uiso   1.00
O77    O     0.53823   0.22774   0.25000   0.00000  Uiso   1.00
O78    O     0.46177   0.10559   0.25000   0.00000  Uiso   1.00
C79    C     0.50013   0.24656   0.24916   0.00000  Uiso   1.00
C80    C     0.49987   0.08677   0.25084   0.00000  Uiso   1.00
O81    O     0.43994   0.16667   0.31612   0.00000  Uiso   1.00
O82    O     0.56006   0.16666   0.18387   0.00000  Uiso   1.00
O83    O     0.51639   0.16666   0.31612   0.00000  Uiso   1.00
O84    O     0.48361   0.16667   0.18388   0.00000  Uiso   1.00
C85    C     0.46882   0.16674   0.33819   0.00000  Uiso   1.00
C86    C     0.53118   0.16660   0.16181   0.00000  Uiso   1.00
Zn87   Zn    0.44896   0.16667   0.25000   0.00000  Uiso   1.00
Zn88   Zn    0.55104   0.16666   0.25000   0.00000  Uiso   1.00
C89    C     0.44857   0.16208   0.38917   0.00000  Uiso   1.00
C90    C     0.55144   0.17123   0.11082   0.00000  Uiso   1.00
C91    C     0.41249   0.11187   0.45042   0.00000  Uiso   1.00
C92    C     0.58756   0.22139   0.04953   0.00000  Uiso   1.00
C93    C     0.41375   0.13093   0.40984   0.00000  Uiso   1.00
C94    C     0.58629   0.20236   0.09013   0.00000  Uiso   1.00
C95    C     0.47414   0.18051   0.41393   0.00000  Uiso   1.00
C96    C     0.52587   0.15279   0.08607   0.00000  Uiso   1.00
C97    C     0.47049   0.16320   0.45680   0.00000  Uiso   1.00
C98    C     0.52952   0.17009   0.04320   0.00000  Uiso   1.00
C99    C     0.44450   0.12534   0.47092   0.00000  Uiso   1.00
C100   C     0.55553   0.20794   0.02906   0.00000  Uiso   1.00
C101   C     0.49583   0.17957   0.48359   0.00000  Uiso   1.00
C102   C     0.50416   0.15372   0.01642   0.00000  Uiso   1.00
C103   C     0.48765   0.11224   0.02067   0.00000  Uiso   1.00
C104   C     0.51234   0.22104   0.47935   0.00000  Uiso   1.00
C105   C     0.45459   0.09977   0.00207   0.00000  Uiso   1.00
C106   C     0.54542   0.23351   0.49792   0.00000  Uiso   1.00
H107   H     0.44001   0.06858   0.00954   0.00000  Uiso   1.00
H108   H     0.56001   0.26469   0.49045   0.00000  Uiso   1.00
H109   H     0.49969   0.08881   0.03852   0.00000  Uiso   1.00
H110   H     0.50029   0.24448   0.46151   0.00000  Uiso   1.00
C111   C     0.51797   0.31133   0.27842   0.00000  Uiso   1.00
C112   C     0.48203   0.02200   0.22159   0.00000  Uiso   1.00
H113   H     0.53139   0.29404   0.30070   0.00000  Uiso   1.00
H114   H     0.46860   0.03930   0.19930   0.00000  Uiso   1.00
C115   C     0.51783   0.02095   0.27997   0.00000  Uiso   1.00
C116   C     0.48217   0.31238   0.22003   0.00000  Uiso   1.00
C117   C     0.50006   0.04264   0.25105   0.00000  Uiso   1.00
C118   C     0.49994   0.29069   0.24895   0.00000  Uiso   1.00
C119   C     0.65210   0.13403   0.22978   0.00000  Uiso   1.00
C120   C     0.34790   0.19930   0.27022   0.00000  Uiso   1.00
C121   C     0.36633   0.13411   0.23037   0.00000  Uiso   1.00
C122   C     0.63367   0.19922   0.26963   0.00000  Uiso   1.00
H123   H     0.39187   0.10832   0.21431   0.00000  Uiso   1.00
H124   H     0.60812   0.22502   0.28569   0.00000  Uiso   1.00
N125   N     0.38093   0.16668   0.25001   0.00000  Uiso   1.00
N126   N     0.61907   0.16666   0.24999   0.00000  Uiso   1.00
N127   N     0.48972   0.12197   0.10930   0.00000  Uiso   1.00
O128   O     0.44325   0.13006   0.12012   0.00000  Uiso   1.00
O129   O     0.50254   0.08834   0.12498   0.00000  Uiso   1.00
N130   N     0.51029   0.21133   0.39071   0.00000  Uiso   1.00
O131   O     0.49748   0.24497   0.37503   0.00000  Uiso   1.00
O132   O     0.55676   0.20324   0.37989   0.00000  Uiso   1.00
N133   N     0.61577   0.21834   0.11335   0.00000  Uiso   1.00
O134   O     0.60915   0.25663   0.12985   0.00000  Uiso   1.00
O135   O     0.64941   0.19455   0.11795   0.00000  Uiso   1.00
N136   N     0.38428   0.11495   0.38660   0.00000  Uiso   1.00
O137   O     0.39100   0.07670   0.36999   0.00000  Uiso   1.00
O138   O     0.35059   0.13872   0.38206   0.00000  Uiso   1.00
Cl139  Cl    0.37159   0.07032   0.47431   0.00000  Uiso   1.00
Cl140  Cl    0.62852   0.26289   0.02557   0.00000  Uiso   1.00
Cl141  Cl    0.53731   0.04605   0.32029   0.00000  Uiso   1.00
Cl142  Cl    0.46269   0.28729   0.17971   0.00000  Uiso   1.00
N143   N     0.63961   0.09976   0.20689   0.00000  Uiso   1.00
O144   O     0.65001   0.06162   0.21445   0.00000  Uiso   1.00
O145   O     0.62842   0.10668   0.17132   0.00000  Uiso   1.00
N146   N     0.36040   0.23358   0.29310   0.00000  Uiso   1.00
O147   O     0.34999   0.27171   0.28555   0.00000  Uiso   1.00
O148   O     0.37159   0.22666   0.32867   0.00000  Uiso   1.00
O149   O     0.79512   0.22775   0.25000   0.00000  Uiso   1.00
O150   O     0.87154   0.10558   0.24999   0.00000  Uiso   1.00
O151   O     0.87157   0.22774   0.25000   0.00000  Uiso   1.00
O152   O     0.79510   0.10559   0.25000   0.00000  Uiso   1.00
C153   C     0.83346   0.24656   0.24916   0.00000  Uiso   1.00
C154   C     0.83320   0.08677   0.25084   0.00000  Uiso   1.00
O155   O     0.77328   0.16667   0.31612   0.00000  Uiso   1.00
O156   O     0.89339   0.16666   0.18387   0.00000  Uiso   1.00
O157   O     0.84972   0.16666   0.31612   0.00000  Uiso   1.00
O158   O     0.81695   0.16667   0.18388   0.00000  Uiso   1.00
C159   C     0.80215   0.16674   0.33819   0.00000  Uiso   1.00
C160   C     0.86452   0.16660   0.16181   0.00000  Uiso   1.00
Zn161  Zn    0.78229   0.16667   0.25000   0.00000  Uiso   1.00
Zn162  Zn    0.88438   0.16666   0.25000   0.00000  Uiso   1.00
C163   C     0.78190   0.16208   0.38917   0.00000  Uiso   1.00
C164   C     0.88478   0.17123   0.11082   0.00000  Uiso   1.00
C165   C     0.74583   0.11187   0.45042   0.00000  Uiso   1.00
C166   C     0.92089   0.22139   0.04953   0.00000  Uiso   1.00
C167   C     0.74708   0.13093   0.40984   0.00000  Uiso   1.00
C168   C     0.91962   0.20236   0.09013   0.00000  Uiso   1.00
C169   C     0.80748   0.18051   0.41393   0.00000  Uiso   1.00
C170   C     0.85920   0.15279   0.08607   0.00000  Uiso   1.00
C171   C     0.80382   0.16320   0.45680   0.00000  Uiso   1.00
C172   C     0.86285   0.17009   0.04320   0.00000  Uiso   1.00
C173   C     0.77783   0.12534   0.47092   0.00000  Uiso   1.00
C174   C     0.88886   0.20794   0.02906   0.00000  Uiso   1.00
C175   C     0.82917   0.17957   0.48359   0.00000  Uiso   1.00
C176   C     0.83750   0.15372   0.01642   0.00000  Uiso   1.00
C177   C     0.82099   0.11224   0.02067   0.00000  Uiso   1.00
C178   C     0.84567   0.22104   0.47935   0.00000  Uiso   1.00
C179   C     0.78792   0.09977   0.00207   0.00000  Uiso   1.00
C180   C     0.87875   0.23351   0.49792   0.00000  Uiso   1.00
H181   H     0.77334   0.06858   0.00954   0.00000  Uiso   1.00
H182   H     0.89334   0.26469   0.49045   0.00000  Uiso   1.00
H183   H     0.83303   0.08881   0.03852   0.00000  Uiso   1.00
H184   H     0.83362   0.24448   0.46151   0.00000  Uiso   1.00
C185   C     0.85130   0.31133   0.27842   0.00000  Uiso   1.00
C186   C     0.81536   0.02200   0.22159   0.00000  Uiso   1.00
H187   H     0.86473   0.29404   0.30070   0.00000  Uiso   1.00
H188   H     0.80194   0.03930   0.19930   0.00000  Uiso   1.00
C189   C     0.85117   0.02095   0.27997   0.00000  Uiso   1.00
C190   C     0.81550   0.31238   0.22003   0.00000  Uiso   1.00
C191   C     0.83339   0.04264   0.25105   0.00000  Uiso   1.00
C192   C     0.83327   0.29069   0.24895   0.00000  Uiso   1.00
C193   C     0.98543   0.13403   0.22978   0.00000  Uiso   1.00
C194   C     0.68124   0.19930   0.27022   0.00000  Uiso   1.00
C195   C     0.69966   0.13411   0.23037   0.00000  Uiso   1.00
C196   C     0.96700   0.19922   0.26963   0.00000  Uiso   1.00
H197   H     0.72521   0.10832   0.21431   0.00000  Uiso   1.00
H198   H     0.94146   0.22502   0.28569   0.00000  Uiso   1.00
N199   N     0.71426   0.16668   0.25001   0.00000  Uiso   1.00
N200   N     0.95241   0.16666   0.24999   0.00000  Uiso   1.00
N201   N     0.82305   0.12197   0.10930   0.00000  Uiso   1.00
O202   O     0.77658   0.13006   0.12012   0.00000  Uiso   1.00
O203   O     0.83587   0.08834   0.12498   0.00000  Uiso   1.00
N204   N     0.84362   0.21133   0.39071   0.00000  Uiso   1.00
O205   O     0.83081   0.24497   0.37503   0.00000  Uiso   1.00
O206   O     0.89009   0.20324   0.37989   0.00000  Uiso   1.00
N207   N     0.94910   0.21834   0.11335   0.00000  Uiso   1.00
O208   O     0.94248   0.25663   0.12985   0.00000  Uiso   1.00
O209   O     0.98274   0.19455   0.11795   0.00000  Uiso   1.00
N210   N     0.71762   0.11495   0.38660   0.00000  Uiso   1.00
O211   O     0.72433   0.07670   0.36999   0.00000  Uiso   1.00
O212   O     0.68392   0.13872   0.38206   0.00000  Uiso   1.00
Cl213  Cl    0.70493   0.07032   0.47431   0.00000  Uiso   1.00
Cl214  Cl    0.96186   0.26289   0.02557   0.00000  Uiso   1.00
Cl215  Cl    0.87064   0.04605   0.32029   0.00000  Uiso   1.00
Cl216  Cl    0.79602   0.28729   0.17971   0.00000  Uiso   1.00
N217   N     0.97294   0.09976   0.20689   0.00000  Uiso   1.00
O218   O     0.98334   0.06162   0.21445   0.00000  Uiso   1.00
O219   O     0.96175   0.10668   0.17132   0.00000  Uiso   1.00
N220   N     0.69373   0.23358   0.29310   0.00000  Uiso   1.00
O221   O     0.68332   0.27171   0.28555   0.00000  Uiso   1.00
O222   O     0.70492   0.22666   0.32867   0.00000  Uiso   1.00
O223   O     0.12846   0.56108   0.25000   0.00000  Uiso   1.00
O224   O     0.20488   0.43892   0.24999   0.00000  Uiso   1.00
O225   O     0.20490   0.56107   0.25000   0.00000  Uiso   1.00
O226   O     0.12843   0.43893   0.25000   0.00000  Uiso   1.00
C227   C     0.16680   0.57989   0.24916   0.00000  Uiso   1.00
C228   C     0.16654   0.42011   0.25084   0.00000  Uiso   1.00
O229   O     0.10661   0.50001   0.31612   0.00000  Uiso   1.00
O230   O     0.22672   0.49999   0.18387   0.00000  Uiso   1.00
O231   O     0.18305   0.50000   0.31612   0.00000  Uiso   1.00
O232   O     0.15028   0.50000   0.18388   0.00000  Uiso   1.00
C233   C     0.13549   0.50007   0.33819   0.00000  Uiso   1.00
C234   C     0.19785   0.49993   0.16181   0.00000  Uiso   1.00
Zn235  Zn    0.11562   0.50001   0.25000   0.00000  Uiso   1.00
Zn236  Zn    0.21771   0.49999   0.25000   0.00000  Uiso   1.00
C237   C     0.11523   0.49541   0.38917   0.00000  Uiso   1.00
C238   C     0.21811   0.50456   0.11082   0.00000  Uiso   1.00
C239   C     0.07916   0.44520   0.45042   0.00000  Uiso   1.00
C240   C     0.25423   0.55472   0.04953   0.00000  Uiso   1.00
C241   C     0.08042   0.46426   0.40984   0.00000  Uiso   1.00
C242   C     0.25296   0.53569   0.09013   0.00000  Uiso   1.00
C243   C     0.14081   0.51385   0.41393   0.00000  Uiso   1.00
C244   C     0.19253   0.48612   0.08607   0.00000  Uiso   1.00
C245   C     0.13716   0.49654   0.45680   0.00000  Uiso   1.00
C246   C     0.19618   0.50342   0.04320   0.00000  Uiso   1.00
C247   C     0.11116   0.45867   0.47092   0.00000  Uiso   1.00
C248   C     0.22220   0.54127   0.02906   0.00000  Uiso   1.00
C249   C     0.16250   0.51290   0.48359   0.00000  Uiso   1.00
C250   C     0.17083   0.48705   0.01642   0.00000  Uiso   1.00
C251   C     0.15432   0.44558   0.02067   0.00000  Uiso   1.00
C252   C     0.17900   0.55438   0.47935   0.00000  Uiso   1.00
C253   C     0.12126   0.43310   0.00207   0.00000  Uiso   1.00
C254   C     0.21209   0.56684   0.49792   0.00000  Uiso   1.00
H255   H     0.10668   0.40192   0.00954   0.00000  Uiso   1.00
H256   H     0.22667   0.59803   0.49045   0.00000  Uiso   1.00
H257   H     0.16636   0.42214   0.03852   0.00000  Uiso   1.00
H258   H     0.16695   0.57781   0.46151   0.00000  Uiso   1.00
C259   C     0.18464   0.64467   0.27842   0.00000  Uiso   1.00
C260   C     0.14869   0.35533   0.22159   0.00000  Uiso   1.00
H261   H     0.19806   0.62737   0.30070   0.00000  Uiso   1.00
H262   H     0.13527   0.37263   0.19930   0.00000  Uiso   1.00
C263   C     0.18450   0.35428   0.27997   0.00000  Uiso   1.00
C264   C     0.14883   0.64572   0.22003   0.00000  Uiso   1.00
C265   C     0.16673   0.37598   0.25105   0.00000  Uiso   1.00
C266   C     0.16661   0.62402   0.24895   0.00000  Uiso   1.00
C267   C     0.31876   0.46737   0.22978   0.00000  Uiso   1.00
C268   C     0.01457   0.53263   0.27022   0.00000  Uiso   1.00
C269   C     0.03300   0.46745   0.23037   0.00000  Uiso   1.00
C270   C     0.30034   0.53255   0.26963   0.00000  Uiso   1.00
H271   H     0.05854   0.44165   0.21431   0.00000  Uiso   1.00
H272   H     0.27479   0.55835   0.28569   0.00000  Uiso   1.00
N273   N     0.04759   0.50001   0.25001   0.00000  Uiso   1.00
N274   N     0.28574   0.49999   0.24999   0.00000  Uiso   1.00
N275   N     0.15639   0.45531   0.10930   0.00000  Uiso   1.00
O276   O     0.10992   0.46339   0.12012   0.00000  Uiso   1.00
O277   O     0.16920   0.42167   0.12498   0.00000  Uiso   1.00
N278   N     0.17696   0.54466   0.39071   0.00000  Uiso   1.00
O279   O     0.16415   0.57830   0.37503   0.00000  Uiso   1.00
O280   O     0.22343   0.53657   0.37989   0.00000  Uiso   1.00
N281   N     0.28244   0.55167   0.11335   0.00000  Uiso   1.00
O282   O     0.27582   0.58996   0.12985   0.00000  Uiso   1.00
O283   O     0.31607   0.52789   0.11795   0.00000  Uiso   1.00
N284   N     0.05095   0.44829   0.38660   0.00000  Uiso   1.00
O285   O     0.05767   0.41003   0.36999   0.00000  Uiso   1.00
O286   O     0.01726   0.47205   0.38206   0.00000  Uiso   1.00
Cl287  Cl    0.03826   0.40365   0.47431   0.00000  Uiso   1.00
Cl288  Cl    0.29519   0.59622   0.02557   0.00000  Uiso   1.00
Cl289  Cl    0.20398   0.37938   0.32029   0.00000  Uiso   1.00
Cl290  Cl    0.12935   0.62062   0.17971   0.00000  Uiso   1.00
N291   N     0.30627   0.43309   0.20689   0.00000  Uiso   1.00
O292   O     0.31668   0.39496   0.21445   0.00000  Uiso   1.00
O293   O     0.29509   0.44001   0.17132   0.00000  Uiso   1.00
N294   N     0.02706   0.56691   0.29310   0.00000  Uiso   1.00
O295   O     0.01665   0.60504   0.28555   0.00000  Uiso   1.00
O296   O     0.03826   0.55999   0.32867   0.00000  Uiso   1.00
O297   O     0.46179   0.56108   0.25000   0.00000  Uiso   1.00
O298   O     0.53821   0.43892   0.24999   0.00000  Uiso   1.00
O299   O     0.53823   0.56107   0.25000   0.00000  Uiso   1.00
O300   O     0.46177   0.43893   0.25000   0.00000  Uiso   1.00
C301   C     0.50013   0.57989   0.24916   0.00000  Uiso   1.00
C302   C     0.49987   0.42011   0.25084   0.00000  Uiso   1.00
O303   O     0.43994   0.50001   0.31612   0.00000  Uiso   1.00
O304   O     0.56006   0.49999   0.18387   0.00000  Uiso   1.00
O305   O     0.51639   0.50000   0.31612   0.00000  Uiso   1.00
O306   O     0.48361   0.50000   0.18388   0.00000  Uiso   1.00
C307   C     0.46882   0.50007   0.33819   0.00000  Uiso   1.00
C308   C     0.53118   0.49993   0.16181   0.00000  Uiso   1.00
Zn309  Zn    0.44896   0.50001   0.25000   0.00000  Uiso   1.00
Zn310  Zn    0.55104   0.49999   0.25000   0.00000  Uiso   1.00
C311   C     0.44857   0.49541   0.38917   0.00000  Uiso   1.00
C312   C     0.55144   0.50456   0.11082   0.00000  Uiso   1.00
C313   C     0.41249   0.44520   0.45042   0.00000  Uiso   1.00
C314   C     0.58756   0.55472   0.04953   0.00000  Uiso   1.00
C315   C     0.41375   0.46426   0.40984   0.00000  Uiso   1.00
C316   C     0.58629   0.53569   0.09013   0.00000  Uiso   1.00
C317   C     0.47414   0.51385   0.41393   0.00000  Uiso   1.00
C318   C     0.52587   0.48612   0.08607   0.00000  Uiso   1.00
C319   C     0.47049   0.49654   0.45680   0.00000  Uiso   1.00
C320   C     0.52952   0.50342   0.04320   0.00000  Uiso   1.00
C321   C     0.44450   0.45867   0.47092   0.00000  Uiso   1.00
C322   C     0.55553   0.54127   0.02906   0.00000  Uiso   1.00
C323   C     0.49583   0.51290   0.48359   0.00000  Uiso   1.00
C324   C     0.50416   0.48705   0.01642   0.00000  Uiso   1.00
C325   C     0.48765   0.44558   0.02067   0.00000  Uiso   1.00
C326   C     0.51234   0.55438   0.47935   0.00000  Uiso   1.00
C327   C     0.45459   0.43310   0.00207   0.00000  Uiso   1.00
C328   C     0.54542   0.56684   0.49792   0.00000  Uiso   1.00
H329   H     0.44001   0.40192   0.00954   0.00000  Uiso   1.00
H330   H     0.56001   0.59803   0.49045   0.00000  Uiso   1.00
H331   H     0.49969   0.42214   0.03852   0.00000  Uiso   1.00
H332   H     0.50029   0.57781   0.46151   0.00000  Uiso   1.00
C333   C     0.51797   0.64467   0.27842   0.00000  Uiso   1.00
C334   C     0.48203   0.35533   0.22159   0.00000  Uiso   1.00
H335   H     0.53139   0.62737   0.30070   0.00000  Uiso   1.00
H336   H     0.46860   0.37263   0.19930   0.00000  Uiso   1.00
C337   C     0.51783   0.35428   0.27997   0.00000  Uiso   1.00
C338   C     0.48217   0.64572   0.22003   0.00000  Uiso   1.00
C339   C     0.50006   0.37598   0.25105   0.00000  Uiso   1.00
C340   C     0.49994   0.62402   0.24895   0.00000  Uiso   1.00
C341   C     0.65210   0.46737   0.22978   0.00000  Uiso   1.00
C342   C     0.34790   0.53263   0.27022   0.00000  Uiso   1.00
C343   C     0.36633   0.46745   0.23037   0.00000  Uiso   1.00
C344   C     0.63367   0.53255   0.26963   0.00000  Uiso   1.00
H345   H     0.39187   0.44165   0.21431   0.00000  Uiso   1.00
H346   H     0.60812   0.55835   0.28569   0.00000  Uiso   1.00
N347   N     0.38093   0.50001   0.25001   0.00000  Uiso   1.00
N348   N     0.61907   0.49999   0.24999   0.00000  Uiso   1.00
N349   N     0.48972   0.45531   0.10930   0.00000  Uiso   1.00
O350   O     0.44325   0.46339   0.12012   0.00000  Uiso   1.00
O351   O     0.50254   0.42167   0.12498   0.00000  Uiso   1.00
N352   N     0.51029   0.54466   0.39071   0.00000  Uiso   1.00
O353   O     0.49748   0.57830   0.37503   0.00000  Uiso   1.00
O354   O     0.55676   0.53657   0.37989   0.00000  Uiso   1.00
N355   N     0.61577   0.55167   0.11335   0.00000  Uiso   1.00
O356   O     0.60915   0.58996   0.12985   0.00000  Uiso   1.00
O357   O     0.64941   0.52789   0.11795   0.00000  Uiso   1.00
N358   N     0.38428   0.44829   0.38660   0.00000  Uiso   1.00
O359   O     0.39100   0.41003   0.36999   0.00000  Uiso   1.00
O360   O     0.35059   0.47205   0.38206   0.00000  Uiso   1.00
Cl361  Cl    0.37159   0.40365   0.47431   0.00000  Uiso   1.00
Cl362  Cl    0.62852   0.59622   0.02557   0.00000  Uiso   1.00
Cl363  Cl    0.53731   0.37938   0.32029   0.00000  Uiso   1.00
Cl364  Cl    0.46269   0.62062   0.17971   0.00000  Uiso   1.00
N365   N     0.63961   0.43309   0.20689   0.00000  Uiso   1.00
O366   O     0.65001   0.39496   0.21445   0.00000  Uiso   1.00
O367   O     0.62842   0.44001   0.17132   0.00000  Uiso   1.00
N368   N     0.36040   0.56691   0.29310   0.00000  Uiso   1.00
O369   O     0.34999   0.60504   0.28555   0.00000  Uiso   1.00
O370   O     0.37159   0.55999   0.32867   0.00000  Uiso   1.00
O371   O     0.79512   0.56108   0.25000   0.00000  Uiso   1.00
O372   O     0.87154   0.43892   0.24999   0.00000  Uiso   1.00
O373   O     0.87157   0.56107   0.25000   0.00000  Uiso   1.00
O374   O     0.79510   0.43893   0.25000   0.00000  Uiso   1.00
C375   C     0.83346   0.57989   0.24916   0.00000  Uiso   1.00
C376   C     0.83320   0.42011   0.25084   0.00000  Uiso   1.00
O377   O     0.77328   0.50001   0.31612   0.00000  Uiso   1.00
O378   O     0.89339   0.49999   0.18387   0.00000  Uiso   1.00
O379   O     0.84972   0.50000   0.31612   0.00000  Uiso   1.00
O380   O     0.81695   0.50000   0.18388   0.00000  Uiso   1.00
C381   C     0.80215   0.50007   0.33819   0.00000  Uiso   1.00
C382   C     0.86452   0.49993   0.16181   0.00000  Uiso   1.00
Zn383  Zn    0.78229   0.50001   0.25000   0.00000  Uiso   1.00
Zn384  Zn    0.88438   0.49999   0.25000   0.00000  Uiso   1.00
C385   C     0.78190   0.49541   0.38917   0.00000  Uiso   1.00
C386   C     0.88478   0.50456   0.11082   0.00000  Uiso   1.00
C387   C     0.74583   0.44520   0.45042   0.00000  Uiso   1.00
C388   C     0.92089   0.55472   0.04953   0.00000  Uiso   1.00
C389   C     0.74708   0.46426   0.40984   0.00000  Uiso   1.00
C390   C     0.91962   0.53569   0.09013   0.00000  Uiso   1.00
C391   C     0.80748   0.51385   0.41393   0.00000  Uiso   1.00
C392   C     0.85920   0.48612   0.08607   0.00000  Uiso   1.00
C393   C     0.80382   0.49654   0.45680   0.00000  Uiso   1.00
C394   C     0.86285   0.50342   0.04320   0.00000  Uiso   1.00
C395   C     0.77783   0.45867   0.47092   0.00000  Uiso   1.00
C396   C     0.88886   0.54127   0.02906   0.00000  Uiso   1.00
C397   C     0.82917   0.51290   0.48359   0.00000  Uiso   1.00
C398   C     0.83750   0.48705   0.01642   0.00000  Uiso   1.00
C399   C     0.82099   0.44558   0.02067   0.00000  Uiso   1.00
C400   C     0.84567   0.55438   0.47935   0.00000  Uiso   1.00
C401   C     0.78792   0.43310   0.00207   0.00000  Uiso   1.00
C402   C     0.87875   0.56684   0.49792   0.00000  Uiso   1.00
H403   H     0.77334   0.40192   0.00954   0.00000  Uiso   1.00
H404   H     0.89334   0.59803   0.49045   0.00000  Uiso   1.00
H405   H     0.83303   0.42214   0.03852   0.00000  Uiso   1.00
H406   H     0.83362   0.57781   0.46151   0.00000  Uiso   1.00
C407   C     0.85130   0.64467   0.27842   0.00000  Uiso   1.00
C408   C     0.81536   0.35533   0.22159   0.00000  Uiso   1.00
H409   H     0.86473   0.62737   0.30070   0.00000  Uiso   1.00
H410   H     0.80194   0.37263   0.19930   0.00000  Uiso   1.00
C411   C     0.85117   0.35428   0.27997   0.00000  Uiso   1.00
C412   C     0.81550   0.64572   0.22003   0.00000  Uiso   1.00
C413   C     0.83339   0.37598   0.25105   0.00000  Uiso   1.00
C414   C     0.83327   0.62402   0.24895   0.00000  Uiso   1.00
C415   C     0.98543   0.46737   0.22978   0.00000  Uiso   1.00
C416   C     0.68124   0.53263   0.27022   0.00000  Uiso   1.00
C417   C     0.69966   0.46745   0.23037   0.00000  Uiso   1.00
C418   C     0.96700   0.53255   0.26963   0.00000  Uiso   1.00
H419   H     0.72521   0.44165   0.21431   0.00000  Uiso   1.00
H420   H     0.94146   0.55835   0.28569   0.00000  Uiso   1.00
N421   N     0.71426   0.50001   0.25001   0.00000  Uiso   1.00
N422   N     0.95241   0.49999   0.24999   0.00000  Uiso   1.00
N423   N     0.82305   0.45531   0.10930   0.00000  Uiso   1.00
O424   O     0.77658   0.46339   0.12012   0.00000  Uiso   1.00
O425   O     0.83587   0.42167   0.12498   0.00000  Uiso   1.00
N426   N     0.84362   0.54466   0.39071   0.00000  Uiso   1.00
O427   O     0.83081   0.57830   0.37503   0.00000  Uiso   1.00
O428   O     0.89009   0.53657   0.37989   0.00000  Uiso   1.00
N429   N     0.94910   0.55167   0.11335   0.00000  Uiso   1.00
O430   O     0.94248   0.58996   0.12985   0.00000  Uiso   1.00
O431   O     0.98274   0.52789   0.11795   0.00000  Uiso   1.00
N432   N     0.71762   0.44829   0.38660   0.00000  Uiso   1.00
O433   O     0.72433   0.41003   0.36999   0.00000  Uiso   1.00
O434   O     0.68392   0.47205   0.38206   0.00000  Uiso   1.00
Cl435  Cl    0.70493   0.40365   0.47431   0.00000  Uiso   1.00
Cl436  Cl    0.96186   0.59622   0.02557   0.00000  Uiso   1.00
Cl437  Cl    0.87064   0.37938   0.32029   0.00000  Uiso   1.00
Cl438  Cl    0.79602   0.62062   0.17971   0.00000  Uiso   1.00
N439   N     0.97294   0.43309   0.20689   0.00000  Uiso   1.00
O440   O     0.98334   0.39496   0.21445   0.00000  Uiso   1.00
O441   O     0.96175   0.44001   0.17132   0.00000  Uiso   1.00
N442   N     0.69373   0.56691   0.29310   0.00000  Uiso   1.00
O443   O     0.68332   0.60504   0.28555   0.00000  Uiso   1.00
O444   O     0.70492   0.55999   0.32867   0.00000  Uiso   1.00
O445   O     0.12846   0.89442   0.25000   0.00000  Uiso   1.00
O446   O     0.20488   0.77225   0.24999   0.00000  Uiso   1.00
O447   O     0.20490   0.89441   0.25000   0.00000  Uiso   1.00
O448   O     0.12843   0.77226   0.25000   0.00000  Uiso   1.00
C449   C     0.16680   0.91323   0.24916   0.00000  Uiso   1.00
C450   C     0.16654   0.75344   0.25084   0.00000  Uiso   1.00
O451   O     0.10661   0.83334   0.31612   0.00000  Uiso   1.00
O452   O     0.22672   0.83333   0.18387   0.00000  Uiso   1.00
O453   O     0.18305   0.83333   0.31612   0.00000  Uiso   1.00
O454   O     0.15028   0.83334   0.18388   0.00000  Uiso   1.00
C455   C     0.13549   0.83340   0.33819   0.00000  Uiso   1.00
C456   C     0.19785   0.83326   0.16181   0.00000  Uiso   1.00
Zn457  Zn    0.11562   0.83334   0.25000   0.00000  Uiso   1.00
Zn458  Zn    0.21771   0.83333   0.25000   0.00000  Uiso   1.00
C459   C     0.11523   0.82875   0.38917   0.00000  Uiso   1.00
C460   C     0.21811   0.83790   0.11082   0.00000  Uiso   1.00
C461   C     0.07916   0.77854   0.45042   0.00000  Uiso   1.00
C462   C     0.25423   0.88806   0.04953   0.00000  Uiso   1.00
C463   C     0.08042   0.79760   0.40984   0.00000  Uiso   1.00
C464   C     0.25296   0.86902   0.09013   0.00000  Uiso   1.00
C465   C     0.14081   0.84718   0.41393   0.00000  Uiso   1.00
C466   C     0.19253   0.81945   0.08607   0.00000  Uiso   1.00
C467   C     0.13716   0.82987   0.45680   0.00000  Uiso   1.00
C468   C     0.19618   0.83675   0.04320   0.00000  Uiso   1.00
C469   C     0.11116   0.79200   0.47092   0.00000  Uiso   1.00
C470   C     0.22220   0.87460   0.02906   0.00000  Uiso   1.00
C471   C     0.16250   0.84623   0.48359   0.00000  Uiso   1.00
C472   C     0.17083   0.82039   0.01642   0.00000  Uiso   1.00
C473   C     0.15432   0.77891   0.02067   0.00000  Uiso   1.00
C474   C     0.17900   0.88771   0.47935   0.00000  Uiso   1.00
C475   C     0.12126   0.76644   0.00207   0.00000  Uiso   1.00
C476   C     0.21209   0.90018   0.49792   0.00000  Uiso   1.00
H477   H     0.10668   0.73525   0.00954   0.00000  Uiso   1.00
H478   H     0.22667   0.93136   0.49045   0.00000  Uiso   1.00
H479   H     0.16636   0.75548   0.03852   0.00000  Uiso   1.00
H480   H     0.16695   0.91115   0.46151   0.00000  Uiso   1.00
C481   C     0.18464   0.97800   0.27842   0.00000  Uiso   1.00
C482   C     0.14869   0.68867   0.22159   0.00000  Uiso   1.00
H483   H     0.19806   0.96070   0.30070   0.00000  Uiso   1.00
H484   H     0.13527   0.70596   0.19930   0.00000  Uiso   1.00
C485   C     0.18450   0.68762   0.27997   0.00000  Uiso   1.00
C486   C     0.14883   0.97905   0.22003   0.00000  Uiso   1.00
C487   C     0.16673   0.70931   0.25105   0.00000  Uiso   1.00
C488   C     0.16661   0.95736   0.24895   0.00000  Uiso   1.00
C489   C     0.31876   0.80070   0.22978   0.00000  Uiso   1.00
C490   C     0.01457   0.86597   0.27022   0.00000  Uiso   1.00
C491   C     0.03300   0.80078   0.23037   0.00000  Uiso   1.00
C492   C     0.30034   0.86589   0.26963   0.00000  Uiso   1.00
H493   H     0.05854   0.77498   0.21431   0.00000  Uiso   1.00
H494   H     0.27479   0.89168   0.28569   0.00000  Uiso   1.00
N495   N     0.04759   0.83334   0.25001   0.00000  Uiso   1.00
N496   N     0.28574   0.83332   0.24999   0.00000  Uiso   1.00
N497   N     0.15639   0.78864   0.10930   0.00000  Uiso   1.00
O498   O     0.10992   0.79672   0.12012   0.00000  Uiso   1.00
O499   O     0.16920   0.75501   0.12498   0.00000  Uiso   1.00
N500   N     0.17696   0.87800   0.39071   0.00000  Uiso   1.00
O501   O     0.16415   0.91163   0.37503   0.00000  Uiso   1.00
O502   O     0.22343   0.86990   0.37989   0.00000  Uiso   1.00
N503   N     0.28244   0.88500   0.11335   0.00000  Uiso   1.00
O504   O     0.27582   0.92330   0.12985   0.00000  Uiso   1.00
O505   O     0.31607   0.86122   0.11795   0.00000  Uiso   1.00
N506   N     0.05095   0.78162   0.38660   0.00000  Uiso   1.00
O507   O     0.05767   0.74337   0.36999   0.00000  Uiso   1.00
O508   O     0.01726   0.80538   0.38206   0.00000  Uiso   1.00
Cl509  Cl    0.03826   0.73698   0.47431   0.00000  Uiso   1.00
Cl510  Cl    0.29519   0.92956   0.02557   0.00000  Uiso   1.00
Cl511  Cl    0.20398   0.71272   0.32029   0.00000  Uiso   1.00
Cl512  Cl    0.12935   0.95395   0.17971   0.00000  Uiso   1.00
N513   N     0.30627   0.76643   0.20689   0.00000  Uiso   1.00
O514   O     0.31668   0.72829   0.21445   0.00000  Uiso   1.00
O515   O     0.29509   0.77335   0.17132   0.00000  Uiso   1.00
N516   N     0.02706   0.90024   0.29310   0.00000  Uiso   1.00
O517   O     0.01665   0.93838   0.28555   0.00000  Uiso   1.00
O518   O     0.03826   0.89332   0.32867   0.00000  Uiso   1.00
O519   O     0.46179   0.89442   0.25000   0.00000  Uiso   1.00
O520   O     0.53821   0.77225   0.24999   0.00000  Uiso   1.00
O521   O     0.53823   0.89441   0.25000   0.00000  Uiso   1.00
O522   O     0.46177   0.77226   0.25000   0.00000  Uiso   1.00
C523   C     0.50013   0.91323   0.24916   0.00000  Uiso   1.00
C524   C     0.49987   0.75344   0.25084   0.00000  Uiso   1.00
O525   O     0.43994   0.83334   0.31612   0.00000  Uiso   1.00
O526   O     0.56006   0.83333   0.18387   0.00000  Uiso   1.00
O527   O     0.51639   0.83333   0.31612   0.00000  Uiso   1.00
O528   O     0.48361   0.83334   0.18388   0.00000  Uiso   1.00
C529   C     0.46882   0.83340   0.33819   0.00000  Uiso   1.00
C530   C     0.53118   0.83326   0.16181   0.00000  Uiso   1.00
Zn531  Zn    0.44896   0.83334   0.25000   0.00000  Uiso   1.00
Zn532  Zn    0.55104   0.83333   0.25000   0.00000  Uiso   1.00
C533   C     0.44857   0.82875   0.38917   0.00000  Uiso   1.00
C534   C     0.55144   0.83790   0.11082   0.00000  Uiso   1.00
C535   C     0.41249   0.77854   0.45042   0.00000  Uiso   1.00
C536   C     0.58756   0.88806   0.04953   0.00000  Uiso   1.00
C537   C     0.41375   0.79760   0.40984   0.00000  Uiso   1.00
C538   C     0.58629   0.86902   0.09013   0.00000  Uiso   1.00
C539   C     0.47414   0.84718   0.41393   0.00000  Uiso   1.00
C540   C     0.52587   0.81945   0.08607   0.00000  Uiso   1.00
C541   C     0.47049   0.82987   0.45680   0.00000  Uiso   1.00
C542   C     0.52952   0.83675   0.04320   0.00000  Uiso   1.00
C543   C     0.44450   0.79200   0.47092   0.00000  Uiso   1.00
C544   C     0.55553   0.87460   0.02906   0.00000  Uiso   1.00
C545   C     0.49583   0.84623   0.48359   0.00000  Uiso   1.00
C546   C     0.50416   0.82039   0.01642   0.00000  Uiso   1.00
C547   C     0.48765   0.77891   0.02067   0.00000  Uiso   1.00
C548   C     0.51234   0.88771   0.47935   0.00000  Uiso   1.00
C549   C     0.45459   0.76644   0.00207   0.00000  Uiso   1.00
C550   C     0.54542   0.90018   0.49792   0.00000  Uiso   1.00
H551   H     0.44001   0.73525   0.00954   0.00000  Uiso   1.00
H552   H     0.56001   0.93136   0.49045   0.00000  Uiso   1.00
H553   H     0.49969   0.75548   0.03852   0.00000  Uiso   1.00
H554   H     0.50029   0.91115   0.46151   0.00000  Uiso   1.00
C555   C     0.51797   0.97800   0.27842   0.00000  Uiso   1.00
C556   C     0.48203   0.68867   0.22159   0.00000  Uiso   1.00
H557   H     0.53139   0.96070   0.30070   0.00000  Uiso   1.00
H558   H     0.46860   0.70596   0.19930   0.00000  Uiso   1.00
C559   C     0.51783   0.68762   0.27997   0.00000  Uiso   1.00
C560   C     0.48217   0.97905   0.22003   0.00000  Uiso   1.00
C561   C     0.50006   0.70931   0.25105   0.00000  Uiso   1.00
C562   C     0.49994   0.95736   0.24895   0.00000  Uiso   1.00
C563   C     0.65210   0.80070   0.22978   0.00000  Uiso   1.00
C564   C     0.34790   0.86597   0.27022   0.00000  Uiso   1.00
C565   C     0.36633   0.80078   0.23037   0.00000  Uiso   1.00
C566   C     0.63367   0.86589   0.26963   0.00000  Uiso   1.00
H567   H     0.39187   0.77498   0.21431   0.00000  Uiso   1.00
H568   H     0.60812   0.89168   0.28569   0.00000  Uiso   1.00
N569   N     0.38093   0.83334   0.25001   0.00000  Uiso   1.00
N570   N     0.61907   0.83332   0.24999   0.00000  Uiso   1.00
N571   N     0.48972   0.78864   0.10930   0.00000  Uiso   1.00
O572   O     0.44325   0.79672   0.12012   0.00000  Uiso   1.00
O573   O     0.50254   0.75501   0.12498   0.00000  Uiso   1.00
N574   N     0.51029   0.87800   0.39071   0.00000  Uiso   1.00
O575   O     0.49748   0.91163   0.37503   0.00000  Uiso   1.00
O576   O     0.55676   0.86990   0.37989   0.00000  Uiso   1.00
N577   N     0.61577   0.88500   0.11335   0.00000  Uiso   1.00
O578   O     0.60915   0.92330   0.12985   0.00000  Uiso   1.00
O579   O     0.64941   0.86122   0.11795   0.00000  Uiso   1.00
N580   N     0.38428   0.78162   0.38660   0.00000  Uiso   1.00
O581   O     0.39100   0.74337   0.36999   0.00000  Uiso   1.00
O582   O     0.35059   0.80538   0.38206   0.00000  Uiso   1.00
Cl583  Cl    0.37159   0.73698   0.47431   0.00000  Uiso   1.00
Cl584  Cl    0.62852   0.92956   0.02557   0.00000  Uiso   1.00
Cl585  Cl    0.53731   0.71272   0.32029   0.00000  Uiso   1.00
Cl586  Cl    0.46269   0.95395   0.17971   0.00000  Uiso   1.00
N587   N     0.63961   0.76643   0.20689   0.00000  Uiso   1.00
O588   O     0.65001   0.72829   0.21445   0.00000  Uiso   1.00
O589   O     0.62842   0.77335   0.17132   0.00000  Uiso   1.00
N590   N     0.36040   0.90024   0.29310   0.00000  Uiso   1.00
O591   O     0.34999   0.93838   0.28555   0.00000  Uiso   1.00
O592   O     0.37159   0.89332   0.32867   0.00000  Uiso   1.00
O593   O     0.79512   0.89442   0.25000   0.00000  Uiso   1.00
O594   O     0.87154   0.77225   0.24999   0.00000  Uiso   1.00
O595   O     0.87157   0.89441   0.25000   0.00000  Uiso   1.00
O596   O     0.79510   0.77226   0.25000   0.00000  Uiso   1.00
C597   C     0.83346   0.91323   0.24916   0.00000  Uiso   1.00
C598   C     0.83320   0.75344   0.25084   0.00000  Uiso   1.00
O599   O     0.77328   0.83334   0.31612   0.00000  Uiso   1.00
O600   O     0.89339   0.83333   0.18387   0.00000  Uiso   1.00
O601   O     0.84972   0.83333   0.31612   0.00000  Uiso   1.00
O602   O     0.81695   0.83334   0.18388   0.00000  Uiso   1.00
C603   C     0.80215   0.83340   0.33819   0.00000  Uiso   1.00
C604   C     0.86452   0.83326   0.16181   0.00000  Uiso   1.00
Zn605  Zn    0.78229   0.83334   0.25000   0.00000  Uiso   1.00
Zn606  Zn    0.88438   0.83333   0.25000   0.00000  Uiso   1.00
C607   C     0.78190   0.82875   0.38917   0.00000  Uiso   1.00
C608   C     0.88478   0.83790   0.11082   0.00000  Uiso   1.00
C609   C     0.74583   0.77854   0.45042   0.00000  Uiso   1.00
C610   C     0.92089   0.88806   0.04953   0.00000  Uiso   1.00
C611   C     0.74708   0.79760   0.40984   0.00000  Uiso   1.00
C612   C     0.91962   0.86902   0.09013   0.00000  Uiso   1.00
C613   C     0.80748   0.84718   0.41393   0.00000  Uiso   1.00
C614   C     0.85920   0.81945   0.08607   0.00000  Uiso   1.00
C615   C     0.80382   0.82987   0.45680   0.00000  Uiso   1.00
C616   C     0.86285   0.83675   0.04320   0.00000  Uiso   1.00
C617   C     0.77783   0.79200   0.47092   0.00000  Uiso   1.00
C618   C     0.88886   0.87460   0.02906   0.00000  Uiso   1.00
C619   C     0.82917   0.84623   0.48359   0.00000  Uiso   1.00
C620   C     0.83750   0.82039   0.01642   0.00000  Uiso   1.00
C621   C     0.82099   0.77891   0.02067   0.00000  Uiso   1.00
C622   C     0.84567   0.88771   0.47935   0.00000  Uiso   1.00
C623   C     0.78792   0.76644   0.00207   0.00000  Uiso   1.00
C624   C     0.87875   0.90018   0.49792   0.00000  Uiso   1.00
H625   H     0.77334   0.73525   0.00954   0.00000  Uiso   1.00
H626   H     0.89334   0.93136   0.49045   0.00000  Uiso   1.00
H627   H     0.83303   0.75548   0.03852   0.00000  Uiso   1.00
H628   H     0.83362   0.91115   0.46151   0.00000  Uiso   1.00
C629   C     0.85130   0.97800   0.27842   0.00000  Uiso   1.00
C630   C     0.81536   0.68867   0.22159   0.00000  Uiso   1.00
H631   H     0.86473   0.96070   0.30070   0.00000  Uiso   1.00
H632   H     0.80194   0.70596   0.19930   0.00000  Uiso   1.00
C633   C     0.85117   0.68762   0.27997   0.00000  Uiso   1.00
C634   C     0.81550   0.97905   0.22003   0.00000  Uiso   1.00
C635   C     0.83339   0.70931   0.25105   0.00000  Uiso   1.00
C636   C     0.83327   0.95736   0.24895   0.00000  Uiso   1.00
C637   C     0.98543   0.80070   0.22978   0.00000  Uiso   1.00
C638   C     0.68124   0.86597   0.27022   0.00000  Uiso   1.00
C639   C     0.69966   0.80078   0.23037   0.00000  Uiso   1.00
C640   C     0.96700   0.86589   0.26963   0.00000  Uiso   1.00
H641   H     0.72521   0.77498   0.21431   0.00000  Uiso   1.00
H642   H     0.94146   0.89168   0.28569   0.00000  Uiso   1.00
N643   N     0.71426   0.83334   0.25001   0.00000  Uiso   1.00
N644   N     0.95241   0.83332   0.24999   0.00000  Uiso   1.00
N645   N     0.82305   0.78864   0.10930   0.00000  Uiso   1.00
O646   O     0.77658   0.79672   0.12012   0.00000  Uiso   1.00
O647   O     0.83587   0.75501   0.12498   0.00000  Uiso   1.00
N648   N     0.84362   0.87800   0.39071   0.00000  Uiso   1.00
O649   O     0.83081   0.91163   0.37503   0.00000  Uiso   1.00
O650   O     0.89009   0.86990   0.37989   0.00000  Uiso   1.00
N651   N     0.94910   0.88500   0.11335   0.00000  Uiso   1.00
O652   O     0.94248   0.92330   0.12985   0.00000  Uiso   1.00
O653   O     0.98274   0.86122   0.11795   0.00000  Uiso   1.00
N654   N     0.71762   0.78162   0.38660   0.00000  Uiso   1.00
O655   O     0.72433   0.74337   0.36999   0.00000  Uiso   1.00
O656   O     0.68392   0.80538   0.38206   0.00000  Uiso   1.00
Cl657  Cl    0.70493   0.73698   0.47431   0.00000  Uiso   1.00
Cl658  Cl    0.96186   0.92956   0.02557   0.00000  Uiso   1.00
Cl659  Cl    0.87064   0.71272   0.32029   0.00000  Uiso   1.00
Cl660  Cl    0.79602   0.95395   0.17971   0.00000  Uiso   1.00
N661   N     0.97294   0.76643   0.20689   0.00000  Uiso   1.00
O662   O     0.98334   0.72829   0.21445   0.00000  Uiso   1.00
O663   O     0.96175   0.77335   0.17132   0.00000  Uiso   1.00
N664   N     0.69373   0.90024   0.29310   0.00000  Uiso   1.00
O665   O     0.68332   0.93838   0.28555   0.00000  Uiso   1.00
O666   O     0.70492   0.89332   0.32867   0.00000  Uiso   1.00
O667   O     0.12846   0.22775   0.75000   0.00000  Uiso   1.00
O668   O     0.20488   0.10558   0.74999   0.00000  Uiso   1.00
O669   O     0.20490   0.22774   0.75000   0.00000  Uiso   1.00
O670   O     0.12843   0.10559   0.75000   0.00000  Uiso   1.00
C671   C     0.16680   0.24656   0.74916   0.00000  Uiso   1.00
C672   C     0.16654   0.08677   0.75084   0.00000  Uiso   1.00
O673   O     0.10661   0.16667   0.81612   0.00000  Uiso   1.00
O674   O     0.22672   0.16666   0.68387   0.00000  Uiso   1.00
O675   O     0.18305   0.16666   0.81612   0.00000  Uiso   1.00
O676   O     0.15028   0.16667   0.68388   0.00000  Uiso   1.00
C677   C     0.13549   0.16674   0.83819   0.00000  Uiso   1.00
C678   C     0.19785   0.16660   0.66181   0.00000  Uiso   1.00
Zn679  Zn    0.11562   0.16667   0.75000   0.00000  Uiso   1.00
Zn680  Zn    0.21771   0.16666   0.75000   0.00000  Uiso   1.00
C681   C     0.11523   0.16208   0.88917   0.00000  Uiso   1.00
C682   C     0.21811   0.17123   0.61082   0.00000  Uiso   1.00
C683   C     0.07916   0.11187   0.95042   0.00000  Uiso   1.00
C684   C     0.25423   0.22139   0.54953   0.00000  Uiso   1.00
C685   C     0.08042   0.13093   0.90984   0.00000  Uiso   1.00
C686   C     0.25296   0.20236   0.59013   0.00000  Uiso   1.00
C687   C     0.14081   0.18051   0.91393   0.00000  Uiso   1.00
C688   C     0.19253   0.15279   0.58607   0.00000  Uiso   1.00
C689   C     0.13716   0.16320   0.95680   0.00000  Uiso   1.00
C690   C     0.19618   0.17009   0.54320   0.00000  Uiso   1.00
C691   C     0.11116   0.12534   0.97092   0.00000  Uiso   1.00
C692   C     0.22220   0.20794   0.52906   0.00000  Uiso   1.00
C693   C     0.16250   0.17957   0.98359   0.00000  Uiso   1.00
C694   C     0.17083   0.15372   0.51642   0.00000  Uiso   1.00
C695   C     0.15432   0.11224   0.52067   0.00000  Uiso   1.00
C696   C     0.17900   0.22104   0.97935   0.00000  Uiso   1.00
C697   C     0.12126   0.09977   0.50207   0.00000  Uiso   1.00
C698   C     0.21209   0.23351   0.99792   0.00000  Uiso   1.00
H699   H     0.10668   0.06858   0.50954   0.00000  Uiso   1.00
H700   H     0.22667   0.26469   0.99045   0.00000  Uiso   1.00
H701   H     0.16636   0.08881   0.53852   0.00000  Uiso   1.00
H702   H     0.16695   0.24448   0.96151   0.00000  Uiso   1.00
C703   C     0.18464   0.31133   0.77842   0.00000  Uiso   1.00
C704   C     0.14869   0.02200   0.72159   0.00000  Uiso   1.00
H705   H     0.19806   0.29404   0.80070   0.00000  Uiso   1.00
H706   H     0.13527   0.03930   0.69930   0.00000  Uiso   1.00
C707   C     0.18450   0.02095   0.77997   0.00000  Uiso   1.00
C708   C     0.14883   0.31238   0.72003   0.00000  Uiso   1.00
C709   C     0.16673   0.04264   0.75105   0.00000  Uiso   1.00
C710   C     0.16661   0.29069   0.74895   0.00000  Uiso   1.00
C711   C     0.31876   0.13403   0.72978   0.00000  Uiso   1.00
C712   C     0.01457   0.19930   0.77022   0.00000  Uiso   1.00
C713   C     0.03300   0.13411   0.73037   0.00000  Uiso   1.00
C714   C     0.30034   0.19922   0.76963   0.00000  Uiso   1.00
H715   H     0.05854   0.10832   0.71431   0.00000  Uiso   1.00
H716   H     0.27479   0.22502   0.78569   0.00000  Uiso   1.00
N717   N     0.04759   0.16668   0.75001   0.00000  Uiso   1.00
N718   N     0.28574   0.16666   0.74999   0.00000  Uiso   1.00
N719   N     0.15639   0.12197   0.60930   0.00000  Uiso   1.00
O720   O     0.10992   0.13006   0.62012   0.00000  Uiso   1.00
O721   O     0.16920   0.08834   0.62498   0.00000  Uiso   1.00
N722   N     0.17696   0.21133   0.89071   0.00000  Uiso   1.00
O723   O     0.16415   0.24497   0.87503   0.00000  Uiso   1.00
O724   O     0.22343   0.20324   0.87989   0.00000  Uiso   1.00
N725   N     0.28244   0.21834   0.61335   0.00000  Uiso   1.00
O726   O     0.27582   0.25663   0.62985   0.00000  Uiso   1.00
O727   O     0.31607   0.19455   0.61795   0.00000  Uiso   1.00
N728   N     0.05095   0.11495   0.88660   0.00000  Uiso   1.00
O729   O     0.05767   0.07670   0.86999   0.00000  Uiso   1.00
O730   O     0.01726   0.13872   0.88206   0.00000  Uiso   1.00
Cl731  Cl    0.03826   0.07032   0.97431   0.00000  Uiso   1.00
Cl732  Cl    0.29519   0.26289   0.52557   0.00000  Uiso   1.00
Cl733  Cl    0.20398   0.04605   0.82029   0.00000  Uiso   1.00
Cl734  Cl    0.12935   0.28729   0.67971   0.00000  Uiso   1.00
N735   N     0.30627   0.09976   0.70689   0.00000  Uiso   1.00
O736   O     0.31668   0.06162   0.71445   0.00000  Uiso   1.00
O737   O     0.29509   0.10668   0.67132   0.00000  Uiso   1.00
N738   N     0.02706   0.23358   0.79310   0.00000  Uiso   1.00
O739   O     0.01665   0.27171   0.78555   0.00000  Uiso   1.00
O740   O     0.03826   0.22666   0.82867   0.00000  Uiso   1.00
O741   O     0.46179   0.22775   0.75000   0.00000  Uiso   1.00
O742   O     0.53821   0.10558   0.74999   0.00000  Uiso   1.00
O743   O     0.53823   0.22774   0.75000   0.00000  Uiso   1.00
O744   O     0.46177   0.10559   0.75000   0.00000  Uiso   1.00
C745   C     0.50013   0.24656   0.74916   0.00000  Uiso   1.00
C746   C     0.49987   0.08677   0.75084   0.00000  Uiso   1.00
O747   O     0.43994   0.16667   0.81612   0.00000  Uiso   1.00
O748   O     0.56006   0.16666   0.68387   0.00000  Uiso   1.00
O749   O     0.51639   0.16666   0.81612   0.00000  Uiso   1.00
O750   O     0.48361   0.16667   0.68388   0.00000  Uiso   1.00
C751   C     0.46882   0.16674   0.83819   0.00000  Uiso   1.00
C752   C     0.53118   0.16660   0.66181   0.00000  Uiso   1.00
Zn753  Zn    0.44896   0.16667   0.75000   0.00000  Uiso   1.00
Zn754  Zn    0.55104   0.16666   0.75000   0.00000  Uiso   1.00
C755   C     0.44857   0.16208   0.88917   0.00000  Uiso   1.00
C756   C     0.55144   0.17123   0.61082   0.00000  Uiso   1.00
C757   C     0.41249   0.11187   0.95042   0.00000  Uiso   1.00
C758   C     0.58756   0.22139   0.54953   0.00000  Uiso   1.00
C759   C     0.41375   0.13093   0.90984   0.00000  Uiso   1.00
C760   C     0.58629   0.20236   0.59013   0.00000  Uiso   1.00
C761   C     0.47414   0.18051   0.91393   0.00000  Uiso   1.00
C762   C     0.52587   0.15279   0.58607   0.00000  Uiso   1.00
C763   C     0.47049   0.16320   0.95680   0.00000  Uiso   1.00
C764   C     0.52952   0.17009   0.54320   0.00000  Uiso   1.00
C765   C     0.44450   0.12534   0.97092   0.00000  Uiso   1.00
C766   C     0.55553   0.20794   0.52906   0.00000  Uiso   1.00
C767   C     0.49583   0.17957   0.98359   0.00000  Uiso   1.00
C768   C     0.50416   0.15372   0.51642   0.00000  Uiso   1.00
C769   C     0.48765   0.11224   0.52067   0.00000  Uiso   1.00
C770   C     0.51234   0.22104   0.97935   0.00000  Uiso   1.00
C771   C     0.45459   0.09977   0.50207   0.00000  Uiso   1.00
C772   C     0.54542   0.23351   0.99792   0.00000  Uiso   1.00
H773   H     0.44001   0.06858   0.50954   0.00000  Uiso   1.00
H774   H     0.56001   0.26469   0.99045   0.00000  Uiso   1.00
H775   H     0.49969   0.08881   0.53852   0.00000  Uiso   1.00
H776   H     0.50029   0.24448   0.96151   0.00000  Uiso   1.00
C777   C     0.51797   0.31133   0.77842   0.00000  Uiso   1.00
C778   C     0.48203   0.02200   0.72159   0.00000  Uiso   1.00
H779   H     0.53139   0.29404   0.80070   0.00000  Uiso   1.00
H780   H     0.46860   0.03930   0.69930   0.00000  Uiso   1.00
C781   C     0.51783   0.02095   0.77997   0.00000  Uiso   1.00
C782   C     0.48217   0.31238   0.72003   0.00000  Uiso   1.00
C783   C     0.50006   0.04264   0.75105   0.00000  Uiso   1.00
C784   C     0.49994   0.29069   0.74895   0.00000  Uiso   1.00
C785   C     0.65210   0.13403   0.72978   0.00000  Uiso   1.00
C786   C     0.34790   0.19930   0.77022   0.00000  Uiso   1.00
C787   C     0.36633   0.13411   0.73037   0.00000  Uiso   1.00
C788   C     0.63367   0.19922   0.76963   0.00000  Uiso   1.00
H789   H     0.39187   0.10832   0.71431   0.00000  Uiso   1.00
H790   H     0.60812   0.22502   0.78569   0.00000  Uiso   1.00
N791   N     0.38093   0.16668   0.75001   0.00000  Uiso   1.00
N792   N     0.61907   0.16666   0.74999   0.00000  Uiso   1.00
N793   N     0.48972   0.12197   0.60930   0.00000  Uiso   1.00
O794   O     0.44325   0.13006   0.62012   0.00000  Uiso   1.00
O795   O     0.50254   0.08834   0.62498   0.00000  Uiso   1.00
N796   N     0.51029   0.21133   0.89071   0.00000  Uiso   1.00
O797   O     0.49748   0.24497   0.87503   0.00000  Uiso   1.00
O798   O     0.55676   0.20324   0.87989   0.00000  Uiso   1.00
N799   N     0.61577   0.21834   0.61335   0.00000  Uiso   1.00
O800   O     0.60915   0.25663   0.62985   0.00000  Uiso   1.00
O801   O     0.64941   0.19455   0.61795   0.00000  Uiso   1.00
N802   N     0.38428   0.11495   0.88660   0.00000  Uiso   1.00
O803   O     0.39100   0.07670   0.86999   0.00000  Uiso   1.00
O804   O     0.35059   0.13872   0.88206   0.00000  Uiso   1.00
Cl805  Cl    0.37159   0.07032   0.97431   0.00000  Uiso   1.00
Cl806  Cl    0.62852   0.26289   0.52557   0.00000  Uiso   1.00
Cl807  Cl    0.53731   0.04605   0.82029   0.00000  Uiso   1.00
Cl808  Cl    0.46269   0.28729   0.67971   0.00000  Uiso   1.00
N809   N     0.63961   0.09976   0.70689   0.00000  Uiso   1.00
O810   O     0.65001   0.06162   0.71445   0.00000  Uiso   1.00
O811   O     0.62842   0.10668   0.67132   0.00000  Uiso   1.00
N812   N     0.36040   0.23358   0.79310   0.00000  Uiso   1.00
O813   O     0.34999   0.27171   0.78555   0.00000  Uiso   1.00
O814   O     0.37159   0.22666   0.82867   0.00000  Uiso   1.00
O815   O     0.79512   0.22775   0.75000   0.00000  Uiso   1.00
O816   O     0.87154   0.10558   0.74999   0.00000  Uiso   1.00
O817   O     0.87157   0.22774   0.75000   0.00000  Uiso   1.00
O818   O     0.79510   0.10559   0.75000   0.00000  Uiso   1.00
C819   C     0.83346   0.24656   0.74916   0.00000  Uiso   1.00
C820   C     0.83320   0.08677   0.75084   0.00000  Uiso   1.00
O821   O     0.77328   0.16667   0.81612   0.00000  Uiso   1.00
O822   O     0.89339   0.16666   0.68387   0.00000  Uiso   1.00
O823   O     0.84972   0.16666   0.81612   0.00000  Uiso   1.00
O824   O     0.81695   0.16667   0.68388   0.00000  Uiso   1.00
C825   C     0.80215   0.16674   0.83819   0.00000  Uiso   1.00
C826   C     0.86452   0.16660   0.66181   0.00000  Uiso   1.00
Zn827  Zn    0.78229   0.16667   0.75000   0.00000  Uiso   1.00
Zn828  Zn    0.88438   0.16666   0.75000   0.00000  Uiso   1.00
C829   C     0.78190   0.16208   0.88917   0.00000  Uiso   1.00
C830   C     0.88478   0.17123   0.61082   0.00000  Uiso   1.00
C831   C     0.74583   0.11187   0.95042   0.00000  Uiso   1.00
C832   C     0.92089   0.22139   0.54953   0.00000  Uiso   1.00
C833   C     0.74708   0.13093   0.90984   0.00000  Uiso   1.00
C834   C     0.91962   0.20236   0.59013   0.00000  Uiso   1.00
C835   C     0.80748   0.18051   0.91393   0.00000  Uiso   1.00
C836   C     0.85920   0.15279   0.58607   0.00000  Uiso   1.00
C837   C     0.80382   0.16320   0.95680   0.00000  Uiso   1.00
C838   C     0.86285   0.17009   0.54320   0.00000  Uiso   1.00
C839   C     0.77783   0.12534   0.97092   0.00000  Uiso   1.00
C840   C     0.88886   0.20794   0.52906   0.00000  Uiso   1.00
C841   C     0.82917   0.17957   0.98359   0.00000  Uiso   1.00
C842   C     0.83750   0.15372   0.51642   0.00000  Uiso   1.00
C843   C     0.82099   0.11224   0.52067   0.00000  Uiso   1.00
C844   C     0.84567   0.22104   0.97935   0.00000  Uiso   1.00
C845   C     0.78792   0.09977   0.50207   0.00000  Uiso   1.00
C846   C     0.87875   0.23351   0.99792   0.00000  Uiso   1.00
H847   H     0.77334   0.06858   0.50954   0.00000  Uiso   1.00
H848   H     0.89334   0.26469   0.99045   0.00000  Uiso   1.00
H849   H     0.83303   0.08881   0.53852   0.00000  Uiso   1.00
H850   H     0.83362   0.24448   0.96151   0.00000  Uiso   1.00
C851   C     0.85130   0.31133   0.77842   0.00000  Uiso   1.00
C852   C     0.81536   0.02200   0.72159   0.00000  Uiso   1.00
H853   H     0.86473   0.29404   0.80070   0.00000  Uiso   1.00
H854   H     0.80194   0.03930   0.69930   0.00000  Uiso   1.00
C855   C     0.85117   0.02095   0.77997   0.00000  Uiso   1.00
C856   C     0.81550   0.31238   0.72003   0.00000  Uiso   1.00
C857   C     0.83339   0.04264   0.75105   0.00000  Uiso   1.00
C858   C     0.83327   0.29069   0.74895   0.00000  Uiso   1.00
C859   C     0.98543   0.13403   0.72978   0.00000  Uiso   1.00
C860   C     0.68124   0.19930   0.77022   0.00000  Uiso   1.00
C861   C     0.69966   0.13411   0.73037   0.00000  Uiso   1.00
C862   C     0.96700   0.19922   0.76963   0.00000  Uiso   1.00
H863   H     0.72521   0.10832   0.71431   0.00000  Uiso   1.00
H864   H     0.94146   0.22502   0.78569   0.00000  Uiso   1.00
N865   N     0.71426   0.16668   0.75001   0.00000  Uiso   1.00
N866   N     0.95241   0.16666   0.74999   0.00000  Uiso   1.00
N867   N     0.82305   0.12197   0.60930   0.00000  Uiso   1.00
O868   O     0.77658   0.13006   0.62012   0.00000  Uiso   1.00
O869   O     0.83587   0.08834   0.62498   0.00000  Uiso   1.00
N870   N     0.84362   0.21133   0.89071   0.00000  Uiso   1.00
O871   O     0.83081   0.24497   0.87503   0.00000  Uiso   1.00
O872   O     0.89009   0.20324   0.87989   0.00000  Uiso   1.00
N873   N     0.94910   0.21834   0.61335   0.00000  Uiso   1.00
O874   O     0.94248   0.25663   0.62985   0.00000  Uiso   1.00
O875   O     0.98274   0.19455   0.61795   0.00000  Uiso   1.00
N876   N     0.71762   0.11495   0.88660   0.00000  Uiso   1.00
O877   O     0.72433   0.07670   0.86999   0.00000  Uiso   1.00
O878   O     0.68392   0.13872   0.88206   0.00000  Uiso   1.00
Cl879  Cl    0.70493   0.07032   0.97431   0.00000  Uiso   1.00
Cl880  Cl    0.96186   0.26289   0.52557   0.00000  Uiso   1.00
Cl881  Cl    0.87064   0.04605   0.82029   0.00000  Uiso   1.00
Cl882  Cl    0.79602   0.28729   0.67971   0.00000  Uiso   1.00
N883   N     0.97294   0.09976   0.70689   0.00000  Uiso   1.00
O884   O     0.98334   0.06162   0.71445   0.00000  Uiso   1.00
O885   O     0.96175   0.10668   0.67132   0.00000  Uiso   1.00
N886   N     0.69373   0.23358   0.79310   0.00000  Uiso   1.00
O887   O     0.68332   0.27171   0.78555   0.00000  Uiso   1.00
O888   O     0.70492   0.22666   0.82867   0.00000  Uiso   1.00
O889   O     0.12846   0.56108   0.75000   0.00000  Uiso   1.00
O890   O     0.20488   0.43892   0.74999   0.00000  Uiso   1.00
O891   O     0.20490   0.56107   0.75000   0.00000  Uiso   1.00
O892   O     0.12843   0.43893   0.75000   0.00000  Uiso   1.00
C893   C     0.16680   0.57989   0.74916   0.00000  Uiso   1.00
C894   C     0.16654   0.42011   0.75084   0.00000  Uiso   1.00
O895   O     0.10661   0.50001   0.81612   0.00000  Uiso   1.00
O896   O     0.22672   0.49999   0.68387   0.00000  Uiso   1.00
O897   O     0.18305   0.50000   0.81612   0.00000  Uiso   1.00
O898   O     0.15028   0.50000   0.68388   0.00000  Uiso   1.00
C899   C     0.13549   0.50007   0.83819   0.00000  Uiso   1.00
C900   C     0.19785   0.49993   0.66181   0.00000  Uiso   1.00
Zn901  Zn    0.11562   0.50001   0.75000   0.00000  Uiso   1.00
Zn902  Zn    0.21771   0.49999   0.75000   0.00000  Uiso   1.00
C903   C     0.11523   0.49541   0.88917   0.00000  Uiso   1.00
C904   C     0.21811   0.50456   0.61082   0.00000  Uiso   1.00
C905   C     0.07916   0.44520   0.95042   0.00000  Uiso   1.00
C906   C     0.25423   0.55472   0.54953   0.00000  Uiso   1.00
C907   C     0.08042   0.46426   0.90984   0.00000  Uiso   1.00
C908   C     0.25296   0.53569   0.59013   0.00000  Uiso   1.00
C909   C     0.14081   0.51385   0.91393   0.00000  Uiso   1.00
C910   C     0.19253   0.48612   0.58607   0.00000  Uiso   1.00
C911   C     0.13716   0.49654   0.95680   0.00000  Uiso   1.00
C912   C     0.19618   0.50342   0.54320   0.00000  Uiso   1.00
C913   C     0.11116   0.45867   0.97092   0.00000  Uiso   1.00
C914   C     0.22220   0.54127   0.52906   0.00000  Uiso   1.00
C915   C     0.16250   0.51290   0.98359   0.00000  Uiso   1.00
C916   C     0.17083   0.48705   0.51642   0.00000  Uiso   1.00
C917   C     0.15432   0.44558   0.52067   0.00000  Uiso   1.00
C918   C     0.17900   0.55438   0.97935   0.00000  Uiso   1.00
C919   C     0.12126   0.43310   0.50207   0.00000  Uiso   1.00
C920   C     0.21209   0.56684   0.99792   0.00000  Uiso   1.00
H921   H     0.10668   0.40192   0.50954   0.00000  Uiso   1.00
H922   H     0.22667   0.59803   0.99045   0.00000  Uiso   1.00
H923   H     0.16636   0.42214   0.53852   0.00000  Uiso   1.00
H924   H     0.16695   0.57781   0.96151   0.00000  Uiso   1.00
C925   C     0.18464   0.64467   0.77842   0.00000  Uiso   1.00
C926   C     0.14869   0.35533   0.72159   0.00000  Uiso   1.00
H927   H     0.19806   0.62737   0.80070   0.00000  Uiso   1.00
H928   H     0.13527   0.37263   0.69930   0.00000  Uiso   1.00
C929   C     0.18450   0.35428   0.77997   0.00000  Uiso   1.00
C930   C     0.14883   0.64572   0.72003   0.00000  Uiso   1.00
C931   C     0.16673   0.37598   0.75105   0.00000  Uiso   1.00
C932   C     0.16661   0.62402   0.74895   0.00000  Uiso   1.00
C933   C     0.31876   0.46737   0.72978   0.00000  Uiso   1.00
C934   C     0.01457   0.53263   0.77022   0.00000  Uiso   1.00
C935   C     0.03300   0.46745   0.73037   0.00000  Uiso   1.00
C936   C     0.30034   0.53255   0.76963   0.00000  Uiso   1.00
H937   H     0.05854   0.44165   0.71431   0.00000  Uiso   1.00
H938   H     0.27479   0.55835   0.78569   0.00000  Uiso   1.00
N939   N     0.04759   0.50001   0.75001   0.00000  Uiso   1.00
N940   N     0.28574   0.49999   0.74999   0.00000  Uiso   1.00
N941   N     0.15639   0.45531   0.60930   0.00000  Uiso   1.00
O942   O     0.10992   0.46339   0.62012   0.00000  Uiso   1.00
O943   O     0.16920   0.42167   0.62498   0.00000  Uiso   1.00
N944   N     0.17696   0.54466   0.89071   0.00000  Uiso   1.00
O945   O     0.16415   0.57830   0.87503   0.00000  Uiso   1.00
O946   O     0.22343   0.53657   0.87989   0.00000  Uiso   1.00
N947   N     0.28244   0.55167   0.61335   0.00000  Uiso   1.00
O948   O     0.27582   0.58996   0.62985   0.00000  Uiso   1.00
O949   O     0.31607   0.52789   0.61795   0.00000  Uiso   1.00
N950   N     0.05095   0.44829   0.88660   0.00000  Uiso   1.00
O951   O     0.05767   0.41003   0.86999   0.00000  Uiso   1.00
O952   O     0.01726   0.47205   0.88206   0.00000  Uiso   1.00
Cl953  Cl    0.03826   0.40365   0.97431   0.00000  Uiso   1.00
Cl954  Cl    0.29519   0.59622   0.52557   0.00000  Uiso   1.00
Cl955  Cl    0.20398   0.37938   0.82029   0.00000  Uiso   1.00
Cl956  Cl    0.12935   0.62062   0.67971   0.00000  Uiso   1.00
N957   N     0.30627   0.43309   0.70689   0.00000  Uiso   1.00
O958   O     0.31668   0.39496   0.71445   0.00000  Uiso   1.00
O959   O     0.29509   0.44001   0.67132   0.00000  Uiso   1.00
N960   N     0.02706   0.56691   0.79310   0.00000  Uiso   1.00
O961   O     0.01665   0.60504   0.78555   0.00000  Uiso   1.00
O962   O     0.03826   0.55999   0.82867   0.00000  Uiso   1.00
O963   O     0.46179   0.56108   0.75000   0.00000  Uiso   1.00
O964   O     0.53821   0.43892   0.74999   0.00000  Uiso   1.00
O965   O     0.53823   0.56107   0.75000   0.00000  Uiso   1.00
O966   O     0.46177   0.43893   0.75000   0.00000  Uiso   1.00
C967   C     0.50013   0.57989   0.74916   0.00000  Uiso   1.00
C968   C     0.49987   0.42011   0.75084   0.00000  Uiso   1.00
O969   O     0.43994   0.50001   0.81612   0.00000  Uiso   1.00
O970   O     0.56006   0.49999   0.68387   0.00000  Uiso   1.00
O971   O     0.51639   0.50000   0.81612   0.00000  Uiso   1.00
O972   O     0.48361   0.50000   0.68388   0.00000  Uiso   1.00
C973   C     0.46882   0.50007   0.83819   0.00000  Uiso   1.00
C974   C     0.53118   0.49993   0.66181   0.00000  Uiso   1.00
Zn975  Zn    0.44896   0.50001   0.75000   0.00000  Uiso   1.00
Zn976  Zn    0.55104   0.49999   0.75000   0.00000  Uiso   1.00
C977   C     0.44857   0.49541   0.88917   0.00000  Uiso   1.00
C978   C     0.55144   0.50456   0.61082   0.00000  Uiso   1.00
C979   C     0.41249   0.44520   0.95042   0.00000  Uiso   1.00
C980   C     0.58756   0.55472   0.54953   0.00000  Uiso   1.00
C981   C     0.41375   0.46426   0.90984   0.00000  Uiso   1.00
C982   C     0.58629   0.53569   0.59013   0.00000  Uiso   1.00
C983   C     0.47414   0.51385   0.91393   0.00000  Uiso   1.00
C984   C     0.52587   0.48612   0.58607   0.00000  Uiso   1.00
C985   C     0.47049   0.49654   0.95680   0.00000  Uiso   1.00
C986   C     0.52952   0.50342   0.54320   0.00000  Uiso   1.00
C987   C     0.44450   0.45867   0.97092   0.00000  Uiso   1.00
C988   C     0.55553   0.54127   0.52906   0.00000  Uiso   1.00
C989   C     0.49583   0.51290   0.98359   0.00000  Uiso   1.00
C990   C     0.50416   0.48705   0.51642   0.00000  Uiso   1.00
C991   C     0.48765   0.44558   0.52067   0.00000  Uiso   1.00
C992   C     0.51234   0.55438   0.97935   0.00000  Uiso   1.00
C993   C     0.45459   0.43310   0.50207   0.00000  Uiso   1.00
C994   C     0.54542   0.56684   0.99792   0.00000  Uiso   1.00
H995   H     0.44001   0.40192   0.50954   0.00000  Uiso   1.00
H996   H     0.56001   0.59803   0.99045   0.00000  Uiso   1.00
H997   H     0.49969   0.42214   0.53852   0.00000  Uiso   1.00
H998   H     0.50029   0.57781   0.96151   0.00000  Uiso   1.00
C999   C     0.51797   0.64467   0.77842   0.00000  Uiso   1.00
C1000  C     0.48203   0.35533   0.72159   0.00000  Uiso   1.00
H1001  H     0.53139   0.62737   0.80070   0.00000  Uiso   1.00
H1002  H     0.46860   0.37263   0.69930   0.00000  Uiso   1.00
C1003  C     0.51783   0.35428   0.77997   0.00000  Uiso   1.00
C1004  C     0.48217   0.64572   0.72003   0.00000  Uiso   1.00
C1005  C     0.50006   0.37598   0.75105   0.00000  Uiso   1.00
C1006  C     0.49994   0.62402   0.74895   0.00000  Uiso   1.00
C1007  C     0.65210   0.46737   0.72978   0.00000  Uiso   1.00
C1008  C     0.34790   0.53263   0.77022   0.00000  Uiso   1.00
C1009  C     0.36633   0.46745   0.73037   0.00000  Uiso   1.00
C1010  C     0.63367   0.53255   0.76963   0.00000  Uiso   1.00
H1011  H     0.39187   0.44165   0.71431   0.00000  Uiso   1.00
H1012  H     0.60812   0.55835   0.78569   0.00000  Uiso   1.00
N1013  N     0.38093   0.50001   0.75001   0.00000  Uiso   1.00
N1014  N     0.61907   0.49999   0.74999   0.00000  Uiso   1.00
N1015  N     0.48972   0.45531   0.60930   0.00000  Uiso   1.00
O1016  O     0.44325   0.46339   0.62012   0.00000  Uiso   1.00
O1017  O     0.50254   0.42167   0.62498   0.00000  Uiso   1.00
N1018  N     0.51029   0.54466   0.89071   0.00000  Uiso   1.00
O1019  O     0.49748   0.57830   0.87503   0.00000  Uiso   1.00
O1020  O     0.55676   0.53657   0.87989   0.00000  Uiso   1.00
N1021  N     0.61577   0.55167   0.61335   0.00000  Uiso   1.00
O1022  O     0.60915   0.58996   0.62985   0.00000  Uiso   1.00
O1023  O     0.64941   0.52789   0.61795   0.00000  Uiso   1.00
N1024  N     0.38428   0.44829   0.88660   0.00000  Uiso   1.00
O1025  O     0.39100   0.41003   0.86999   0.00000  Uiso   1.00
O1026  O     0.35059   0.47205   0.88206   0.00000  Uiso   1.00
Cl1027 Cl    0.37159   0.40365   0.97431   0.00000  Uiso   1.00
Cl1028 Cl    0.62852   0.59622   0.52557   0.00000  Uiso   1.00
Cl1029 Cl    0.53731   0.37938   0.82029   0.00000  Uiso   1.00
Cl1030 Cl    0.46269   0.62062   0.67971   0.00000  Uiso   1.00
N1031  N     0.63961   0.43309   0.70689   0.00000  Uiso   1.00
O1032  O     0.65001   0.39496   0.71445   0.00000  Uiso   1.00
O1033  O     0.62842   0.44001   0.67132   0.00000  Uiso   1.00
N1034  N     0.36040   0.56691   0.79310   0.00000  Uiso   1.00
O1035  O     0.34999   0.60504   0.78555   0.00000  Uiso   1.00
O1036  O     0.37159   0.55999   0.82867   0.00000  Uiso   1.00
O1037  O     0.79512   0.56108   0.75000   0.00000  Uiso   1.00
O1038  O     0.87154   0.43892   0.74999   0.00000  Uiso   1.00
O1039  O     0.87157   0.56107   0.75000   0.00000  Uiso   1.00
O1040  O     0.79510   0.43893   0.75000   0.00000  Uiso   1.00
C1041  C     0.83346   0.57989   0.74916   0.00000  Uiso   1.00
C1042  C     0.83320   0.42011   0.75084   0.00000  Uiso   1.00
O1043  O     0.77328   0.50001   0.81612   0.00000  Uiso   1.00
O1044  O     0.89339   0.49999   0.68387   0.00000  Uiso   1.00
O1045  O     0.84972   0.50000   0.81612   0.00000  Uiso   1.00
O1046  O     0.81695   0.50000   0.68388   0.00000  Uiso   1.00
C1047  C     0.80215   0.50007   0.83819   0.00000  Uiso   1.00
C1048  C     0.86452   0.49993   0.66181   0.00000  Uiso   1.00
Zn1049 Zn    0.78229   0.50001   0.75000   0.00000  Uiso   1.00
Zn1050 Zn    0.88438   0.49999   0.75000   0.00000  Uiso   1.00
C1051  C     0.78190   0.49541   0.88917   0.00000  Uiso   1.00
C1052  C     0.88478   0.50456   0.61082   0.00000  Uiso   1.00
C1053  C     0.74583   0.44520   0.95042   0.00000  Uiso   1.00
C1054  C     0.92089   0.55472   0.54953   0.00000  Uiso   1.00
C1055  C     0.74708   0.46426   0.90984   0.00000  Uiso   1.00
C1056  C     0.91962   0.53569   0.59013   0.00000  Uiso   1.00
C1057  C     0.80748   0.51385   0.91393   0.00000  Uiso   1.00
C1058  C     0.85920   0.48612   0.58607   0.00000  Uiso   1.00
C1059  C     0.80382   0.49654   0.95680   0.00000  Uiso   1.00
C1060  C     0.86285   0.50342   0.54320   0.00000  Uiso   1.00
C1061  C     0.77783   0.45867   0.97092   0.00000  Uiso   1.00
C1062  C     0.88886   0.54127   0.52906   0.00000  Uiso   1.00
C1063  C     0.82917   0.51290   0.98359   0.00000  Uiso   1.00
C1064  C     0.83750   0.48705   0.51642   0.00000  Uiso   1.00
C1065  C     0.82099   0.44558   0.52067   0.00000  Uiso   1.00
C1066  C     0.84567   0.55438   0.97935   0.00000  Uiso   1.00
C1067  C     0.78792   0.43310   0.50207   0.00000  Uiso   1.00
C1068  C     0.87875   0.56684   0.99792   0.00000  Uiso   1.00
H1069  H     0.77334   0.40192   0.50954   0.00000  Uiso   1.00
H1070  H     0.89334   0.59803   0.99045   0.00000  Uiso   1.00
H1071  H     0.83303   0.42214   0.53852   0.00000  Uiso   1.00
H1072  H     0.83362   0.57781   0.96151   0.00000  Uiso   1.00
C1073  C     0.85130   0.64467   0.77842   0.00000  Uiso   1.00
C1074  C     0.81536   0.35533   0.72159   0.00000  Uiso   1.00
H1075  H     0.86473   0.62737   0.80070   0.00000  Uiso   1.00
H1076  H     0.80194   0.37263   0.69930   0.00000  Uiso   1.00
C1077  C     0.85117   0.35428   0.77997   0.00000  Uiso   1.00
C1078  C     0.81550   0.64572   0.72003   0.00000  Uiso   1.00
C1079  C     0.83339   0.37598   0.75105   0.00000  Uiso   1.00
C1080  C     0.83327   0.62402   0.74895   0.00000  Uiso   1.00
C1081  C     0.98543   0.46737   0.72978   0.00000  Uiso   1.00
C1082  C     0.68124   0.53263   0.77022   0.00000  Uiso   1.00
C1083  C     0.69966   0.46745   0.73037   0.00000  Uiso   1.00
C1084  C     0.96700   0.53255   0.76963   0.00000  Uiso   1.00
H1085  H     0.72521   0.44165   0.71431   0.00000  Uiso   1.00
H1086  H     0.94146   0.55835   0.78569   0.00000  Uiso   1.00
N1087  N     0.71426   0.50001   0.75001   0.00000  Uiso   1.00
N1088  N     0.95241   0.49999   0.74999   0.00000  Uiso   1.00
N1089  N     0.82305   0.45531   0.60930   0.00000  Uiso   1.00
O1090  O     0.77658   0.46339   0.62012   0.00000  Uiso   1.00
O1091  O     0.83587   0.42167   0.62498   0.00000  Uiso   1.00
N1092  N     0.84362   0.54466   0.89071   0.00000  Uiso   1.00
O1093  O     0.83081   0.57830   0.87503   0.00000  Uiso   1.00
O1094  O     0.89009   0.53657   0.87989   0.00000  Uiso   1.00
N1095  N     0.94910   0.55167   0.61335   0.00000  Uiso   1.00
O1096  O     0.94248   0.58996   0.62985   0.00000  Uiso   1.00
O1097  O     0.98274   0.52789   0.61795   0.00000  Uiso   1.00
N1098  N     0.71762   0.44829   0.88660   0.00000  Uiso   1.00
O1099  O     0.72433   0.41003   0.86999   0.00000  Uiso   1.00
O1100  O     0.68392   0.47205   0.88206   0.00000  Uiso   1.00
Cl1101 Cl    0.70493   0.40365   0.97431   0.00000  Uiso   1.00
Cl1102 Cl    0.96186   0.59622   0.52557   0.00000  Uiso   1.00
Cl1103 Cl    0.87064   0.37938   0.82029   0.00000  Uiso   1.00
Cl1104 Cl    0.79602   0.62062   0.67971   0.00000  Uiso   1.00
N1105  N     0.97294   0.43309   0.70689   0.00000  Uiso   1.00
O1106  O     0.98334   0.39496   0.71445   0.00000  Uiso   1.00
O1107  O     0.96175   0.44001   0.67132   0.00000  Uiso   1.00
N1108  N     0.69373   0.56691   0.79310   0.00000  Uiso   1.00
O1109  O     0.68332   0.60504   0.78555   0.00000  Uiso   1.00
O1110  O     0.70492   0.55999   0.82867   0.00000  Uiso   1.00
O1111  O     0.12846   0.89442   0.75000   0.00000  Uiso   1.00
O1112  O     0.20488   0.77225   0.74999   0.00000  Uiso   1.00
O1113  O     0.20490   0.89441   0.75000   0.00000  Uiso   1.00
O1114  O     0.12843   0.77226   0.75000   0.00000  Uiso   1.00
C1115  C     0.16680   0.91323   0.74916   0.00000  Uiso   1.00
C1116  C     0.16654   0.75344   0.75084   0.00000  Uiso   1.00
O1117  O     0.10661   0.83334   0.81612   0.00000  Uiso   1.00
O1118  O     0.22672   0.83333   0.68387   0.00000  Uiso   1.00
O1119  O     0.18305   0.83333   0.81612   0.00000  Uiso   1.00
O1120  O     0.15028   0.83334   0.68388   0.00000  Uiso   1.00
C1121  C     0.13549   0.83340   0.83819   0.00000  Uiso   1.00
C1122  C     0.19785   0.83326   0.66181   0.00000  Uiso   1.00
Zn1123 Zn    0.11562   0.83334   0.75000   0.00000  Uiso   1.00
Zn1124 Zn    0.21771   0.83333   0.75000   0.00000  Uiso   1.00
C1125  C     0.11523   0.82875   0.88917   0.00000  Uiso   1.00
C1126  C     0.21811   0.83790   0.61082   0.00000  Uiso   1.00
C1127  C     0.07916   0.77854   0.95042   0.00000  Uiso   1.00
C1128  C     0.25423   0.88806   0.54953   0.00000  Uiso   1.00
C1129  C     0.08042   0.79760   0.90984   0.00000  Uiso   1.00
C1130  C     0.25296   0.86902   0.59013   0.00000  Uiso   1.00
C1131  C     0.14081   0.84718   0.91393   0.00000  Uiso   1.00
C1132  C     0.19253   0.81945   0.58607   0.00000  Uiso   1.00
C1133  C     0.13716   0.82987   0.95680   0.00000  Uiso   1.00
C1134  C     0.19618   0.83675   0.54320   0.00000  Uiso   1.00
C1135  C     0.11116   0.79200   0.97092   0.00000  Uiso   1.00
C1136  C     0.22220   0.87460   0.52906   0.00000  Uiso   1.00
C1137  C     0.16250   0.84623   0.98359   0.00000  Uiso   1.00
C1138  C     0.17083   0.82039   0.51642   0.00000  Uiso   1.00
C1139  C     0.15432   0.77891   0.52067   0.00000  Uiso   1.00
C1140  C     0.17900   0.88771   0.97935   0.00000  Uiso   1.00
C1141  C     0.12126   0.76644   0.50207   0.00000  Uiso   1.00
C1142  C     0.21209   0.90018   0.99792   0.00000  Uiso   1.00
H1143  H     0.10668   0.73525   0.50954   0.00000  Uiso   1.00
H1144  H     0.22667   0.93136   0.99045   0.00000  Uiso   1.00
H1145  H     0.16636   0.75548   0.53852   0.00000  Uiso   1.00
H1146  H     0.16695   0.91115   0.96151   0.00000  Uiso   1.00
C1147  C     0.18464   0.97800   0.77842   0.00000  Uiso   1.00
C1148  C     0.14869   0.68867   0.72159   0.00000  Uiso   1.00
H1149  H     0.19806   0.96070   0.80070   0.00000  Uiso   1.00
H1150  H     0.13527   0.70596   0.69930   0.00000  Uiso   1.00
C1151  C     0.18450   0.68762   0.77997   0.00000  Uiso   1.00
C1152  C     0.14883   0.97905   0.72003   0.00000  Uiso   1.00
C1153  C     0.16673   0.70931   0.75105   0.00000  Uiso   1.00
C1154  C     0.16661   0.95736   0.74895   0.00000  Uiso   1.00
C1155  C     0.31876   0.80070   0.72978   0.00000  Uiso   1.00
C1156  C     0.01457   0.86597   0.77022   0.00000  Uiso   1.00
C1157  C     0.03300   0.80078   0.73037   0.00000  Uiso   1.00
C1158  C     0.30034   0.86589   0.76963   0.00000  Uiso   1.00
H1159  H     0.05854   0.77498   0.71431   0.00000  Uiso   1.00
H1160  H     0.27479   0.89168   0.78569   0.00000  Uiso   1.00
N1161  N     0.04759   0.83334   0.75001   0.00000  Uiso   1.00
N1162  N     0.28574   0.83332   0.74999   0.00000  Uiso   1.00
N1163  N     0.15639   0.78864   0.60930   0.00000  Uiso   1.00
O1164  O     0.10992   0.79672   0.62012   0.00000  Uiso   1.00
O1165  O     0.16920   0.75501   0.62498   0.00000  Uiso   1.00
N1166  N     0.17696   0.87800   0.89071   0.00000  Uiso   1.00
O1167  O     0.16415   0.91163   0.87503   0.00000  Uiso   1.00
O1168  O     0.22343   0.86990   0.87989   0.00000  Uiso   1.00
N1169  N     0.28244   0.88500   0.61335   0.00000  Uiso   1.00
O1170  O     0.27582   0.92330   0.62985   0.00000  Uiso   1.00
O1171  O     0.31607   0.86122   0.61795   0.00000  Uiso   1.00
N1172  N     0.05095   0.78162   0.88660   0.00000  Uiso   1.00
O1173  O     0.05767   0.74337   0.86999   0.00000  Uiso   1.00
O1174  O     0.01726   0.80538   0.88206   0.00000  Uiso   1.00
Cl1175 Cl    0.03826   0.73698   0.97431   0.00000  Uiso   1.00
Cl1176 Cl    0.29519   0.92956   0.52557   0.00000  Uiso   1.00
Cl1177 Cl    0.20398   0.71272   0.82029   0.00000  Uiso   1.00
Cl1178 Cl    0.12935   0.95395   0.67971   0.00000  Uiso   1.00
N1179  N     0.30627   0.76643   0.70689   0.00000  Uiso   1.00
O1180  O     0.31668   0.72829   0.71445   0.00000  Uiso   1.00
O1181  O     0.29509   0.77335   0.67132   0.00000  Uiso   1.00
N1182  N     0.02706   0.90024   0.79310   0.00000  Uiso   1.00
O1183  O     0.01665   0.93838   0.78555   0.00000  Uiso   1.00
O1184  O     0.03826   0.89332   0.82867   0.00000  Uiso   1.00
O1185  O     0.46179   0.89442   0.75000   0.00000  Uiso   1.00
O1186  O     0.53821   0.77225   0.74999   0.00000  Uiso   1.00
O1187  O     0.53823   0.89441   0.75000   0.00000  Uiso   1.00
O1188  O     0.46177   0.77226   0.75000   0.00000  Uiso   1.00
C1189  C     0.50013   0.91323   0.74916   0.00000  Uiso   1.00
C1190  C     0.49987   0.75344   0.75084   0.00000  Uiso   1.00
O1191  O     0.43994   0.83334   0.81612   0.00000  Uiso   1.00
O1192  O     0.56006   0.83333   0.68387   0.00000  Uiso   1.00
O1193  O     0.51639   0.83333   0.81612   0.00000  Uiso   1.00
O1194  O     0.48361   0.83334   0.68388   0.00000  Uiso   1.00
C1195  C     0.46882   0.83340   0.83819   0.00000  Uiso   1.00
C1196  C     0.53118   0.83326   0.66181   0.00000  Uiso   1.00
Zn1197 Zn    0.44896   0.83334   0.75000   0.00000  Uiso   1.00
Zn1198 Zn    0.55104   0.83333   0.75000   0.00000  Uiso   1.00
C1199  C     0.44857   0.82875   0.88917   0.00000  Uiso   1.00
C1200  C     0.55144   0.83790   0.61082   0.00000  Uiso   1.00
C1201  C     0.41249   0.77854   0.95042   0.00000  Uiso   1.00
C1202  C     0.58756   0.88806   0.54953   0.00000  Uiso   1.00
C1203  C     0.41375   0.79760   0.90984   0.00000  Uiso   1.00
C1204  C     0.58629   0.86902   0.59013   0.00000  Uiso   1.00
C1205  C     0.47414   0.84718   0.91393   0.00000  Uiso   1.00
C1206  C     0.52587   0.81945   0.58607   0.00000  Uiso   1.00
C1207  C     0.47049   0.82987   0.95680   0.00000  Uiso   1.00
C1208  C     0.52952   0.83675   0.54320   0.00000  Uiso   1.00
C1209  C     0.44450   0.79200   0.97092   0.00000  Uiso   1.00
C1210  C     0.55553   0.87460   0.52906   0.00000  Uiso   1.00
C1211  C     0.49583   0.84623   0.98359   0.00000  Uiso   1.00
C1212  C     0.50416   0.82039   0.51642   0.00000  Uiso   1.00
C1213  C     0.48765   0.77891   0.52067   0.00000  Uiso   1.00
C1214  C     0.51234   0.88771   0.97935   0.00000  Uiso   1.00
C1215  C     0.45459   0.76644   0.50207   0.00000  Uiso   1.00
C1216  C     0.54542   0.90018   0.99792   0.00000  Uiso   1.00
H1217  H     0.44001   0.73525   0.50954   0.00000  Uiso   1.00
H1218  H     0.56001   0.93136   0.99045   0.00000  Uiso   1.00
H1219  H     0.49969   0.75548   0.53852   0.00000  Uiso   1.00
H1220  H     0.50029   0.91115   0.96151   0.00000  Uiso   1.00
C1221  C     0.51797   0.97800   0.77842   0.00000  Uiso   1.00
C1222  C     0.48203   0.68867   0.72159   0.00000  Uiso   1.00
H1223  H     0.53139   0.96070   0.80070   0.00000  Uiso   1.00
H1224  H     0.46860   0.70596   0.69930   0.00000  Uiso   1.00
C1225  C     0.51783   0.68762   0.77997   0.00000  Uiso   1.00
C1226  C     0.48217   0.97905   0.72003   0.00000  Uiso   1.00
C1227  C     0.50006   0.70931   0.75105   0.00000  Uiso   1.00
C1228  C     0.49994   0.95736   0.74895   0.00000  Uiso   1.00
C1229  C     0.65210   0.80070   0.72978   0.00000  Uiso   1.00
C1230  C     0.34790   0.86597   0.77022   0.00000  Uiso   1.00
C1231  C     0.36633   0.80078   0.73037   0.00000  Uiso   1.00
C1232  C     0.63367   0.86589   0.76963   0.00000  Uiso   1.00
H1233  H     0.39187   0.77498   0.71431   0.00000  Uiso   1.00
H1234  H     0.60812   0.89168   0.78569   0.00000  Uiso   1.00
N1235  N     0.38093   0.83334   0.75001   0.00000  Uiso   1.00
N1236  N     0.61907   0.83332   0.74999   0.00000  Uiso   1.00
N1237  N     0.48972   0.78864   0.60930   0.00000  Uiso   1.00
O1238  O     0.44325   0.79672   0.62012   0.00000  Uiso   1.00
O1239  O     0.50254   0.75501   0.62498   0.00000  Uiso   1.00
N1240  N     0.51029   0.87800   0.89071   0.00000  Uiso   1.00
O1241  O     0.49748   0.91163   0.87503   0.00000  Uiso   1.00
O1242  O     0.55676   0.86990   0.87989   0.00000  Uiso   1.00
N1243  N     0.61577   0.88500   0.61335   0.00000  Uiso   1.00
O1244  O     0.60915   0.92330   0.62985   0.00000  Uiso   1.00
O1245  O     0.64941   0.86122   0.61795   0.00000  Uiso   1.00
N1246  N     0.38428   0.78162   0.88660   0.00000  Uiso   1.00
O1247  O     0.39100   0.74337   0.86999   0.00000  Uiso   1.00
O1248  O     0.35059   0.80538   0.88206   0.00000  Uiso   1.00
Cl1249 Cl    0.37159   0.73698   0.97431   0.00000  Uiso   1.00
Cl1250 Cl    0.62852   0.92956   0.52557   0.00000  Uiso   1.00
Cl1251 Cl    0.53731   0.71272   0.82029   0.00000  Uiso   1.00
Cl1252 Cl    0.46269   0.95395   0.67971   0.00000  Uiso   1.00
N1253  N     0.63961   0.76643   0.70689   0.00000  Uiso   1.00
O1254  O     0.65001   0.72829   0.71445   0.00000  Uiso   1.00
O1255  O     0.62842   0.77335   0.67132   0.00000  Uiso   1.00
N1256  N     0.36040   0.90024   0.79310   0.00000  Uiso   1.00
O1257  O     0.34999   0.93838   0.78555   0.00000  Uiso   1.00
O1258  O     0.37159   0.89332   0.82867   0.00000  Uiso   1.00
O1259  O     0.79512   0.89442   0.75000   0.00000  Uiso   1.00
O1260  O     0.87154   0.77225   0.74999   0.00000  Uiso   1.00
O1261  O     0.87157   0.89441   0.75000   0.00000  Uiso   1.00
O1262  O     0.79510   0.77226   0.75000   0.00000  Uiso   1.00
C1263  C     0.83346   0.91323   0.74916   0.00000  Uiso   1.00
C1264  C     0.83320   0.75344   0.75084   0.00000  Uiso   1.00
O1265  O     0.77328   0.83334   0.81612   0.00000  Uiso   1.00
O1266  O     0.89339   0.83333   0.68387   0.00000  Uiso   1.00
O1267  O     0.84972   0.83333   0.81612   0.00000  Uiso   1.00
O1268  O     0.81695   0.83334   0.68388   0.00000  Uiso   1.00
C1269  C     0.80215   0.83340   0.83819   0.00000  Uiso   1.00
C1270  C     0.86452   0.83326   0.66181   0.00000  Uiso   1.00
Zn1271 Zn    0.78229   0.83334   0.75000   0.00000  Uiso   1.00
Zn1272 Zn    0.88438   0.83333   0.75000   0.00000  Uiso   1.00
C1273  C     0.78190   0.82875   0.88917   0.00000  Uiso   1.00
C1274  C     0.88478   0.83790   0.61082   0.00000  Uiso   1.00
C1275  C     0.74583   0.77854   0.95042   0.00000  Uiso   1.00
C1276  C     0.92089   0.88806   0.54953   0.00000  Uiso   1.00
C1277  C     0.74708   0.79760   0.90984   0.00000  Uiso   1.00
C1278  C     0.91962   0.86902   0.59013   0.00000  Uiso   1.00
C1279  C     0.80748   0.84718   0.91393   0.00000  Uiso   1.00
C1280  C     0.85920   0.81945   0.58607   0.00000  Uiso   1.00
C1281  C     0.80382   0.82987   0.95680   0.00000  Uiso   1.00
C1282  C     0.86285   0.83675   0.54320   0.00000  Uiso   1.00
C1283  C     0.77783   0.79200   0.97092   0.00000  Uiso   1.00
C1284  C     0.88886   0.87460   0.52906   0.00000  Uiso   1.00
C1285  C     0.82917   0.84623   0.98359   0.00000  Uiso   1.00
C1286  C     0.83750   0.82039   0.51642   0.00000  Uiso   1.00
C1287  C     0.82099   0.77891   0.52067   0.00000  Uiso   1.00
C1288  C     0.84567   0.88771   0.97935   0.00000  Uiso   1.00
C1289  C     0.78792   0.76644   0.50207   0.00000  Uiso   1.00
C1290  C     0.87875   0.90018   0.99792   0.00000  Uiso   1.00
H1291  H     0.77334   0.73525   0.50954   0.00000  Uiso   1.00
H1292  H     0.89334   0.93136   0.99045   0.00000  Uiso   1.00
H1293  H     0.83303   0.75548   0.53852   0.00000  Uiso   1.00
H1294  H     0.83362   0.91115   0.96151   0.00000  Uiso   1.00
C1295  C     0.85130   0.97800   0.77842   0.00000  Uiso   1.00
C1296  C     0.81536   0.68867   0.72159   0.00000  Uiso   1.00
H1297  H     0.86473   0.96070   0.80070   0.00000  Uiso   1.00
H1298  H     0.80194   0.70596   0.69930   0.00000  Uiso   1.00
C1299  C     0.85117   0.68762   0.77997   0.00000  Uiso   1.00
C1300  C     0.81550   0.97905   0.72003   0.00000  Uiso   1.00
C1301  C     0.83339   0.70931   0.75105   0.00000  Uiso   1.00
C1302  C     0.83327   0.95736   0.74895   0.00000  Uiso   1.00
C1303  C     0.98543   0.80070   0.72978   0.00000  Uiso   1.00
C1304  C     0.68124   0.86597   0.77022   0.00000  Uiso   1.00
C1305  C     0.69966   0.80078   0.73037   0.00000  Uiso   1.00
C1306  C     0.96700   0.86589   0.76963   0.00000  Uiso   1.00
H1307  H     0.72521   0.77498   0.71431   0.00000  Uiso   1.00
H1308  H     0.94146   0.89168   0.78569   0.00000  Uiso   1.00
N1309  N     0.71426   0.83334   0.75001   0.00000  Uiso   1.00
N1310  N     0.95241   0.83332   0.74999   0.00000  Uiso   1.00
N1311  N     0.82305   0.78864   0.60930   0.00000  Uiso   1.00
O1312  O     0.77658   0.79672   0.62012   0.00000  Uiso   1.00
O1313  O     0.83587   0.75501   0.62498   0.00000  Uiso   1.00
N1314  N     0.84362   0.87800   0.89071   0.00000  Uiso   1.00
O1315  O     0.83081   0.91163   0.87503   0.00000  Uiso   1.00
O1316  O     0.89009   0.86990   0.87989   0.00000  Uiso   1.00
N1317  N     0.94910   0.88500   0.61335   0.00000  Uiso   1.00
O1318  O     0.94248   0.92330   0.62985   0.00000  Uiso   1.00
O1319  O     0.98274   0.86122   0.61795   0.00000  Uiso   1.00
N1320  N     0.71762   0.78162   0.88660   0.00000  Uiso   1.00
O1321  O     0.72433   0.74337   0.86999   0.00000  Uiso   1.00
O1322  O     0.68392   0.80538   0.88206   0.00000  Uiso   1.00
Cl1323 Cl    0.70493   0.73698   0.97431   0.00000  Uiso   1.00
Cl1324 Cl    0.96186   0.92956   0.52557   0.00000  Uiso   1.00
Cl1325 Cl    0.87064   0.71272   0.82029   0.00000  Uiso   1.00
Cl1326 Cl    0.79602   0.95395   0.67971   0.00000  Uiso   1.00
N1327  N     0.97294   0.76643   0.70689   0.00000  Uiso   1.00
O1328  O     0.98334   0.72829   0.71445   0.00000  Uiso   1.00
O1329  O     0.96175   0.77335   0.67132   0.00000  Uiso   1.00
N1330  N     0.69373   0.90024   0.79310   0.00000  Uiso   1.00
O1331  O     0.68332   0.93838   0.78555   0.00000  Uiso   1.00
O1332  O     0.70492   0.89332   0.82867   0.00000  Uiso   1.00
loop_
_geom_bond_atom_site_label_1
_geom_bond_atom_site_label_2
_geom_bond_distance
_geom_bond_site_symmetry_2
_ccdc_geom_bond_type
O1     C5      1.284   .     A
O1     Zn13    1.993   .     S
O2     C6      1.284   .     A
O2     Zn14    1.993   .     S
O3     C5      1.283   .     A
O3     Zn14    1.983   .     S
O4     C6      1.283   .     A
O4     Zn13    1.983   .     S
C5     C44     1.410   .     S
C6     C43     1.410   .     S
O7     C11     1.296   .     A
O7     Zn13    1.968   .     S
O8     C12     1.296   .     A
O8     Zn14    1.968   .     S
O9     Zn14    1.898   .     S
O9     C11     1.298   .     A
O10    C12     1.298   .     A
O10    Zn13    1.898   .     S
C11    C15     1.466   .     S
C12    C16     1.466   .     S
Zn13   N51     2.018   .     S
Zn14   N52     2.018   .     S
C15    C19     1.409   .     A
C15    C21     1.409   .     A
C16    C20     1.409   .     A
C16    C22     1.409   .     A
C17    Cl65    1.771   .     S
C17    C25     1.408   .     A
C17    C19     1.399   .     A
C18    C26     1.408   .     A
C18    C20     1.399   .     A
C18    Cl66    1.771   .     S
C19    N62     1.434   .     S
C20    N59     1.434   .     S
C21    N56     1.438   .     S
C21    C23     1.418   .     A
C22    N53     1.438   .     S
C22    C24     1.418   .     A
C23    C27     1.427   .     A
C23    C25     1.421   .     A
C24    C26     1.421   .     A
C24    C28     1.427   .     A
C25    C697    1.397   .     S
C26    C698    1.397   1_554 S
C27    C30     1.408   .     A
C27    C694    1.419   .     S
C28    C29     1.408   .     A
C28    C693    1.419   1_554 S
C29    H35     1.078   .     S
C29    C31     1.384   .     A
C30    C32     1.384   .     A
C30    H36     1.078   .     S
C31    H33     1.082   .     S
C31    C691    1.397   1_554 S
C32    H34     1.082   .     S
C32    C692    1.397   .     S
C37    C44     1.396   .     A
C37    H39     1.084   .     S
C37    C263    1.372   .     S
C38    C43     1.396   .     A
C38    H40     1.084   .     S
C38    C486    1.372   1_545 S
C41    C43     1.400   .     A
C41    Cl67    1.766   .     S
C41    C481    1.372   1_545 S
C42    Cl68    1.766   .     S
C42    C44     1.400   .     A
C42    C260    1.372   .     S
C45    N69     1.429   .     S
C45    N52     1.379   .     A
C45    C121    1.418   .     S
C46    N72     1.429   .     S
C46    N51     1.379   .     A
C46    C196    1.418   1_455 S
C47    H49     1.082   .     S
C47    N51     1.360   .     A
C47    C193    1.418   1_455 S
C48    H50     1.082   .     S
C48    N52     1.360   .     A
C48    C120    1.418   .     S
N53    O54     1.302   .     A
N53    O55     1.301   .     A
N56    O58     1.302   .     A
N56    O57     1.301   .     A
N59    O60     1.301   .     A
N59    O61     1.301   .     A
N62    O63     1.301   .     A
N62    O64     1.301   .     A
N69    O70     1.301   .     A
N69    O71     1.299   .     A
N72    O74     1.299   .     A
N72    O73     1.301   .     A
O75    C79     1.284   .     A
O75    Zn87    1.993   .     S
O76    C80     1.284   .     A
O76    Zn88    1.993   .     S
O77    C79     1.283   .     A
O77    Zn88    1.983   .     S
O78    C80     1.283   .     A
O78    Zn87    1.983   .     S
C79    C118    1.410   .     S
C80    C117    1.410   .     S
O81    C85     1.296   .     A
O81    Zn87    1.968   .     S
O82    C86     1.296   .     A
O82    Zn88    1.968   .     S
O83    Zn88    1.898   .     S
O83    C85     1.298   .     A
O84    C86     1.298   .     A
O84    Zn87    1.898   .     S
C85    C89     1.466   .     S
C86    C90     1.466   .     S
Zn87   N125    2.018   .     S
Zn88   N126    2.018   .     S
C89    C93     1.409   .     A
C89    C95     1.409   .     A
C90    C94     1.409   .     A
C90    C96     1.409   .     A
C91    Cl139   1.771   .     S
C91    C99     1.408   .     A
C91    C93     1.399   .     A
C92    C100    1.408   .     A
C92    C94     1.399   .     A
C92    Cl140   1.771   .     S
C93    N136    1.434   .     S
C94    N133    1.434   .     S
C95    N130    1.438   .     S
C95    C97     1.418   .     A
C96    N127    1.438   .     S
C96    C98     1.418   .     A
C97    C101    1.427   .     A
C97    C99     1.421   .     A
C98    C100    1.421   .     A
C98    C102    1.427   .     A
C99    C771    1.397   .     S
C100   C772    1.397   1_554 S
C101   C104    1.408   .     A
C101   C768    1.419   .     S
C102   C103    1.408   .     A
C102   C767    1.419   1_554 S
C103   H109    1.078   .     S
C103   C105    1.384   .     A
C104   C106    1.384   .     A
C104   H110    1.078   .     S
C105   H107    1.082   .     S
C105   C765    1.397   1_554 S
C106   H108    1.082   .     S
C106   C766    1.397   .     S
C111   C118    1.396   .     A
C111   H113    1.084   .     S
C111   C337    1.372   .     S
C112   C117    1.396   .     A
C112   H114    1.084   .     S
C112   C560    1.372   1_545 S
C115   C117    1.400   .     A
C115   Cl141   1.766   .     S
C115   C555    1.372   1_545 S
C116   Cl142   1.766   .     S
C116   C118    1.400   .     A
C116   C334    1.372   .     S
C119   N143    1.429   .     S
C119   N126    1.379   .     A
C119   C195    1.418   .     S
C120   N146    1.429   .     S
C120   N125    1.379   .     A
C121   H123    1.082   .     S
C121   N125    1.360   .     A
C122   H124    1.082   .     S
C122   N126    1.360   .     A
C122   C194    1.418   .     S
N127   O128    1.302   .     A
N127   O129    1.301   .     A
N130   O132    1.302   .     A
N130   O131    1.301   .     A
N133   O134    1.301   .     A
N133   O135    1.301   .     A
N136   O137    1.301   .     A
N136   O138    1.301   .     A
N143   O144    1.301   .     A
N143   O145    1.299   .     A
N146   O148    1.299   .     A
N146   O147    1.301   .     A
O149   C153    1.284   .     A
O149   Zn161   1.993   .     S
O150   C154    1.284   .     A
O150   Zn162   1.993   .     S
O151   C153    1.283   .     A
O151   Zn162   1.983   .     S
O152   C154    1.283   .     A
O152   Zn161   1.983   .     S
C153   C192    1.410   .     S
C154   C191    1.410   .     S
O155   C159    1.296   .     A
O155   Zn161   1.968   .     S
O156   C160    1.296   .     A
O156   Zn162   1.968   .     S
O157   Zn162   1.898   .     S
O157   C159    1.298   .     A
O158   C160    1.298   .     A
O158   Zn161   1.898   .     S
C159   C163    1.466   .     S
C160   C164    1.466   .     S
Zn161  N199    2.018   .     S
Zn162  N200    2.018   .     S
C163   C167    1.409   .     A
C163   C169    1.409   .     A
C164   C168    1.409   .     A
C164   C170    1.409   .     A
C165   Cl213   1.771   .     S
C165   C173    1.408   .     A
C165   C167    1.399   .     A
C166   C174    1.408   .     A
C166   C168    1.399   .     A
C166   Cl214   1.771   .     S
C167   N210    1.434   .     S
C168   N207    1.434   .     S
C169   N204    1.438   .     S
C169   C171    1.418   .     A
C170   N201    1.438   .     S
C170   C172    1.418   .     A
C171   C175    1.427   .     A
C171   C173    1.421   .     A
C172   C174    1.421   .     A
C172   C176    1.427   .     A
C173   C845    1.397   .     S
C174   C846    1.397   1_554 S
C175   C178    1.408   .     A
C175   C842    1.419   .     S
C176   C177    1.408   .     A
C176   C841    1.419   1_554 S
C177   H183    1.078   .     S
C177   C179    1.384   .     A
C178   C180    1.384   .     A
C178   H184    1.078   .     S
C179   H181    1.082   .     S
C179   C839    1.397   1_554 S
C180   H182    1.082   .     S
C180   C840    1.397   .     S
C185   C192    1.396   .     A
C185   H187    1.084   .     S
C185   C411    1.372   .     S
C186   C191    1.396   .     A
C186   H188    1.084   .     S
C186   C634    1.372   1_545 S
C189   C191    1.400   .     A
C189   Cl215   1.766   .     S
C189   C629    1.372   1_545 S
C190   Cl216   1.766   .     S
C190   C192    1.400   .     A
C190   C408    1.372   .     S
C193   N217    1.429   .     S
C193   N200    1.379   .     A
C193   C47     1.418   1_655 S
C194   N220    1.429   .     S
C194   N199    1.379   .     A
C195   H197    1.082   .     S
C195   N199    1.360   .     A
C196   H198    1.082   .     S
C196   N200    1.360   .     A
C196   C46     1.418   1_655 S
N201   O202    1.302   .     A
N201   O203    1.301   .     A
N204   O206    1.302   .     A
N204   O205    1.301   .     A
N207   O208    1.301   .     A
N207   O209    1.301   .     A
N210   O211    1.301   .     A
N210   O212    1.301   .     A
N217   O218    1.301   .     A
N217   O219    1.299   .     A
N220   O222    1.299   .     A
N220   O221    1.301   .     A
O223   C227    1.284   .     A
O223   Zn235   1.993   .     S
O224   C228    1.284   .     A
O224   Zn236   1.993   .     S
O225   C227    1.283   .     A
O225   Zn236   1.983   .     S
O226   C228    1.283   .     A
O226   Zn235   1.983   .     S
C227   C266    1.410   .     S
C228   C265    1.410   .     S
O229   C233    1.296   .     A
O229   Zn235   1.968   .     S
O230   C234    1.296   .     A
O230   Zn236   1.968   .     S
O231   Zn236   1.898   .     S
O231   C233    1.298   .     A
O232   C234    1.298   .     A
O232   Zn235   1.898   .     S
C233   C237    1.466   .     S
C234   C238    1.466   .     S
Zn235  N273    2.018   .     S
Zn236  N274    2.018   .     S
C237   C241    1.409   .     A
C237   C243    1.409   .     A
C238   C242    1.409   .     A
C238   C244    1.409   .     A
C239   Cl287   1.771   .     S
C239   C247    1.408   .     A
C239   C241    1.399   .     A
C240   C248    1.408   .     A
C240   C242    1.399   .     A
C240   Cl288   1.771   .     S
C241   N284    1.434   .     S
C242   N281    1.434   .     S
C243   N278    1.438   .     S
C243   C245    1.418   .     A
C244   N275    1.438   .     S
C244   C246    1.418   .     A
C245   C249    1.427   .     A
C245   C247    1.421   .     A
C246   C248    1.421   .     A
C246   C250    1.427   .     A
C247   C919    1.397   .     S
C248   C920    1.397   1_554 S
C249   C252    1.408   .     A
C249   C916    1.419   .     S
C250   C251    1.408   .     A
C250   C915    1.419   1_554 S
C251   H257    1.078   .     S
C251   C253    1.384   .     A
C252   C254    1.384   .     A
C252   H258    1.078   .     S
C253   H255    1.082   .     S
C253   C913    1.397   1_554 S
C254   H256    1.082   .     S
C254   C914    1.397   .     S
C259   C266    1.396   .     A
C259   H261    1.084   .     S
C259   C485    1.372   .     S
C260   C265    1.396   .     A
C260   H262    1.084   .     S
C263   C265    1.400   .     A
C263   Cl289   1.766   .     S
C264   Cl290   1.766   .     S
C264   C266    1.400   .     A
C264   C482    1.372   .     S
C267   N291    1.429   .     S
C267   N274    1.379   .     A
C267   C343    1.418   .     S
C268   N294    1.429   .     S
C268   N273    1.379   .     A
C268   C418    1.418   1_455 S
C269   H271    1.082   .     S
C269   N273    1.360   .     A
C269   C415    1.418   1_455 S
C270   H272    1.082   .     S
C270   N274    1.360   .     A
C270   C342    1.418   .     S
N275   O276    1.302   .     A
N275   O277    1.301   .     A
N278   O280    1.302   .     A
N278   O279    1.301   .     A
N281   O282    1.301   .     A
N281   O283    1.301   .     A
N284   O285    1.301   .     A
N284   O286    1.301   .     A
N291   O292    1.301   .     A
N291   O293    1.299   .     A
N294   O296    1.299   .     A
N294   O295    1.301   .     A
O297   C301    1.284   .     A
O297   Zn309   1.993   .     S
O298   C302    1.284   .     A
O298   Zn310   1.993   .     S
O299   C301    1.283   .     A
O299   Zn310   1.983   .     S
O300   C302    1.283   .     A
O300   Zn309   1.983   .     S
C301   C340    1.410   .     S
C302   C339    1.410   .     S
O303   C307    1.296   .     A
O303   Zn309   1.968   .     S
O304   C308    1.296   .     A
O304   Zn310   1.968   .     S
O305   Zn310   1.898   .     S
O305   C307    1.298   .     A
O306   C308    1.298   .     A
O306   Zn309   1.898   .     S
C307   C311    1.466   .     S
C308   C312    1.466   .     S
Zn309  N347    2.018   .     S
Zn310  N348    2.018   .     S
C311   C315    1.409   .     A
C311   C317    1.409   .     A
C312   C316    1.409   .     A
C312   C318    1.409   .     A
C313   Cl361   1.771   .     S
C313   C321    1.408   .     A
C313   C315    1.399   .     A
C314   C322    1.408   .     A
C314   C316    1.399   .     A
C314   Cl362   1.771   .     S
C315   N358    1.434   .     S
C316   N355    1.434   .     S
C317   N352    1.438   .     S
C317   C319    1.418   .     A
C318   N349    1.438   .     S
C318   C320    1.418   .     A
C319   C323    1.427   .     A
C319   C321    1.421   .     A
C320   C322    1.421   .     A
C320   C324    1.427   .     A
C321   C993    1.397   .     S
C322   C994    1.397   1_554 S
C323   C326    1.408   .     A
C323   C990    1.419   .     S
C324   C325    1.408   .     A
C324   C989    1.419   1_554 S
C325   H331    1.078   .     S
C325   C327    1.384   .     A
C326   C328    1.384   .     A
C326   H332    1.078   .     S
C327   H329    1.082   .     S
C327   C987    1.397   1_554 S
C328   H330    1.082   .     S
C328   C988    1.397   .     S
C333   C340    1.396   .     A
C333   H335    1.084   .     S
C333   C559    1.372   .     S
C334   C339    1.396   .     A
C334   H336    1.084   .     S
C337   C339    1.400   .     A
C337   Cl363   1.766   .     S
C338   Cl364   1.766   .     S
C338   C340    1.400   .     A
C338   C556    1.372   .     S
C341   N365    1.429   .     S
C341   N348    1.379   .     A
C341   C417    1.418   .     S
C342   N368    1.429   .     S
C342   N347    1.379   .     A
C343   H345    1.082   .     S
C343   N347    1.360   .     A
C344   H346    1.082   .     S
C344   N348    1.360   .     A
C344   C416    1.418   .     S
N349   O350    1.302   .     A
N349   O351    1.301   .     A
N352   O354    1.302   .     A
N352   O353    1.301   .     A
N355   O356    1.301   .     A
N355   O357    1.301   .     A
N358   O359    1.301   .     A
N358   O360    1.301   .     A
N365   O366    1.301   .     A
N365   O367    1.299   .     A
N368   O370    1.299   .     A
N368   O369    1.301   .     A
O371   C375    1.284   .     A
O371   Zn383   1.993   .     S
O372   C376    1.284   .     A
O372   Zn384   1.993   .     S
O373   C375    1.283   .     A
O373   Zn384   1.983   .     S
O374   C376    1.283   .     A
O374   Zn383   1.983   .     S
C375   C414    1.410   .     S
C376   C413    1.410   .     S
O377   C381    1.296   .     A
O377   Zn383   1.968   .     S
O378   C382    1.296   .     A
O378   Zn384   1.968   .     S
O379   Zn384   1.898   .     S
O379   C381    1.298   .     A
O380   C382    1.298   .     A
O380   Zn383   1.898   .     S
C381   C385    1.466   .     S
C382   C386    1.466   .     S
Zn383  N421    2.018   .     S
Zn384  N422    2.018   .     S
C385   C389    1.409   .     A
C385   C391    1.409   .     A
C386   C390    1.409   .     A
C386   C392    1.409   .     A
C387   Cl435   1.771   .     S
C387   C395    1.408   .     A
C387   C389    1.399   .     A
C388   C396    1.408   .     A
C388   C390    1.399   .     A
C388   Cl436   1.771   .     S
C389   N432    1.434   .     S
C390   N429    1.434   .     S
C391   N426    1.438   .     S
C391   C393    1.418   .     A
C392   N423    1.438   .     S
C392   C394    1.418   .     A
C393   C397    1.427   .     A
C393   C395    1.421   .     A
C394   C396    1.421   .     A
C394   C398    1.427   .     A
C395   C1067   1.397   .     S
C396   C1068   1.397   1_554 S
C397   C400    1.408   .     A
C397   C1064   1.419   .     S
C398   C399    1.408   .     A
C398   C1063   1.419   1_554 S
C399   H405    1.078   .     S
C399   C401    1.384   .     A
C400   C402    1.384   .     A
C400   H406    1.078   .     S
C401   H403    1.082   .     S
C401   C1061   1.397   1_554 S
C402   H404    1.082   .     S
C402   C1062   1.397   .     S
C407   C414    1.396   .     A
C407   H409    1.084   .     S
C407   C633    1.372   .     S
C408   C413    1.396   .     A
C408   H410    1.084   .     S
C411   C413    1.400   .     A
C411   Cl437   1.766   .     S
C412   Cl438   1.766   .     S
C412   C414    1.400   .     A
C412   C630    1.372   .     S
C415   N439    1.429   .     S
C415   N422    1.379   .     A
C415   C269    1.418   1_655 S
C416   N442    1.429   .     S
C416   N421    1.379   .     A
C417   H419    1.082   .     S
C417   N421    1.360   .     A
C418   H420    1.082   .     S
C418   N422    1.360   .     A
C418   C268    1.418   1_655 S
N423   O424    1.302   .     A
N423   O425    1.301   .     A
N426   O428    1.302   .     A
N426   O427    1.301   .     A
N429   O430    1.301   .     A
N429   O431    1.301   .     A
N432   O433    1.301   .     A
N432   O434    1.301   .     A
N439   O440    1.301   .     A
N439   O441    1.299   .     A
N442   O444    1.299   .     A
N442   O443    1.301   .     A
O445   C449    1.284   .     A
O445   Zn457   1.993   .     S
O446   C450    1.284   .     A
O446   Zn458   1.993   .     S
O447   C449    1.283   .     A
O447   Zn458   1.983   .     S
O448   C450    1.283   .     A
O448   Zn457   1.983   .     S
C449   C488    1.410   .     S
C450   C487    1.410   .     S
O451   C455    1.296   .     A
O451   Zn457   1.968   .     S
O452   C456    1.296   .     A
O452   Zn458   1.968   .     S
O453   Zn458   1.898   .     S
O453   C455    1.298   .     A
O454   C456    1.298   .     A
O454   Zn457   1.898   .     S
C455   C459    1.466   .     S
C456   C460    1.466   .     S
Zn457  N495    2.018   .     S
Zn458  N496    2.018   .     S
C459   C463    1.409   .     A
C459   C465    1.409   .     A
C460   C464    1.409   .     A
C460   C466    1.409   .     A
C461   Cl509   1.771   .     S
C461   C469    1.408   .     A
C461   C463    1.399   .     A
C462   C470    1.408   .     A
C462   C464    1.399   .     A
C462   Cl510   1.771   .     S
C463   N506    1.434   .     S
C464   N503    1.434   .     S
C465   N500    1.438   .     S
C465   C467    1.418   .     A
C466   N497    1.438   .     S
C466   C468    1.418   .     A
C467   C471    1.427   .     A
C467   C469    1.421   .     A
C468   C470    1.421   .     A
C468   C472    1.427   .     A
C469   C1141   1.397   .     S
C470   C1142   1.397   1_554 S
C471   C474    1.408   .     A
C471   C1138   1.419   .     S
C472   C473    1.408   .     A
C472   C1137   1.419   1_554 S
C473   H479    1.078   .     S
C473   C475    1.384   .     A
C474   C476    1.384   .     A
C474   H480    1.078   .     S
C475   H477    1.082   .     S
C475   C1135   1.397   1_554 S
C476   H478    1.082   .     S
C476   C1136   1.397   .     S
C481   C488    1.396   .     A
C481   H483    1.084   .     S
C481   C41     1.372   1_565 S
C482   C487    1.396   .     A
C482   H484    1.084   .     S
C485   C487    1.400   .     A
C485   Cl511   1.766   .     S
C486   Cl512   1.766   .     S
C486   C488    1.400   .     A
C486   C38     1.372   1_565 S
C489   N513    1.429   .     S
C489   N496    1.379   .     A
C489   C565    1.418   .     S
C490   N516    1.429   .     S
C490   N495    1.379   .     A
C490   C640    1.418   1_455 S
C491   H493    1.082   .     S
C491   N495    1.360   .     A
C491   C637    1.418   1_455 S
C492   H494    1.082   .     S
C492   N496    1.360   .     A
C492   C564    1.418   .     S
N497   O498    1.302   .     A
N497   O499    1.301   .     A
N500   O502    1.302   .     A
N500   O501    1.301   .     A
N503   O504    1.301   .     A
N503   O505    1.301   .     A
N506   O507    1.301   .     A
N506   O508    1.301   .     A
N513   O514    1.301   .     A
N513   O515    1.299   .     A
N516   O518    1.299   .     A
N516   O517    1.301   .     A
O519   C523    1.284   .     A
O519   Zn531   1.993   .     S
O520   C524    1.284   .     A
O520   Zn532   1.993   .     S
O521   C523    1.283   .     A
O521   Zn532   1.983   .     S
O522   C524    1.283   .     A
O522   Zn531   1.983   .     S
C523   C562    1.410   .     S
C524   C561    1.410   .     S
O525   C529    1.296   .     A
O525   Zn531   1.968   .     S
O526   C530    1.296   .     A
O526   Zn532   1.968   .     S
O527   Zn532   1.898   .     S
O527   C529    1.298   .     A
O528   C530    1.298   .     A
O528   Zn531   1.898   .     S
C529   C533    1.466   .     S
C530   C534    1.466   .     S
Zn531  N569    2.018   .     S
Zn532  N570    2.018   .     S
C533   C537    1.409   .     A
C533   C539    1.409   .     A
C534   C538    1.409   .     A
C534   C540    1.409   .     A
C535   Cl583   1.771   .     S
C535   C543    1.408   .     A
C535   C537    1.399   .     A
C536   C544    1.408   .     A
C536   C538    1.399   .     A
C536   Cl584   1.771   .     S
C537   N580    1.434   .     S
C538   N577    1.434   .     S
C539   N574    1.438   .     S
C539   C541    1.418   .     A
C540   N571    1.438   .     S
C540   C542    1.418   .     A
C541   C545    1.427   .     A
C541   C543    1.421   .     A
C542   C544    1.421   .     A
C542   C546    1.427   .     A
C543   C1215   1.397   .     S
C544   C1216   1.397   1_554 S
C545   C548    1.408   .     A
C545   C1212   1.419   .     S
C546   C547    1.408   .     A
C546   C1211   1.419   1_554 S
C547   H553    1.078   .     S
C547   C549    1.384   .     A
C548   C550    1.384   .     A
C548   H554    1.078   .     S
C549   H551    1.082   .     S
C549   C1209   1.397   1_554 S
C550   H552    1.082   .     S
C550   C1210   1.397   .     S
C555   C562    1.396   .     A
C555   H557    1.084   .     S
C555   C115    1.372   1_565 S
C556   C561    1.396   .     A
C556   H558    1.084   .     S
C559   C561    1.400   .     A
C559   Cl585   1.766   .     S
C560   Cl586   1.766   .     S
C560   C562    1.400   .     A
C560   C112    1.372   1_565 S
C563   N587    1.429   .     S
C563   N570    1.379   .     A
C563   C639    1.418   .     S
C564   N590    1.429   .     S
C564   N569    1.379   .     A
C565   H567    1.082   .     S
C565   N569    1.360   .     A
C566   H568    1.082   .     S
C566   N570    1.360   .     A
C566   C638    1.418   .     S
N571   O572    1.302   .     A
N571   O573    1.301   .     A
N574   O576    1.302   .     A
N574   O575    1.301   .     A
N577   O578    1.301   .     A
N577   O579    1.301   .     A
N580   O581    1.301   .     A
N580   O582    1.301   .     A
N587   O588    1.301   .     A
N587   O589    1.299   .     A
N590   O592    1.299   .     A
N590   O591    1.301   .     A
O593   C597    1.284   .     A
O593   Zn605   1.993   .     S
O594   C598    1.284   .     A
O594   Zn606   1.993   .     S
O595   C597    1.283   .     A
O595   Zn606   1.983   .     S
O596   C598    1.283   .     A
O596   Zn605   1.983   .     S
C597   C636    1.410   .     S
C598   C635    1.410   .     S
O599   C603    1.296   .     A
O599   Zn605   1.968   .     S
O600   C604    1.296   .     A
O600   Zn606   1.968   .     S
O601   Zn606   1.898   .     S
O601   C603    1.298   .     A
O602   C604    1.298   .     A
O602   Zn605   1.898   .     S
C603   C607    1.466   .     S
C604   C608    1.466   .     S
Zn605  N643    2.018   .     S
Zn606  N644    2.018   .     S
C607   C611    1.409   .     A
C607   C613    1.409   .     A
C608   C612    1.409   .     A
C608   C614    1.409   .     A
C609   Cl657   1.771   .     S
C609   C617    1.408   .     A
C609   C611    1.399   .     A
C610   C618    1.408   .     A
C610   C612    1.399   .     A
C610   Cl658   1.771   .     S
C611   N654    1.434   .     S
C612   N651    1.434   .     S
C613   N648    1.438   .     S
C613   C615    1.418   .     A
C614   N645    1.438   .     S
C614   C616    1.418   .     A
C615   C619    1.427   .     A
C615   C617    1.421   .     A
C616   C618    1.421   .     A
C616   C620    1.427   .     A
C617   C1289   1.397   .     S
C618   C1290   1.397   1_554 S
C619   C622    1.408   .     A
C619   C1286   1.419   .     S
C620   C621    1.408   .     A
C620   C1285   1.419   1_554 S
C621   H627    1.078   .     S
C621   C623    1.384   .     A
C622   C624    1.384   .     A
C622   H628    1.078   .     S
C623   H625    1.082   .     S
C623   C1283   1.397   1_554 S
C624   H626    1.082   .     S
C624   C1284   1.397   .     S
C629   C636    1.396   .     A
C629   H631    1.084   .     S
C629   C189    1.372   1_565 S
C630   C635    1.396   .     A
C630   H632    1.084   .     S
C633   C635    1.400   .     A
C633   Cl659   1.766   .     S
C634   Cl660   1.766   .     S
C634   C636    1.400   .     A
C634   C186    1.372   1_565 S
C637   N661    1.429   .     S
C637   N644    1.379   .     A
C637   C491    1.418   1_655 S
C638   N664    1.429   .     S
C638   N643    1.379   .     A
C639   H641    1.082   .     S
C639   N643    1.360   .     A
C640   H642    1.082   .     S
C640   N644    1.360   .     A
C640   C490    1.418   1_655 S
N645   O646    1.302   .     A
N645   O647    1.301   .     A
N648   O650    1.302   .     A
N648   O649    1.301   .     A
N651   O652    1.301   .     A
N651   O653    1.301   .     A
N654   O655    1.301   .     A
N654   O656    1.301   .     A
N661   O662    1.301   .     A
N661   O663    1.299   .     A
N664   O666    1.299   .     A
N664   O665    1.301   .     A
O667   C671    1.284   .     A
O667   Zn679   1.993   .     S
O668   C672    1.284   .     A
O668   Zn680   1.993   .     S
O669   C671    1.283   .     A
O669   Zn680   1.983   .     S
O670   C672    1.283   .     A
O670   Zn679   1.983   .     S
C671   C710    1.410   .     S
C672   C709    1.410   .     S
O673   C677    1.296   .     A
O673   Zn679   1.968   .     S
O674   C678    1.296   .     A
O674   Zn680   1.968   .     S
O675   Zn680   1.898   .     S
O675   C677    1.298   .     A
O676   C678    1.298   .     A
O676   Zn679   1.898   .     S
C677   C681    1.466   .     S
C678   C682    1.466   .     S
Zn679  N717    2.018   .     S
Zn680  N718    2.018   .     S
C681   C685    1.409   .     A
C681   C687    1.409   .     A
C682   C686    1.409   .     A
C682   C688    1.409   .     A
C683   Cl731   1.771   .     S
C683   C691    1.408   .     A
C683   C685    1.399   .     A
C684   C692    1.408   .     A
C684   C686    1.399   .     A
C684   Cl732   1.771   .     S
C685   N728    1.434   .     S
C686   N725    1.434   .     S
C687   N722    1.438   .     S
C687   C689    1.418   .     A
C688   N719    1.438   .     S
C688   C690    1.418   .     A
C689   C693    1.427   .     A
C689   C691    1.421   .     A
C690   C692    1.421   .     A
C690   C694    1.427   .     A
C691   C31     1.397   1_556 S
C693   C696    1.408   .     A
C693   C28     1.419   1_556 S
C694   C695    1.408   .     A
C695   H701    1.078   .     S
C695   C697    1.384   .     A
C696   C698    1.384   .     A
C696   H702    1.078   .     S
C697   H699    1.082   .     S
C698   H700    1.082   .     S
C698   C26     1.397   1_556 S
C703   C710    1.396   .     A
C703   H705    1.084   .     S
C703   C929    1.372   .     S
C704   C709    1.396   .     A
C704   H706    1.084   .     S
C704   C1152   1.372   1_545 S
C707   C709    1.400   .     A
C707   Cl733   1.766   .     S
C707   C1147   1.372   1_545 S
C708   Cl734   1.766   .     S
C708   C710    1.400   .     A
C708   C926    1.372   .     S
C711   N735    1.429   .     S
C711   N718    1.379   .     A
C711   C787    1.418   .     S
C712   N738    1.429   .     S
C712   N717    1.379   .     A
C712   C862    1.418   1_455 S
C713   H715    1.082   .     S
C713   N717    1.360   .     A
C713   C859    1.418   1_455 S
C714   H716    1.082   .     S
C714   N718    1.360   .     A
C714   C786    1.418   .     S
N719   O720    1.302   .     A
N719   O721    1.301   .     A
N722   O724    1.302   .     A
N722   O723    1.301   .     A
N725   O726    1.301   .     A
N725   O727    1.301   .     A
N728   O729    1.301   .     A
N728   O730    1.301   .     A
N735   O736    1.301   .     A
N735   O737    1.299   .     A
N738   O740    1.299   .     A
N738   O739    1.301   .     A
O741   C745    1.284   .     A
O741   Zn753   1.993   .     S
O742   C746    1.284   .     A
O742   Zn754   1.993   .     S
O743   C745    1.283   .     A
O743   Zn754   1.983   .     S
O744   C746    1.283   .     A
O744   Zn753   1.983   .     S
C745   C784    1.410   .     S
C746   C783    1.410   .     S
O747   C751    1.296   .     A
O747   Zn753   1.968   .     S
O748   C752    1.296   .     A
O748   Zn754   1.968   .     S
O749   Zn754   1.898   .     S
O749   C751    1.298   .     A
O750   C752    1.298   .     A
O750   Zn753   1.898   .     S
C751   C755    1.466   .     S
C752   C756    1.466   .     S
Zn753  N791    2.018   .     S
Zn754  N792    2.018   .     S
C755   C759    1.409   .     A
C755   C761    1.409   .     A
C756   C760    1.409   .     A
C756   C762    1.409   .     A
C757   Cl805   1.771   .     S
C757   C765    1.408   .     A
C757   C759    1.399   .     A
C758   C766    1.408   .     A
C758   C760    1.399   .     A
C758   Cl806   1.771   .     S
C759   N802    1.434   .     S
C760   N799    1.434   .     S
C761   N796    1.438   .     S
C761   C763    1.418   .     A
C762   N793    1.438   .     S
C762   C764    1.418   .     A
C763   C767    1.427   .     A
C763   C765    1.421   .     A
C764   C766    1.421   .     A
C764   C768    1.427   .     A
C765   C105    1.397   1_556 S
C767   C770    1.408   .     A
C767   C102    1.419   1_556 S
C768   C769    1.408   .     A
C769   H775    1.078   .     S
C769   C771    1.384   .     A
C770   C772    1.384   .     A
C770   H776    1.078   .     S
C771   H773    1.082   .     S
C772   H774    1.082   .     S
C772   C100    1.397   1_556 S
C777   C784    1.396   .     A
C777   H779    1.084   .     S
C777   C1003   1.372   .     S
C778   C783    1.396   .     A
C778   H780    1.084   .     S
C778   C1226   1.372   1_545 S
C781   C783    1.400   .     A
C781   Cl807   1.766   .     S
C781   C1221   1.372   1_545 S
C782   Cl808   1.766   .     S
C782   C784    1.400   .     A
C782   C1000   1.372   .     S
C785   N809    1.429   .     S
C785   N792    1.379   .     A
C785   C861    1.418   .     S
C786   N812    1.429   .     S
C786   N791    1.379   .     A
C787   H789    1.082   .     S
C787   N791    1.360   .     A
C788   H790    1.082   .     S
C788   N792    1.360   .     A
C788   C860    1.418   .     S
N793   O794    1.302   .     A
N793   O795    1.301   .     A
N796   O798    1.302   .     A
N796   O797    1.301   .     A
N799   O800    1.301   .     A
N799   O801    1.301   .     A
N802   O803    1.301   .     A
N802   O804    1.301   .     A
N809   O810    1.301   .     A
N809   O811    1.299   .     A
N812   O814    1.299   .     A
N812   O813    1.301   .     A
O815   C819    1.284   .     A
O815   Zn827   1.993   .     S
O816   C820    1.284   .     A
O816   Zn828   1.993   .     S
O817   C819    1.283   .     A
O817   Zn828   1.983   .     S
O818   C820    1.283   .     A
O818   Zn827   1.983   .     S
C819   C858    1.410   .     S
C820   C857    1.410   .     S
O821   C825    1.296   .     A
O821   Zn827   1.968   .     S
O822   C826    1.296   .     A
O822   Zn828   1.968   .     S
O823   Zn828   1.898   .     S
O823   C825    1.298   .     A
O824   C826    1.298   .     A
O824   Zn827   1.898   .     S
C825   C829    1.466   .     S
C826   C830    1.466   .     S
Zn827  N865    2.018   .     S
Zn828  N866    2.018   .     S
C829   C833    1.409   .     A
C829   C835    1.409   .     A
C830   C834    1.409   .     A
C830   C836    1.409   .     A
C831   Cl879   1.771   .     S
C831   C839    1.408   .     A
C831   C833    1.399   .     A
C832   C840    1.408   .     A
C832   C834    1.399   .     A
C832   Cl880   1.771   .     S
C833   N876    1.434   .     S
C834   N873    1.434   .     S
C835   N870    1.438   .     S
C835   C837    1.418   .     A
C836   N867    1.438   .     S
C836   C838    1.418   .     A
C837   C841    1.427   .     A
C837   C839    1.421   .     A
C838   C840    1.421   .     A
C838   C842    1.427   .     A
C839   C179    1.397   1_556 S
C841   C844    1.408   .     A
C841   C176    1.419   1_556 S
C842   C843    1.408   .     A
C843   H849    1.078   .     S
C843   C845    1.384   .     A
C844   C846    1.384   .     A
C844   H850    1.078   .     S
C845   H847    1.082   .     S
C846   H848    1.082   .     S
C846   C174    1.397   1_556 S
C851   C858    1.396   .     A
C851   H853    1.084   .     S
C851   C1077   1.372   .     S
C852   C857    1.396   .     A
C852   H854    1.084   .     S
C852   C1300   1.372   1_545 S
C855   C857    1.400   .     A
C855   Cl881   1.766   .     S
C855   C1295   1.372   1_545 S
C856   Cl882   1.766   .     S
C856   C858    1.400   .     A
C856   C1074   1.372   .     S
C859   N883    1.429   .     S
C859   N866    1.379   .     A
C859   C713    1.418   1_655 S
C860   N886    1.429   .     S
C860   N865    1.379   .     A
C861   H863    1.082   .     S
C861   N865    1.360   .     A
C862   H864    1.082   .     S
C862   N866    1.360   .     A
C862   C712    1.418   1_655 S
N867   O868    1.302   .     A
N867   O869    1.301   .     A
N870   O872    1.302   .     A
N870   O871    1.301   .     A
N873   O874    1.301   .     A
N873   O875    1.301   .     A
N876   O877    1.301   .     A
N876   O878    1.301   .     A
N883   O884    1.301   .     A
N883   O885    1.299   .     A
N886   O888    1.299   .     A
N886   O887    1.301   .     A
O889   C893    1.284   .     A
O889   Zn901   1.993   .     S
O890   C894    1.284   .     A
O890   Zn902   1.993   .     S
O891   C893    1.283   .     A
O891   Zn902   1.983   .     S
O892   C894    1.283   .     A
O892   Zn901   1.983   .     S
C893   C932    1.410   .     S
C894   C931    1.410   .     S
O895   C899    1.296   .     A
O895   Zn901   1.968   .     S
O896   C900    1.296   .     A
O896   Zn902   1.968   .     S
O897   Zn902   1.898   .     S
O897   C899    1.298   .     A
O898   C900    1.298   .     A
O898   Zn901   1.898   .     S
C899   C903    1.466   .     S
C900   C904    1.466   .     S
Zn901  N939    2.018   .     S
Zn902  N940    2.018   .     S
C903   C907    1.409   .     A
C903   C909    1.409   .     A
C904   C908    1.409   .     A
C904   C910    1.409   .     A
C905   Cl953   1.771   .     S
C905   C913    1.408   .     A
C905   C907    1.399   .     A
C906   C914    1.408   .     A
C906   C908    1.399   .     A
C906   Cl954   1.771   .     S
C907   N950    1.434   .     S
C908   N947    1.434   .     S
C909   N944    1.438   .     S
C909   C911    1.418   .     A
C910   N941    1.438   .     S
C910   C912    1.418   .     A
C911   C915    1.427   .     A
C911   C913    1.421   .     A
C912   C914    1.421   .     A
C912   C916    1.427   .     A
C913   C253    1.397   1_556 S
C915   C918    1.408   .     A
C915   C250    1.419   1_556 S
C916   C917    1.408   .     A
C917   H923    1.078   .     S
C917   C919    1.384   .     A
C918   C920    1.384   .     A
C918   H924    1.078   .     S
C919   H921    1.082   .     S
C920   H922    1.082   .     S
C920   C248    1.397   1_556 S
C925   C932    1.396   .     A
C925   H927    1.084   .     S
C925   C1151   1.372   .     S
C926   C931    1.396   .     A
C926   H928    1.084   .     S
C929   C931    1.400   .     A
C929   Cl955   1.766   .     S
C930   Cl956   1.766   .     S
C930   C932    1.400   .     A
C930   C1148   1.372   .     S
C933   N957    1.429   .     S
C933   N940    1.379   .     A
C933   C1009   1.418   .     S
C934   N960    1.429   .     S
C934   N939    1.379   .     A
C934   C1084   1.418   1_455 S
C935   H937    1.082   .     S
C935   N939    1.360   .     A
C935   C1081   1.418   1_455 S
C936   H938    1.082   .     S
C936   N940    1.360   .     A
C936   C1008   1.418   .     S
N941   O942    1.302   .     A
N941   O943    1.301   .     A
N944   O946    1.302   .     A
N944   O945    1.301   .     A
N947   O948    1.301   .     A
N947   O949    1.301   .     A
N950   O951    1.301   .     A
N950   O952    1.301   .     A
N957   O958    1.301   .     A
N957   O959    1.299   .     A
N960   O962    1.299   .     A
N960   O961    1.301   .     A
O963   C967    1.284   .     A
O963   Zn975   1.993   .     S
O964   C968    1.284   .     A
O964   Zn976   1.993   .     S
O965   C967    1.283   .     A
O965   Zn976   1.983   .     S
O966   C968    1.283   .     A
O966   Zn975   1.983   .     S
C967   C1006   1.410   .     S
C968   C1005   1.410   .     S
O969   C973    1.296   .     A
O969   Zn975   1.968   .     S
O970   C974    1.296   .     A
O970   Zn976   1.968   .     S
O971   Zn976   1.898   .     S
O971   C973    1.298   .     A
O972   C974    1.298   .     A
O972   Zn975   1.898   .     S
C973   C977    1.466   .     S
C974   C978    1.466   .     S
Zn975  N1013   2.018   .     S
Zn976  N1014   2.018   .     S
C977   C981    1.409   .     A
C977   C983    1.409   .     A
C978   C982    1.409   .     A
C978   C984    1.409   .     A
C979   Cl1027  1.771   .     S
C979   C987    1.408   .     A
C979   C981    1.399   .     A
C980   C988    1.408   .     A
C980   C982    1.399   .     A
C980   Cl1028  1.771   .     S
C981   N1024   1.434   .     S
C982   N1021   1.434   .     S
C983   N1018   1.438   .     S
C983   C985    1.418   .     A
C984   N1015   1.438   .     S
C984   C986    1.418   .     A
C985   C989    1.427   .     A
C985   C987    1.421   .     A
C986   C988    1.421   .     A
C986   C990    1.427   .     A
C987   C327    1.397   1_556 S
C989   C992    1.408   .     A
C989   C324    1.419   1_556 S
C990   C991    1.408   .     A
C991   H997    1.078   .     S
C991   C993    1.384   .     A
C992   C994    1.384   .     A
C992   H998    1.078   .     S
C993   H995    1.082   .     S
C994   H996    1.082   .     S
C994   C322    1.397   1_556 S
C999   C1006   1.396   .     A
C999   H1001   1.084   .     S
C999   C1225   1.372   .     S
C1000  C1005   1.396   .     A
C1000  H1002   1.084   .     S
C1003  C1005   1.400   .     A
C1003  Cl1029  1.766   .     S
C1004  Cl1030  1.766   .     S
C1004  C1006   1.400   .     A
C1004  C1222   1.372   .     S
C1007  N1031   1.429   .     S
C1007  N1014   1.379   .     A
C1007  C1083   1.418   .     S
C1008  N1034   1.429   .     S
C1008  N1013   1.379   .     A
C1009  H1011   1.082   .     S
C1009  N1013   1.360   .     A
C1010  H1012   1.082   .     S
C1010  N1014   1.360   .     A
C1010  C1082   1.418   .     S
N1015  O1016   1.302   .     A
N1015  O1017   1.301   .     A
N1018  O1020   1.302   .     A
N1018  O1019   1.301   .     A
N1021  O1022   1.301   .     A
N1021  O1023   1.301   .     A
N1024  O1025   1.301   .     A
N1024  O1026   1.301   .     A
N1031  O1032   1.301   .     A
N1031  O1033   1.299   .     A
N1034  O1036   1.299   .     A
N1034  O1035   1.301   .     A
O1037  C1041   1.284   .     A
O1037  Zn1049  1.993   .     S
O1038  C1042   1.284   .     A
O1038  Zn1050  1.993   .     S
O1039  C1041   1.283   .     A
O1039  Zn1050  1.983   .     S
O1040  C1042   1.283   .     A
O1040  Zn1049  1.983   .     S
C1041  C1080   1.410   .     S
C1042  C1079   1.410   .     S
O1043  C1047   1.296   .     A
O1043  Zn1049  1.968   .     S
O1044  C1048   1.296   .     A
O1044  Zn1050  1.968   .     S
O1045  Zn1050  1.898   .     S
O1045  C1047   1.298   .     A
O1046  C1048   1.298   .     A
O1046  Zn1049  1.898   .     S
C1047  C1051   1.466   .     S
C1048  C1052   1.466   .     S
Zn1049 N1087   2.018   .     S
Zn1050 N1088   2.018   .     S
C1051  C1055   1.409   .     A
C1051  C1057   1.409   .     A
C1052  C1056   1.409   .     A
C1052  C1058   1.409   .     A
C1053  Cl1101  1.771   .     S
C1053  C1061   1.408   .     A
C1053  C1055   1.399   .     A
C1054  C1062   1.408   .     A
C1054  C1056   1.399   .     A
C1054  Cl1102  1.771   .     S
C1055  N1098   1.434   .     S
C1056  N1095   1.434   .     S
C1057  N1092   1.438   .     S
C1057  C1059   1.418   .     A
C1058  N1089   1.438   .     S
C1058  C1060   1.418   .     A
C1059  C1063   1.427   .     A
C1059  C1061   1.421   .     A
C1060  C1062   1.421   .     A
C1060  C1064   1.427   .     A
C1061  C401    1.397   1_556 S
C1063  C1066   1.408   .     A
C1063  C398    1.419   1_556 S
C1064  C1065   1.408   .     A
C1065  H1071   1.078   .     S
C1065  C1067   1.384   .     A
C1066  C1068   1.384   .     A
C1066  H1072   1.078   .     S
C1067  H1069   1.082   .     S
C1068  H1070   1.082   .     S
C1068  C396    1.397   1_556 S
C1073  C1080   1.396   .     A
C1073  H1075   1.084   .     S
C1073  C1299   1.372   .     S
C1074  C1079   1.396   .     A
C1074  H1076   1.084   .     S
C1077  C1079   1.400   .     A
C1077  Cl1103  1.766   .     S
C1078  Cl1104  1.766   .     S
C1078  C1080   1.400   .     A
C1078  C1296   1.372   .     S
C1081  N1105   1.429   .     S
C1081  N1088   1.379   .     A
C1081  C935    1.418   1_655 S
C1082  N1108   1.429   .     S
C1082  N1087   1.379   .     A
C1083  H1085   1.082   .     S
C1083  N1087   1.360   .     A
C1084  H1086   1.082   .     S
C1084  N1088   1.360   .     A
C1084  C934    1.418   1_655 S
N1089  O1090   1.302   .     A
N1089  O1091   1.301   .     A
N1092  O1094   1.302   .     A
N1092  O1093   1.301   .     A
N1095  O1096   1.301   .     A
N1095  O1097   1.301   .     A
N1098  O1099   1.301   .     A
N1098  O1100   1.301   .     A
N1105  O1106   1.301   .     A
N1105  O1107   1.299   .     A
N1108  O1110   1.299   .     A
N1108  O1109   1.301   .     A
O1111  C1115   1.284   .     A
O1111  Zn1123  1.993   .     S
O1112  C1116   1.284   .     A
O1112  Zn1124  1.993   .     S
O1113  C1115   1.283   .     A
O1113  Zn1124  1.983   .     S
O1114  C1116   1.283   .     A
O1114  Zn1123  1.983   .     S
C1115  C1154   1.410   .     S
C1116  C1153   1.410   .     S
O1117  C1121   1.296   .     A
O1117  Zn1123  1.968   .     S
O1118  C1122   1.296   .     A
O1118  Zn1124  1.968   .     S
O1119  Zn1124  1.898   .     S
O1119  C1121   1.298   .     A
O1120  C1122   1.298   .     A
O1120  Zn1123  1.898   .     S
C1121  C1125   1.466   .     S
C1122  C1126   1.466   .     S
Zn1123 N1161   2.018   .     S
Zn1124 N1162   2.018   .     S
C1125  C1129   1.409   .     A
C1125  C1131   1.409   .     A
C1126  C1130   1.409   .     A
C1126  C1132   1.409   .     A
C1127  Cl1175  1.771   .     S
C1127  C1135   1.408   .     A
C1127  C1129   1.399   .     A
C1128  C1136   1.408   .     A
C1128  C1130   1.399   .     A
C1128  Cl1176  1.771   .     S
C1129  N1172   1.434   .     S
C1130  N1169   1.434   .     S
C1131  N1166   1.438   .     S
C1131  C1133   1.418   .     A
C1132  N1163   1.438   .     S
C1132  C1134   1.418   .     A
C1133  C1137   1.427   .     A
C1133  C1135   1.421   .     A
C1134  C1136   1.421   .     A
C1134  C1138   1.427   .     A
C1135  C475    1.397   1_556 S
C1137  C1140   1.408   .     A
C1137  C472    1.419   1_556 S
C1138  C1139   1.408   .     A
C1139  H1145   1.078   .     S
C1139  C1141   1.384   .     A
C1140  C1142   1.384   .     A
C1140  H1146   1.078   .     S
C1141  H1143   1.082   .     S
C1142  H1144   1.082   .     S
C1142  C470    1.397   1_556 S
C1147  C1154   1.396   .     A
C1147  H1149   1.084   .     S
C1147  C707    1.372   1_565 S
C1148  C1153   1.396   .     A
C1148  H1150   1.084   .     S
C1151  C1153   1.400   .     A
C1151  Cl1177  1.766   .     S
C1152  Cl1178  1.766   .     S
C1152  C1154   1.400   .     A
C1152  C704    1.372   1_565 S
C1155  N1179   1.429   .     S
C1155  N1162   1.379   .     A
C1155  C1231   1.418   .     S
C1156  N1182   1.429   .     S
C1156  N1161   1.379   .     A
C1156  C1306   1.418   1_455 S
C1157  H1159   1.082   .     S
C1157  N1161   1.360   .     A
C1157  C1303   1.418   1_455 S
C1158  H1160   1.082   .     S
C1158  N1162   1.360   .     A
C1158  C1230   1.418   .     S
N1163  O1164   1.302   .     A
N1163  O1165   1.301   .     A
N1166  O1168   1.302   .     A
N1166  O1167   1.301   .     A
N1169  O1170   1.301   .     A
N1169  O1171   1.301   .     A
N1172  O1173   1.301   .     A
N1172  O1174   1.301   .     A
N1179  O1180   1.301   .     A
N1179  O1181   1.299   .     A
N1182  O1184   1.299   .     A
N1182  O1183   1.301   .     A
O1185  C1189   1.284   .     A
O1185  Zn1197  1.993   .     S
O1186  C1190   1.284   .     A
O1186  Zn1198  1.993   .     S
O1187  C1189   1.283   .     A
O1187  Zn1198  1.983   .     S
O1188  C1190   1.283   .     A
O1188  Zn1197  1.983   .     S
C1189  C1228   1.410   .     S
C1190  C1227   1.410   .     S
O1191  C1195   1.296   .     A
O1191  Zn1197  1.968   .     S
O1192  C1196   1.296   .     A
O1192  Zn1198  1.968   .     S
O1193  Zn1198  1.898   .     S
O1193  C1195   1.298   .     A
O1194  C1196   1.298   .     A
O1194  Zn1197  1.898   .     S
C1195  C1199   1.466   .     S
C1196  C1200   1.466   .     S
Zn1197 N1235   2.018   .     S
Zn1198 N1236   2.018   .     S
C1199  C1203   1.409   .     A
C1199  C1205   1.409   .     A
C1200  C1204   1.409   .     A
C1200  C1206   1.409   .     A
C1201  Cl1249  1.771   .     S
C1201  C1209   1.408   .     A
C1201  C1203   1.399   .     A
C1202  C1210   1.408   .     A
C1202  C1204   1.399   .     A
C1202  Cl1250  1.771   .     S
C1203  N1246   1.434   .     S
C1204  N1243   1.434   .     S
C1205  N1240   1.438   .     S
C1205  C1207   1.418   .     A
C1206  N1237   1.438   .     S
C1206  C1208   1.418   .     A
C1207  C1211   1.427   .     A
C1207  C1209   1.421   .     A
C1208  C1210   1.421   .     A
C1208  C1212   1.427   .     A
C1209  C549    1.397   1_556 S
C1211  C1214   1.408   .     A
C1211  C546    1.419   1_556 S
C1212  C1213   1.408   .     A
C1213  H1219   1.078   .     S
C1213  C1215   1.384   .     A
C1214  C1216   1.384   .     A
C1214  H1220   1.078   .     S
C1215  H1217   1.082   .     S
C1216  H1218   1.082   .     S
C1216  C544    1.397   1_556 S
C1221  C1228   1.396   .     A
C1221  H1223   1.084   .     S
C1221  C781    1.372   1_565 S
C1222  C1227   1.396   .     A
C1222  H1224   1.084   .     S
C1225  C1227   1.400   .     A
C1225  Cl1251  1.766   .     S
C1226  Cl1252  1.766   .     S
C1226  C1228   1.400   .     A
C1226  C778    1.372   1_565 S
C1229  N1253   1.429   .     S
C1229  N1236   1.379   .     A
C1229  C1305   1.418   .     S
C1230  N1256   1.429   .     S
C1230  N1235   1.379   .     A
C1231  H1233   1.082   .     S
C1231  N1235   1.360   .     A
C1232  H1234   1.082   .     S
C1232  N1236   1.360   .     A
C1232  C1304   1.418   .     S
N1237  O1238   1.302   .     A
N1237  O1239   1.301   .     A
N1240  O1242   1.302   .     A
N1240  O1241   1.301   .     A
N1243  O1244   1.301   .     A
N1243  O1245   1.301   .     A
N1246  O1247   1.301   .     A
N1246  O1248   1.301   .     A
N1253  O1254   1.301   .     A
N1253  O1255   1.299   .     A
N1256  O1258   1.299   .     A
N1256  O1257   1.301   .     A
O1259  C1263   1.284   .     A
O1259  Zn1271  1.993   .     S
O1260  C1264   1.284   .     A
O1260  Zn1272  1.993   .     S
O1261  C1263   1.283   .     A
O1261  Zn1272  1.983   .     S
O1262  C1264   1.283   .     A
O1262  Zn1271  1.983   .     S
C1263  C1302   1.410   .     S
C1264  C1301   1.410   .     S
O1265  C1269   1.296   .     A
O1265  Zn1271  1.968   .     S
O1266  C1270   1.296   .     A
O1266  Zn1272  1.968   .     S
O1267  Zn1272  1.898   .     S
O1267  C1269   1.298   .     A
O1268  C1270   1.298   .     A
O1268  Zn1271  1.898   .     S
C1269  C1273   1.466   .     S
C1270  C1274   1.466   .     S
Zn1271 N1309   2.018   .     S
Zn1272 N1310   2.018   .     S
C1273  C1277   1.409   .     A
C1273  C1279   1.409   .     A
C1274  C1278   1.409   .     A
C1274  C1280   1.409   .     A
C1275  Cl1323  1.771   .     S
C1275  C1283   1.408   .     A
C1275  C1277   1.399   .     A
C1276  C1284   1.408   .     A
C1276  C1278   1.399   .     A
C1276  Cl1324  1.771   .     S
C1277  N1320   1.434   .     S
C1278  N1317   1.434   .     S
C1279  N1314   1.438   .     S
C1279  C1281   1.418   .     A
C1280  N1311   1.438   .     S
C1280  C1282   1.418   .     A
C1281  C1285   1.427   .     A
C1281  C1283   1.421   .     A
C1282  C1284   1.421   .     A
C1282  C1286   1.427   .     A
C1283  C623    1.397   1_556 S
C1285  C1288   1.408   .     A
C1285  C620    1.419   1_556 S
C1286  C1287   1.408   .     A
C1287  H1293   1.078   .     S
C1287  C1289   1.384   .     A
C1288  C1290   1.384   .     A
C1288  H1294   1.078   .     S
C1289  H1291   1.082   .     S
C1290  H1292   1.082   .     S
C1290  C618    1.397   1_556 S
C1295  C1302   1.396   .     A
C1295  H1297   1.084   .     S
C1295  C855    1.372   1_565 S
C1296  C1301   1.396   .     A
C1296  H1298   1.084   .     S
C1299  C1301   1.400   .     A
C1299  Cl1325  1.766   .     S
C1300  Cl1326  1.766   .     S
C1300  C1302   1.400   .     A
C1300  C852    1.372   1_565 S
C1303  N1327   1.429   .     S
C1303  N1310   1.379   .     A
C1303  C1157   1.418   1_655 S
C1304  N1330   1.429   .     S
C1304  N1309   1.379   .     A
C1305  H1307   1.082   .     S
C1305  N1309   1.360   .     A
C1306  H1308   1.082   .     S
C1306  N1310   1.360   .     A
C1306  C1156   1.418   1_655 S
N1311  O1312   1.302   .     A
N1311  O1313   1.301   .     A
N1314  O1316   1.302   .     A
N1314  O1315   1.301   .     A
N1317  O1318   1.301   .     A
N1317  O1319   1.301   .     A
N1320  O1321   1.301   .     A
N1320  O1322   1.301   .     A
N1327  O1328   1.301   .     A
N1327  O1329   1.299   .     A
N1330  O1332   1.299   .     A
N1330  O1331   1.301   .     A
