data_str_m2_o10_o18_pcu_sym.126
_audit_creation_date              2020-01-03
_audit_creation_method            'Materials Studio'
_symmetry_space_group_name_H-M    'P1'
_symmetry_Int_Tables_number       1
_symmetry_cell_setting            triclinic
loop_
_symmetry_equiv_pos_as_xyz
  x,y,z
_cell_length_a                    22.2495
_cell_length_b                    26.0912
_cell_length_c                    31.6638
_cell_angle_alpha                 94.2931
_cell_angle_beta                  74.2871
_cell_angle_gamma                 103.2876
loop_
_atom_site_label
_atom_site_type_symbol
_atom_site_fract_x
_atom_site_fract_y
_atom_site_fract_z
_atom_site_U_iso_or_equiv
_atom_site_adp_type
_atom_site_occupancy
C1     C     0.18173   0.26675   0.25130   0.00000  Uiso   1.00
C2     C     0.15160   0.06659   0.24870   0.00000  Uiso   1.00
C3     C     0.09515   0.12805   0.03935   0.00000  Uiso   1.00
C4     C     0.23819   0.20528   0.46065   0.00000  Uiso   1.00
C5     C     0.05112   0.11603   0.01446   0.00000  Uiso   1.00
C6     C     0.28221   0.21730   0.48553   0.00000  Uiso   1.00
C7     C     0.19019   0.32272   0.25197   0.00000  Uiso   1.00
C8     C     0.14314   0.01061   0.24803   0.00000  Uiso   1.00
C9     C     0.12718   0.16275   0.33345   0.00000  Uiso   1.00
C10    C     0.20616   0.17059   0.16655   0.00000  Uiso   1.00
C11    C     0.10178   0.15722   0.38175   0.00000  Uiso   1.00
C12    C     0.23156   0.17611   0.11825   0.00000  Uiso   1.00
C13    C     0.02226   0.11912   0.44690   0.00000  Uiso   1.00
C14    C     0.31107   0.21421   0.05310   0.00000  Uiso   1.00
C15    C     0.03777   0.13254   0.40272   0.00000  Uiso   1.00
C16    C     0.29556   0.20079   0.09728   0.00000  Uiso   1.00
C17    C     0.14615   0.17242   0.40702   0.00000  Uiso   1.00
C18    C     0.18718   0.16092   0.09298   0.00000  Uiso   1.00
C19    C     0.13050   0.16069   0.45189   0.00000  Uiso   1.00
C20    C     0.20283   0.17265   0.04811   0.00000  Uiso   1.00
C21    C     0.06790   0.13208   0.47115   0.00000  Uiso   1.00
C22    C     0.26544   0.20125   0.02885   0.00000  Uiso   1.00
C23    C     0.17569   0.17494   0.47773   0.00000  Uiso   1.00
C24    C     0.15765   0.15839   0.02227   0.00000  Uiso   1.00
Cu25   Cu    0.10737   0.16108   0.24516   0.00000  Uiso   1.00
Cu26   Cu    0.22596   0.17225   0.25483   0.00000  Uiso   1.00
H27    H     0.00347   0.09344   0.02927   0.00000  Uiso   1.00
H28    H     0.32987   0.23990   0.47073   0.00000  Uiso   1.00
H29    H     0.13959   0.14138   0.10983   0.00000  Uiso   1.00
H30    H     0.19374   0.19195   0.39017   0.00000  Uiso   1.00
H31    H     0.30715   0.09881   0.46272   0.00000  Uiso   1.00
H32    H     0.02619   0.23453   0.03728   0.00000  Uiso   1.00
H33    H     0.07819   0.11234   0.07192   0.00000  Uiso   1.00
H34    H     0.25514   0.22099   0.42808   0.00000  Uiso   1.00
H35    H     0.23550   0.01324   0.25572   0.00000  Uiso   1.00
H36    H     0.09783   0.32009   0.24428   0.00000  Uiso   1.00
H37    H     0.00194   0.20621   0.28338   0.00000  Uiso   1.00
H38    H     0.33139   0.12712   0.21662   0.00000  Uiso   1.00
N39    N     0.31506   0.18068   0.26212   0.00000  Uiso   1.00
N40    N     0.01827   0.15265   0.23788   0.00000  Uiso   1.00
O41    O     0.12815   0.23809   0.24686   0.00000  Uiso   1.00
O42    O     0.20518   0.09524   0.25314   0.00000  Uiso   1.00
O43    O     0.22829   0.24753   0.25502   0.00000  Uiso   1.00
O44    O     0.10504   0.08580   0.24498   0.00000  Uiso   1.00
O45    O     0.08851   0.15930   0.30855   0.00000  Uiso   1.00
O46    O     0.24482   0.17403   0.19145   0.00000  Uiso   1.00
O47    O     0.18866   0.16874   0.31671   0.00000  Uiso   1.00
O48    O     0.14468   0.16460   0.18329   0.00000  Uiso   1.00
C49    C     0.01448   0.21395   0.11952   0.00000  Uiso   1.00
O50    O     0.02549   0.18004   0.13914   0.00000  Uiso   1.00
O51    O     0.05407   0.26437   0.11538   0.00000  Uiso   1.00
H52    H     0.08912   0.26826   0.13101   0.00000  Uiso   1.00
C53    C     0.31885   0.11938   0.38048   0.00000  Uiso   1.00
O54    O     0.30784   0.15329   0.36086   0.00000  Uiso   1.00
O55    O     0.27927   0.06897   0.38462   0.00000  Uiso   1.00
H56    H     0.24422   0.06507   0.36899   0.00000  Uiso   1.00
C57    C     0.51506   0.26675   0.25130   0.00000  Uiso   1.00
C58    C     0.48494   0.06659   0.24870   0.00000  Uiso   1.00
C59    C     0.42848   0.12805   0.03935   0.00000  Uiso   1.00
C60    C     0.57152   0.20528   0.46065   0.00000  Uiso   1.00
C61    C     0.38446   0.11603   0.01446   0.00000  Uiso   1.00
C62    C     0.61554   0.21730   0.48553   0.00000  Uiso   1.00
C63    C     0.52352   0.32272   0.25197   0.00000  Uiso   1.00
C64    C     0.47648   0.01061   0.24803   0.00000  Uiso   1.00
C65    C     0.46051   0.16275   0.33345   0.00000  Uiso   1.00
C66    C     0.53949   0.17059   0.16655   0.00000  Uiso   1.00
C67    C     0.43511   0.15722   0.38175   0.00000  Uiso   1.00
C68    C     0.56489   0.17611   0.11825   0.00000  Uiso   1.00
C69    C     0.35560   0.11912   0.44690   0.00000  Uiso   1.00
C70    C     0.64440   0.21421   0.05310   0.00000  Uiso   1.00
C71    C     0.37110   0.13254   0.40272   0.00000  Uiso   1.00
C72    C     0.62890   0.20079   0.09728   0.00000  Uiso   1.00
C73    C     0.47948   0.17242   0.40702   0.00000  Uiso   1.00
C74    C     0.52052   0.16092   0.09298   0.00000  Uiso   1.00
C75    C     0.46384   0.16069   0.45189   0.00000  Uiso   1.00
C76    C     0.53616   0.17265   0.04811   0.00000  Uiso   1.00
C77    C     0.40123   0.13208   0.47115   0.00000  Uiso   1.00
C78    C     0.59877   0.20125   0.02885   0.00000  Uiso   1.00
C79    C     0.50902   0.17494   0.47773   0.00000  Uiso   1.00
C80    C     0.49098   0.15839   0.02227   0.00000  Uiso   1.00
Cu81   Cu    0.44071   0.16108   0.24516   0.00000  Uiso   1.00
Cu82   Cu    0.55929   0.17225   0.25483   0.00000  Uiso   1.00
H83    H     0.33680   0.09344   0.02927   0.00000  Uiso   1.00
H84    H     0.66320   0.23990   0.47073   0.00000  Uiso   1.00
H85    H     0.47292   0.14138   0.10983   0.00000  Uiso   1.00
H86    H     0.52708   0.19195   0.39017   0.00000  Uiso   1.00
H87    H     0.64048   0.09881   0.46272   0.00000  Uiso   1.00
H88    H     0.35952   0.23453   0.03728   0.00000  Uiso   1.00
H89    H     0.41152   0.11234   0.07192   0.00000  Uiso   1.00
H90    H     0.58848   0.22099   0.42808   0.00000  Uiso   1.00
H91    H     0.56883   0.01324   0.25572   0.00000  Uiso   1.00
H92    H     0.43117   0.32009   0.24428   0.00000  Uiso   1.00
H93    H     0.33528   0.20621   0.28338   0.00000  Uiso   1.00
H94    H     0.66472   0.12712   0.21662   0.00000  Uiso   1.00
N95    N     0.64839   0.18068   0.26212   0.00000  Uiso   1.00
N96    N     0.35161   0.15265   0.23788   0.00000  Uiso   1.00
O97    O     0.46148   0.23809   0.24686   0.00000  Uiso   1.00
O98    O     0.53852   0.09524   0.25314   0.00000  Uiso   1.00
O99    O     0.56163   0.24753   0.25502   0.00000  Uiso   1.00
O100   O     0.43837   0.08580   0.24498   0.00000  Uiso   1.00
O101   O     0.42185   0.15930   0.30855   0.00000  Uiso   1.00
O102   O     0.57815   0.17403   0.19145   0.00000  Uiso   1.00
O103   O     0.52199   0.16874   0.31671   0.00000  Uiso   1.00
O104   O     0.47801   0.16460   0.18329   0.00000  Uiso   1.00
C105   C     0.34781   0.21395   0.11952   0.00000  Uiso   1.00
O106   O     0.35882   0.18004   0.13914   0.00000  Uiso   1.00
O107   O     0.38740   0.26437   0.11538   0.00000  Uiso   1.00
H108   H     0.42245   0.26826   0.13101   0.00000  Uiso   1.00
C109   C     0.65219   0.11938   0.38048   0.00000  Uiso   1.00
O110   O     0.64118   0.15329   0.36086   0.00000  Uiso   1.00
O111   O     0.61260   0.06897   0.38462   0.00000  Uiso   1.00
H112   H     0.57755   0.06507   0.36899   0.00000  Uiso   1.00
C113   C     0.84840   0.26675   0.25130   0.00000  Uiso   1.00
C114   C     0.81827   0.06659   0.24870   0.00000  Uiso   1.00
C115   C     0.76181   0.12805   0.03935   0.00000  Uiso   1.00
C116   C     0.90485   0.20528   0.46065   0.00000  Uiso   1.00
C117   C     0.71779   0.11603   0.01446   0.00000  Uiso   1.00
C118   C     0.94888   0.21730   0.48553   0.00000  Uiso   1.00
C119   C     0.85686   0.32272   0.25197   0.00000  Uiso   1.00
C120   C     0.80981   0.01061   0.24803   0.00000  Uiso   1.00
C121   C     0.79384   0.16275   0.33345   0.00000  Uiso   1.00
C122   C     0.87282   0.17059   0.16655   0.00000  Uiso   1.00
C123   C     0.76845   0.15722   0.38175   0.00000  Uiso   1.00
C124   C     0.89822   0.17611   0.11825   0.00000  Uiso   1.00
C125   C     0.68893   0.11912   0.44690   0.00000  Uiso   1.00
C126   C     0.97774   0.21421   0.05310   0.00000  Uiso   1.00
C127   C     0.70444   0.13254   0.40272   0.00000  Uiso   1.00
C128   C     0.96223   0.20079   0.09728   0.00000  Uiso   1.00
C129   C     0.81282   0.17242   0.40702   0.00000  Uiso   1.00
C130   C     0.85385   0.16092   0.09298   0.00000  Uiso   1.00
C131   C     0.79717   0.16069   0.45189   0.00000  Uiso   1.00
C132   C     0.86950   0.17265   0.04811   0.00000  Uiso   1.00
C133   C     0.73456   0.13208   0.47115   0.00000  Uiso   1.00
C134   C     0.93210   0.20125   0.02885   0.00000  Uiso   1.00
C135   C     0.84235   0.17494   0.47773   0.00000  Uiso   1.00
C136   C     0.82431   0.15839   0.02227   0.00000  Uiso   1.00
Cu137  Cu    0.77404   0.16108   0.24516   0.00000  Uiso   1.00
Cu138  Cu    0.89263   0.17225   0.25483   0.00000  Uiso   1.00
H139   H     0.67013   0.09344   0.02927   0.00000  Uiso   1.00
H140   H     0.99653   0.23990   0.47073   0.00000  Uiso   1.00
H141   H     0.80626   0.14138   0.10983   0.00000  Uiso   1.00
H142   H     0.86041   0.19195   0.39017   0.00000  Uiso   1.00
H143   H     0.97381   0.09881   0.46272   0.00000  Uiso   1.00
H144   H     0.69285   0.23453   0.03728   0.00000  Uiso   1.00
H145   H     0.74486   0.11234   0.07192   0.00000  Uiso   1.00
H146   H     0.92181   0.22099   0.42808   0.00000  Uiso   1.00
H147   H     0.90217   0.01324   0.25572   0.00000  Uiso   1.00
H148   H     0.76450   0.32009   0.24428   0.00000  Uiso   1.00
H149   H     0.66861   0.20621   0.28338   0.00000  Uiso   1.00
H150   H     0.99806   0.12712   0.21662   0.00000  Uiso   1.00
N151   N     0.98173   0.18068   0.26212   0.00000  Uiso   1.00
N152   N     0.68494   0.15265   0.23788   0.00000  Uiso   1.00
O153   O     0.79482   0.23809   0.24686   0.00000  Uiso   1.00
O154   O     0.87185   0.09524   0.25314   0.00000  Uiso   1.00
O155   O     0.89496   0.24753   0.25502   0.00000  Uiso   1.00
O156   O     0.77171   0.08580   0.24498   0.00000  Uiso   1.00
O157   O     0.75518   0.15930   0.30855   0.00000  Uiso   1.00
O158   O     0.91149   0.17403   0.19145   0.00000  Uiso   1.00
O159   O     0.85532   0.16874   0.31671   0.00000  Uiso   1.00
O160   O     0.81134   0.16460   0.18329   0.00000  Uiso   1.00
C161   C     0.68115   0.21395   0.11952   0.00000  Uiso   1.00
O162   O     0.69216   0.18004   0.13914   0.00000  Uiso   1.00
O163   O     0.72073   0.26437   0.11538   0.00000  Uiso   1.00
H164   H     0.75578   0.26826   0.13101   0.00000  Uiso   1.00
C165   C     0.98552   0.11938   0.38048   0.00000  Uiso   1.00
O166   O     0.97451   0.15329   0.36086   0.00000  Uiso   1.00
O167   O     0.94593   0.06897   0.38462   0.00000  Uiso   1.00
H168   H     0.91088   0.06507   0.36899   0.00000  Uiso   1.00
C169   C     0.18173   0.60008   0.25130   0.00000  Uiso   1.00
C170   C     0.15160   0.39992   0.24870   0.00000  Uiso   1.00
C171   C     0.09515   0.46139   0.03935   0.00000  Uiso   1.00
C172   C     0.23819   0.53861   0.46065   0.00000  Uiso   1.00
C173   C     0.05112   0.44936   0.01446   0.00000  Uiso   1.00
C174   C     0.28221   0.55064   0.48553   0.00000  Uiso   1.00
C175   C     0.19019   0.65605   0.25197   0.00000  Uiso   1.00
C176   C     0.14314   0.34395   0.24803   0.00000  Uiso   1.00
C177   C     0.12718   0.49608   0.33345   0.00000  Uiso   1.00
C178   C     0.20616   0.50392   0.16655   0.00000  Uiso   1.00
C179   C     0.10178   0.49056   0.38175   0.00000  Uiso   1.00
C180   C     0.23156   0.50944   0.11825   0.00000  Uiso   1.00
C181   C     0.02226   0.45246   0.44690   0.00000  Uiso   1.00
C182   C     0.31107   0.54754   0.05310   0.00000  Uiso   1.00
C183   C     0.03777   0.46587   0.40272   0.00000  Uiso   1.00
C184   C     0.29556   0.53413   0.09728   0.00000  Uiso   1.00
C185   C     0.14615   0.50575   0.40702   0.00000  Uiso   1.00
C186   C     0.18718   0.49425   0.09298   0.00000  Uiso   1.00
C187   C     0.13050   0.49402   0.45189   0.00000  Uiso   1.00
C188   C     0.20283   0.50598   0.04811   0.00000  Uiso   1.00
C189   C     0.06790   0.46541   0.47115   0.00000  Uiso   1.00
C190   C     0.26544   0.53459   0.02885   0.00000  Uiso   1.00
C191   C     0.17569   0.50827   0.47773   0.00000  Uiso   1.00
C192   C     0.15765   0.49173   0.02227   0.00000  Uiso   1.00
Cu193  Cu    0.10737   0.49441   0.24516   0.00000  Uiso   1.00
Cu194  Cu    0.22596   0.50559   0.25483   0.00000  Uiso   1.00
H195   H     0.00347   0.42677   0.02927   0.00000  Uiso   1.00
H196   H     0.32987   0.57323   0.47073   0.00000  Uiso   1.00
H197   H     0.13959   0.47472   0.10983   0.00000  Uiso   1.00
H198   H     0.19374   0.52528   0.39017   0.00000  Uiso   1.00
H199   H     0.30715   0.43214   0.46272   0.00000  Uiso   1.00
H200   H     0.02619   0.56786   0.03728   0.00000  Uiso   1.00
H201   H     0.07819   0.44568   0.07192   0.00000  Uiso   1.00
H202   H     0.25514   0.55432   0.42808   0.00000  Uiso   1.00
H203   H     0.23550   0.34658   0.25572   0.00000  Uiso   1.00
H204   H     0.09783   0.65342   0.24428   0.00000  Uiso   1.00
H205   H     0.00194   0.53954   0.28338   0.00000  Uiso   1.00
H206   H     0.33139   0.46046   0.21662   0.00000  Uiso   1.00
N207   N     0.31506   0.51401   0.26212   0.00000  Uiso   1.00
N208   N     0.01827   0.48599   0.23788   0.00000  Uiso   1.00
O209   O     0.12815   0.57142   0.24686   0.00000  Uiso   1.00
O210   O     0.20518   0.42858   0.25314   0.00000  Uiso   1.00
O211   O     0.22829   0.58086   0.25502   0.00000  Uiso   1.00
O212   O     0.10504   0.41914   0.24498   0.00000  Uiso   1.00
O213   O     0.08851   0.49263   0.30855   0.00000  Uiso   1.00
O214   O     0.24482   0.50737   0.19145   0.00000  Uiso   1.00
O215   O     0.18866   0.50207   0.31671   0.00000  Uiso   1.00
O216   O     0.14468   0.49793   0.18329   0.00000  Uiso   1.00
C217   C     0.01448   0.54728   0.11952   0.00000  Uiso   1.00
O218   O     0.02549   0.51337   0.13914   0.00000  Uiso   1.00
O219   O     0.05407   0.59770   0.11538   0.00000  Uiso   1.00
H220   H     0.08912   0.60160   0.13101   0.00000  Uiso   1.00
C221   C     0.31885   0.45272   0.38048   0.00000  Uiso   1.00
O222   O     0.30784   0.48663   0.36086   0.00000  Uiso   1.00
O223   O     0.27927   0.40230   0.38462   0.00000  Uiso   1.00
H224   H     0.24422   0.39840   0.36899   0.00000  Uiso   1.00
C225   C     0.51506   0.60008   0.25130   0.00000  Uiso   1.00
C226   C     0.48494   0.39992   0.24870   0.00000  Uiso   1.00
C227   C     0.42848   0.46139   0.03935   0.00000  Uiso   1.00
C228   C     0.57152   0.53861   0.46065   0.00000  Uiso   1.00
C229   C     0.38446   0.44936   0.01446   0.00000  Uiso   1.00
C230   C     0.61554   0.55064   0.48553   0.00000  Uiso   1.00
C231   C     0.52352   0.65605   0.25197   0.00000  Uiso   1.00
C232   C     0.47648   0.34395   0.24803   0.00000  Uiso   1.00
C233   C     0.46051   0.49608   0.33345   0.00000  Uiso   1.00
C234   C     0.53949   0.50392   0.16655   0.00000  Uiso   1.00
C235   C     0.43511   0.49056   0.38175   0.00000  Uiso   1.00
C236   C     0.56489   0.50944   0.11825   0.00000  Uiso   1.00
C237   C     0.35560   0.45246   0.44690   0.00000  Uiso   1.00
C238   C     0.64440   0.54754   0.05310   0.00000  Uiso   1.00
C239   C     0.37110   0.46587   0.40272   0.00000  Uiso   1.00
C240   C     0.62890   0.53413   0.09728   0.00000  Uiso   1.00
C241   C     0.47948   0.50575   0.40702   0.00000  Uiso   1.00
C242   C     0.52052   0.49425   0.09298   0.00000  Uiso   1.00
C243   C     0.46384   0.49402   0.45189   0.00000  Uiso   1.00
C244   C     0.53616   0.50598   0.04811   0.00000  Uiso   1.00
C245   C     0.40123   0.46541   0.47115   0.00000  Uiso   1.00
C246   C     0.59877   0.53459   0.02885   0.00000  Uiso   1.00
C247   C     0.50902   0.50827   0.47773   0.00000  Uiso   1.00
C248   C     0.49098   0.49173   0.02227   0.00000  Uiso   1.00
Cu249  Cu    0.44071   0.49441   0.24516   0.00000  Uiso   1.00
Cu250  Cu    0.55929   0.50559   0.25483   0.00000  Uiso   1.00
H251   H     0.33680   0.42677   0.02927   0.00000  Uiso   1.00
H252   H     0.66320   0.57323   0.47073   0.00000  Uiso   1.00
H253   H     0.47292   0.47472   0.10983   0.00000  Uiso   1.00
H254   H     0.52708   0.52528   0.39017   0.00000  Uiso   1.00
H255   H     0.64048   0.43214   0.46272   0.00000  Uiso   1.00
H256   H     0.35952   0.56786   0.03728   0.00000  Uiso   1.00
H257   H     0.41152   0.44568   0.07192   0.00000  Uiso   1.00
H258   H     0.58848   0.55432   0.42808   0.00000  Uiso   1.00
H259   H     0.56883   0.34658   0.25572   0.00000  Uiso   1.00
H260   H     0.43117   0.65342   0.24428   0.00000  Uiso   1.00
H261   H     0.33528   0.53954   0.28338   0.00000  Uiso   1.00
H262   H     0.66472   0.46046   0.21662   0.00000  Uiso   1.00
N263   N     0.64839   0.51401   0.26212   0.00000  Uiso   1.00
N264   N     0.35161   0.48599   0.23788   0.00000  Uiso   1.00
O265   O     0.46148   0.57142   0.24686   0.00000  Uiso   1.00
O266   O     0.53852   0.42858   0.25314   0.00000  Uiso   1.00
O267   O     0.56163   0.58086   0.25502   0.00000  Uiso   1.00
O268   O     0.43837   0.41914   0.24498   0.00000  Uiso   1.00
O269   O     0.42185   0.49263   0.30855   0.00000  Uiso   1.00
O270   O     0.57815   0.50737   0.19145   0.00000  Uiso   1.00
O271   O     0.52199   0.50207   0.31671   0.00000  Uiso   1.00
O272   O     0.47801   0.49793   0.18329   0.00000  Uiso   1.00
C273   C     0.34781   0.54728   0.11952   0.00000  Uiso   1.00
O274   O     0.35882   0.51337   0.13914   0.00000  Uiso   1.00
O275   O     0.38740   0.59770   0.11538   0.00000  Uiso   1.00
H276   H     0.42245   0.60160   0.13101   0.00000  Uiso   1.00
C277   C     0.65219   0.45272   0.38048   0.00000  Uiso   1.00
O278   O     0.64118   0.48663   0.36086   0.00000  Uiso   1.00
O279   O     0.61260   0.40230   0.38462   0.00000  Uiso   1.00
H280   H     0.57755   0.39840   0.36899   0.00000  Uiso   1.00
C281   C     0.84840   0.60008   0.25130   0.00000  Uiso   1.00
C282   C     0.81827   0.39992   0.24870   0.00000  Uiso   1.00
C283   C     0.76181   0.46139   0.03935   0.00000  Uiso   1.00
C284   C     0.90485   0.53861   0.46065   0.00000  Uiso   1.00
C285   C     0.71779   0.44936   0.01446   0.00000  Uiso   1.00
C286   C     0.94888   0.55064   0.48553   0.00000  Uiso   1.00
C287   C     0.85686   0.65605   0.25197   0.00000  Uiso   1.00
C288   C     0.80981   0.34395   0.24803   0.00000  Uiso   1.00
C289   C     0.79384   0.49608   0.33345   0.00000  Uiso   1.00
C290   C     0.87282   0.50392   0.16655   0.00000  Uiso   1.00
C291   C     0.76845   0.49056   0.38175   0.00000  Uiso   1.00
C292   C     0.89822   0.50944   0.11825   0.00000  Uiso   1.00
C293   C     0.68893   0.45246   0.44690   0.00000  Uiso   1.00
C294   C     0.97774   0.54754   0.05310   0.00000  Uiso   1.00
C295   C     0.70444   0.46587   0.40272   0.00000  Uiso   1.00
C296   C     0.96223   0.53413   0.09728   0.00000  Uiso   1.00
C297   C     0.81282   0.50575   0.40702   0.00000  Uiso   1.00
C298   C     0.85385   0.49425   0.09298   0.00000  Uiso   1.00
C299   C     0.79717   0.49402   0.45189   0.00000  Uiso   1.00
C300   C     0.86950   0.50598   0.04811   0.00000  Uiso   1.00
C301   C     0.73456   0.46541   0.47115   0.00000  Uiso   1.00
C302   C     0.93210   0.53459   0.02885   0.00000  Uiso   1.00
C303   C     0.84235   0.50827   0.47773   0.00000  Uiso   1.00
C304   C     0.82431   0.49173   0.02227   0.00000  Uiso   1.00
Cu305  Cu    0.77404   0.49441   0.24516   0.00000  Uiso   1.00
Cu306  Cu    0.89263   0.50559   0.25483   0.00000  Uiso   1.00
H307   H     0.67013   0.42677   0.02927   0.00000  Uiso   1.00
H308   H     0.99653   0.57323   0.47073   0.00000  Uiso   1.00
H309   H     0.80626   0.47472   0.10983   0.00000  Uiso   1.00
H310   H     0.86041   0.52528   0.39017   0.00000  Uiso   1.00
H311   H     0.97381   0.43214   0.46272   0.00000  Uiso   1.00
H312   H     0.69285   0.56786   0.03728   0.00000  Uiso   1.00
H313   H     0.74486   0.44568   0.07192   0.00000  Uiso   1.00
H314   H     0.92181   0.55432   0.42808   0.00000  Uiso   1.00
H315   H     0.90217   0.34658   0.25572   0.00000  Uiso   1.00
H316   H     0.76450   0.65342   0.24428   0.00000  Uiso   1.00
H317   H     0.66861   0.53954   0.28338   0.00000  Uiso   1.00
H318   H     0.99806   0.46046   0.21662   0.00000  Uiso   1.00
N319   N     0.98173   0.51401   0.26212   0.00000  Uiso   1.00
N320   N     0.68494   0.48599   0.23788   0.00000  Uiso   1.00
O321   O     0.79482   0.57142   0.24686   0.00000  Uiso   1.00
O322   O     0.87185   0.42858   0.25314   0.00000  Uiso   1.00
O323   O     0.89496   0.58086   0.25502   0.00000  Uiso   1.00
O324   O     0.77171   0.41914   0.24498   0.00000  Uiso   1.00
O325   O     0.75518   0.49263   0.30855   0.00000  Uiso   1.00
O326   O     0.91149   0.50737   0.19145   0.00000  Uiso   1.00
O327   O     0.85532   0.50207   0.31671   0.00000  Uiso   1.00
O328   O     0.81134   0.49793   0.18329   0.00000  Uiso   1.00
C329   C     0.68115   0.54728   0.11952   0.00000  Uiso   1.00
O330   O     0.69216   0.51337   0.13914   0.00000  Uiso   1.00
O331   O     0.72073   0.59770   0.11538   0.00000  Uiso   1.00
H332   H     0.75578   0.60160   0.13101   0.00000  Uiso   1.00
C333   C     0.98552   0.45272   0.38048   0.00000  Uiso   1.00
O334   O     0.97451   0.48663   0.36086   0.00000  Uiso   1.00
O335   O     0.94593   0.40230   0.38462   0.00000  Uiso   1.00
H336   H     0.91088   0.39840   0.36899   0.00000  Uiso   1.00
C337   C     0.18173   0.93341   0.25130   0.00000  Uiso   1.00
C338   C     0.15160   0.73325   0.24870   0.00000  Uiso   1.00
C339   C     0.09515   0.79472   0.03935   0.00000  Uiso   1.00
C340   C     0.23819   0.87195   0.46065   0.00000  Uiso   1.00
C341   C     0.05112   0.78270   0.01446   0.00000  Uiso   1.00
C342   C     0.28221   0.88397   0.48553   0.00000  Uiso   1.00
C343   C     0.19019   0.98939   0.25197   0.00000  Uiso   1.00
C344   C     0.14314   0.67728   0.24803   0.00000  Uiso   1.00
C345   C     0.12718   0.82941   0.33345   0.00000  Uiso   1.00
C346   C     0.20616   0.83725   0.16655   0.00000  Uiso   1.00
C347   C     0.10178   0.82389   0.38175   0.00000  Uiso   1.00
C348   C     0.23156   0.84278   0.11825   0.00000  Uiso   1.00
C349   C     0.02226   0.78579   0.44690   0.00000  Uiso   1.00
C350   C     0.31107   0.88088   0.05310   0.00000  Uiso   1.00
C351   C     0.03777   0.79921   0.40272   0.00000  Uiso   1.00
C352   C     0.29556   0.86746   0.09728   0.00000  Uiso   1.00
C353   C     0.14615   0.83908   0.40702   0.00000  Uiso   1.00
C354   C     0.18718   0.82758   0.09298   0.00000  Uiso   1.00
C355   C     0.13050   0.82735   0.45189   0.00000  Uiso   1.00
C356   C     0.20283   0.83931   0.04811   0.00000  Uiso   1.00
C357   C     0.06790   0.79875   0.47115   0.00000  Uiso   1.00
C358   C     0.26544   0.86792   0.02885   0.00000  Uiso   1.00
C359   C     0.17569   0.84161   0.47773   0.00000  Uiso   1.00
C360   C     0.15765   0.82506   0.02227   0.00000  Uiso   1.00
Cu361  Cu    0.10737   0.82775   0.24516   0.00000  Uiso   1.00
Cu362  Cu    0.22596   0.83892   0.25483   0.00000  Uiso   1.00
H363   H     0.00347   0.76010   0.02927   0.00000  Uiso   1.00
H364   H     0.32987   0.90656   0.47073   0.00000  Uiso   1.00
H365   H     0.13959   0.80805   0.10983   0.00000  Uiso   1.00
H366   H     0.19374   0.85862   0.39017   0.00000  Uiso   1.00
H367   H     0.30715   0.76547   0.46272   0.00000  Uiso   1.00
H368   H     0.02619   0.90119   0.03728   0.00000  Uiso   1.00
H369   H     0.07819   0.77901   0.07192   0.00000  Uiso   1.00
H370   H     0.25514   0.88766   0.42808   0.00000  Uiso   1.00
H371   H     0.23550   0.67991   0.25572   0.00000  Uiso   1.00
H372   H     0.09783   0.98676   0.24428   0.00000  Uiso   1.00
H373   H     0.00194   0.87288   0.28338   0.00000  Uiso   1.00
H374   H     0.33139   0.79379   0.21662   0.00000  Uiso   1.00
N375   N     0.31506   0.84735   0.26212   0.00000  Uiso   1.00
N376   N     0.01827   0.81932   0.23788   0.00000  Uiso   1.00
O377   O     0.12815   0.90476   0.24686   0.00000  Uiso   1.00
O378   O     0.20518   0.76191   0.25314   0.00000  Uiso   1.00
O379   O     0.22829   0.91420   0.25502   0.00000  Uiso   1.00
O380   O     0.10504   0.75247   0.24498   0.00000  Uiso   1.00
O381   O     0.08851   0.82597   0.30855   0.00000  Uiso   1.00
O382   O     0.24482   0.84070   0.19145   0.00000  Uiso   1.00
O383   O     0.18866   0.83540   0.31671   0.00000  Uiso   1.00
O384   O     0.14468   0.83126   0.18329   0.00000  Uiso   1.00
C385   C     0.01448   0.88062   0.11952   0.00000  Uiso   1.00
O386   O     0.02549   0.84671   0.13914   0.00000  Uiso   1.00
O387   O     0.05407   0.93103   0.11538   0.00000  Uiso   1.00
H388   H     0.08912   0.93493   0.13101   0.00000  Uiso   1.00
C389   C     0.31885   0.78605   0.38048   0.00000  Uiso   1.00
O390   O     0.30784   0.81996   0.36086   0.00000  Uiso   1.00
O391   O     0.27927   0.73563   0.38462   0.00000  Uiso   1.00
H392   H     0.24422   0.73174   0.36899   0.00000  Uiso   1.00
C393   C     0.51506   0.93341   0.25130   0.00000  Uiso   1.00
C394   C     0.48494   0.73325   0.24870   0.00000  Uiso   1.00
C395   C     0.42848   0.79472   0.03935   0.00000  Uiso   1.00
C396   C     0.57152   0.87195   0.46065   0.00000  Uiso   1.00
C397   C     0.38446   0.78270   0.01446   0.00000  Uiso   1.00
C398   C     0.61554   0.88397   0.48553   0.00000  Uiso   1.00
C399   C     0.52352   0.98939   0.25197   0.00000  Uiso   1.00
C400   C     0.47648   0.67728   0.24803   0.00000  Uiso   1.00
C401   C     0.46051   0.82941   0.33345   0.00000  Uiso   1.00
C402   C     0.53949   0.83725   0.16655   0.00000  Uiso   1.00
C403   C     0.43511   0.82389   0.38175   0.00000  Uiso   1.00
C404   C     0.56489   0.84278   0.11825   0.00000  Uiso   1.00
C405   C     0.35560   0.78579   0.44690   0.00000  Uiso   1.00
C406   C     0.64440   0.88088   0.05310   0.00000  Uiso   1.00
C407   C     0.37110   0.79921   0.40272   0.00000  Uiso   1.00
C408   C     0.62890   0.86746   0.09728   0.00000  Uiso   1.00
C409   C     0.47948   0.83908   0.40702   0.00000  Uiso   1.00
C410   C     0.52052   0.82758   0.09298   0.00000  Uiso   1.00
C411   C     0.46384   0.82735   0.45189   0.00000  Uiso   1.00
C412   C     0.53616   0.83931   0.04811   0.00000  Uiso   1.00
C413   C     0.40123   0.79875   0.47115   0.00000  Uiso   1.00
C414   C     0.59877   0.86792   0.02885   0.00000  Uiso   1.00
C415   C     0.50902   0.84161   0.47773   0.00000  Uiso   1.00
C416   C     0.49098   0.82506   0.02227   0.00000  Uiso   1.00
Cu417  Cu    0.44071   0.82775   0.24516   0.00000  Uiso   1.00
Cu418  Cu    0.55929   0.83892   0.25483   0.00000  Uiso   1.00
H419   H     0.33680   0.76010   0.02927   0.00000  Uiso   1.00
H420   H     0.66320   0.90656   0.47073   0.00000  Uiso   1.00
H421   H     0.47292   0.80805   0.10983   0.00000  Uiso   1.00
H422   H     0.52708   0.85862   0.39017   0.00000  Uiso   1.00
H423   H     0.64048   0.76547   0.46272   0.00000  Uiso   1.00
H424   H     0.35952   0.90119   0.03728   0.00000  Uiso   1.00
H425   H     0.41152   0.77901   0.07192   0.00000  Uiso   1.00
H426   H     0.58848   0.88766   0.42808   0.00000  Uiso   1.00
H427   H     0.56883   0.67991   0.25572   0.00000  Uiso   1.00
H428   H     0.43117   0.98676   0.24428   0.00000  Uiso   1.00
H429   H     0.33528   0.87288   0.28338   0.00000  Uiso   1.00
H430   H     0.66472   0.79379   0.21662   0.00000  Uiso   1.00
N431   N     0.64839   0.84735   0.26212   0.00000  Uiso   1.00
N432   N     0.35161   0.81932   0.23788   0.00000  Uiso   1.00
O433   O     0.46148   0.90476   0.24686   0.00000  Uiso   1.00
O434   O     0.53852   0.76191   0.25314   0.00000  Uiso   1.00
O435   O     0.56163   0.91420   0.25502   0.00000  Uiso   1.00
O436   O     0.43837   0.75247   0.24498   0.00000  Uiso   1.00
O437   O     0.42185   0.82597   0.30855   0.00000  Uiso   1.00
O438   O     0.57815   0.84070   0.19145   0.00000  Uiso   1.00
O439   O     0.52199   0.83540   0.31671   0.00000  Uiso   1.00
O440   O     0.47801   0.83126   0.18329   0.00000  Uiso   1.00
C441   C     0.34781   0.88062   0.11952   0.00000  Uiso   1.00
O442   O     0.35882   0.84671   0.13914   0.00000  Uiso   1.00
O443   O     0.38740   0.93103   0.11538   0.00000  Uiso   1.00
H444   H     0.42245   0.93493   0.13101   0.00000  Uiso   1.00
C445   C     0.65219   0.78605   0.38048   0.00000  Uiso   1.00
O446   O     0.64118   0.81996   0.36086   0.00000  Uiso   1.00
O447   O     0.61260   0.73563   0.38462   0.00000  Uiso   1.00
H448   H     0.57755   0.73174   0.36899   0.00000  Uiso   1.00
C449   C     0.84840   0.93341   0.25130   0.00000  Uiso   1.00
C450   C     0.81827   0.73325   0.24870   0.00000  Uiso   1.00
C451   C     0.76181   0.79472   0.03935   0.00000  Uiso   1.00
C452   C     0.90485   0.87195   0.46065   0.00000  Uiso   1.00
C453   C     0.71779   0.78270   0.01446   0.00000  Uiso   1.00
C454   C     0.94888   0.88397   0.48553   0.00000  Uiso   1.00
C455   C     0.85686   0.98939   0.25197   0.00000  Uiso   1.00
C456   C     0.80981   0.67728   0.24803   0.00000  Uiso   1.00
C457   C     0.79384   0.82941   0.33345   0.00000  Uiso   1.00
C458   C     0.87282   0.83725   0.16655   0.00000  Uiso   1.00
C459   C     0.76845   0.82389   0.38175   0.00000  Uiso   1.00
C460   C     0.89822   0.84278   0.11825   0.00000  Uiso   1.00
C461   C     0.68893   0.78579   0.44690   0.00000  Uiso   1.00
C462   C     0.97774   0.88088   0.05310   0.00000  Uiso   1.00
C463   C     0.70444   0.79921   0.40272   0.00000  Uiso   1.00
C464   C     0.96223   0.86746   0.09728   0.00000  Uiso   1.00
C465   C     0.81282   0.83908   0.40702   0.00000  Uiso   1.00
C466   C     0.85385   0.82758   0.09298   0.00000  Uiso   1.00
C467   C     0.79717   0.82735   0.45189   0.00000  Uiso   1.00
C468   C     0.86950   0.83931   0.04811   0.00000  Uiso   1.00
C469   C     0.73456   0.79875   0.47115   0.00000  Uiso   1.00
C470   C     0.93210   0.86792   0.02885   0.00000  Uiso   1.00
C471   C     0.84235   0.84161   0.47773   0.00000  Uiso   1.00
C472   C     0.82431   0.82506   0.02227   0.00000  Uiso   1.00
Cu473  Cu    0.77404   0.82775   0.24516   0.00000  Uiso   1.00
Cu474  Cu    0.89263   0.83892   0.25483   0.00000  Uiso   1.00
H475   H     0.67013   0.76010   0.02927   0.00000  Uiso   1.00
H476   H     0.99653   0.90656   0.47073   0.00000  Uiso   1.00
H477   H     0.80626   0.80805   0.10983   0.00000  Uiso   1.00
H478   H     0.86041   0.85862   0.39017   0.00000  Uiso   1.00
H479   H     0.97381   0.76547   0.46272   0.00000  Uiso   1.00
H480   H     0.69285   0.90119   0.03728   0.00000  Uiso   1.00
H481   H     0.74486   0.77901   0.07192   0.00000  Uiso   1.00
H482   H     0.92181   0.88766   0.42808   0.00000  Uiso   1.00
H483   H     0.90217   0.67991   0.25572   0.00000  Uiso   1.00
H484   H     0.76450   0.98676   0.24428   0.00000  Uiso   1.00
H485   H     0.66861   0.87288   0.28338   0.00000  Uiso   1.00
H486   H     0.99806   0.79379   0.21662   0.00000  Uiso   1.00
N487   N     0.98173   0.84735   0.26212   0.00000  Uiso   1.00
N488   N     0.68494   0.81932   0.23788   0.00000  Uiso   1.00
O489   O     0.79482   0.90476   0.24686   0.00000  Uiso   1.00
O490   O     0.87185   0.76191   0.25314   0.00000  Uiso   1.00
O491   O     0.89496   0.91420   0.25502   0.00000  Uiso   1.00
O492   O     0.77171   0.75247   0.24498   0.00000  Uiso   1.00
O493   O     0.75518   0.82597   0.30855   0.00000  Uiso   1.00
O494   O     0.91149   0.84070   0.19145   0.00000  Uiso   1.00
O495   O     0.85532   0.83540   0.31671   0.00000  Uiso   1.00
O496   O     0.81134   0.83126   0.18329   0.00000  Uiso   1.00
C497   C     0.68115   0.88062   0.11952   0.00000  Uiso   1.00
O498   O     0.69216   0.84671   0.13914   0.00000  Uiso   1.00
O499   O     0.72073   0.93103   0.11538   0.00000  Uiso   1.00
H500   H     0.75578   0.93493   0.13101   0.00000  Uiso   1.00
C501   C     0.98552   0.78605   0.38048   0.00000  Uiso   1.00
O502   O     0.97451   0.81996   0.36086   0.00000  Uiso   1.00
O503   O     0.94593   0.73563   0.38462   0.00000  Uiso   1.00
H504   H     0.91088   0.73174   0.36899   0.00000  Uiso   1.00
C505   C     0.18173   0.26675   0.75130   0.00000  Uiso   1.00
C506   C     0.15160   0.06659   0.74870   0.00000  Uiso   1.00
C507   C     0.09515   0.12805   0.53935   0.00000  Uiso   1.00
C508   C     0.23819   0.20528   0.96065   0.00000  Uiso   1.00
C509   C     0.05112   0.11603   0.51446   0.00000  Uiso   1.00
C510   C     0.28221   0.21730   0.98553   0.00000  Uiso   1.00
C511   C     0.19019   0.32272   0.75197   0.00000  Uiso   1.00
C512   C     0.14314   0.01061   0.74803   0.00000  Uiso   1.00
C513   C     0.12718   0.16275   0.83345   0.00000  Uiso   1.00
C514   C     0.20616   0.17059   0.66655   0.00000  Uiso   1.00
C515   C     0.10178   0.15722   0.88175   0.00000  Uiso   1.00
C516   C     0.23156   0.17611   0.61825   0.00000  Uiso   1.00
C517   C     0.02226   0.11912   0.94690   0.00000  Uiso   1.00
C518   C     0.31107   0.21421   0.55310   0.00000  Uiso   1.00
C519   C     0.03777   0.13254   0.90272   0.00000  Uiso   1.00
C520   C     0.29556   0.20079   0.59728   0.00000  Uiso   1.00
C521   C     0.14615   0.17242   0.90702   0.00000  Uiso   1.00
C522   C     0.18718   0.16092   0.59298   0.00000  Uiso   1.00
C523   C     0.13050   0.16069   0.95189   0.00000  Uiso   1.00
C524   C     0.20283   0.17265   0.54811   0.00000  Uiso   1.00
C525   C     0.06790   0.13208   0.97115   0.00000  Uiso   1.00
C526   C     0.26544   0.20125   0.52885   0.00000  Uiso   1.00
C527   C     0.17569   0.17494   0.97773   0.00000  Uiso   1.00
C528   C     0.15765   0.15839   0.52227   0.00000  Uiso   1.00
Cu529  Cu    0.10737   0.16108   0.74516   0.00000  Uiso   1.00
Cu530  Cu    0.22596   0.17225   0.75483   0.00000  Uiso   1.00
H531   H     0.00347   0.09344   0.52927   0.00000  Uiso   1.00
H532   H     0.32987   0.23990   0.97073   0.00000  Uiso   1.00
H533   H     0.13959   0.14138   0.60983   0.00000  Uiso   1.00
H534   H     0.19374   0.19195   0.89017   0.00000  Uiso   1.00
H535   H     0.30715   0.09881   0.96272   0.00000  Uiso   1.00
H536   H     0.02619   0.23453   0.53728   0.00000  Uiso   1.00
H537   H     0.07819   0.11234   0.57192   0.00000  Uiso   1.00
H538   H     0.25514   0.22099   0.92808   0.00000  Uiso   1.00
H539   H     0.23550   0.01324   0.75572   0.00000  Uiso   1.00
H540   H     0.09783   0.32009   0.74428   0.00000  Uiso   1.00
H541   H     0.00194   0.20621   0.78338   0.00000  Uiso   1.00
H542   H     0.33139   0.12712   0.71662   0.00000  Uiso   1.00
N543   N     0.31506   0.18068   0.76212   0.00000  Uiso   1.00
N544   N     0.01827   0.15265   0.73788   0.00000  Uiso   1.00
O545   O     0.12815   0.23809   0.74686   0.00000  Uiso   1.00
O546   O     0.20518   0.09524   0.75314   0.00000  Uiso   1.00
O547   O     0.22829   0.24753   0.75502   0.00000  Uiso   1.00
O548   O     0.10504   0.08580   0.74498   0.00000  Uiso   1.00
O549   O     0.08851   0.15930   0.80855   0.00000  Uiso   1.00
O550   O     0.24482   0.17403   0.69145   0.00000  Uiso   1.00
O551   O     0.18866   0.16874   0.81671   0.00000  Uiso   1.00
O552   O     0.14468   0.16460   0.68329   0.00000  Uiso   1.00
C553   C     0.01448   0.21395   0.61952   0.00000  Uiso   1.00
O554   O     0.02549   0.18004   0.63914   0.00000  Uiso   1.00
O555   O     0.05407   0.26437   0.61538   0.00000  Uiso   1.00
H556   H     0.08912   0.26826   0.63101   0.00000  Uiso   1.00
C557   C     0.31885   0.11938   0.88048   0.00000  Uiso   1.00
O558   O     0.30784   0.15329   0.86086   0.00000  Uiso   1.00
O559   O     0.27927   0.06897   0.88462   0.00000  Uiso   1.00
H560   H     0.24422   0.06507   0.86899   0.00000  Uiso   1.00
C561   C     0.51506   0.26675   0.75130   0.00000  Uiso   1.00
C562   C     0.48494   0.06659   0.74870   0.00000  Uiso   1.00
C563   C     0.42848   0.12805   0.53935   0.00000  Uiso   1.00
C564   C     0.57152   0.20528   0.96065   0.00000  Uiso   1.00
C565   C     0.38446   0.11603   0.51446   0.00000  Uiso   1.00
C566   C     0.61554   0.21730   0.98553   0.00000  Uiso   1.00
C567   C     0.52352   0.32272   0.75197   0.00000  Uiso   1.00
C568   C     0.47648   0.01061   0.74803   0.00000  Uiso   1.00
C569   C     0.46051   0.16275   0.83345   0.00000  Uiso   1.00
C570   C     0.53949   0.17059   0.66655   0.00000  Uiso   1.00
C571   C     0.43511   0.15722   0.88175   0.00000  Uiso   1.00
C572   C     0.56489   0.17611   0.61825   0.00000  Uiso   1.00
C573   C     0.35560   0.11912   0.94690   0.00000  Uiso   1.00
C574   C     0.64440   0.21421   0.55310   0.00000  Uiso   1.00
C575   C     0.37110   0.13254   0.90272   0.00000  Uiso   1.00
C576   C     0.62890   0.20079   0.59728   0.00000  Uiso   1.00
C577   C     0.47948   0.17242   0.90702   0.00000  Uiso   1.00
C578   C     0.52052   0.16092   0.59298   0.00000  Uiso   1.00
C579   C     0.46384   0.16069   0.95189   0.00000  Uiso   1.00
C580   C     0.53616   0.17265   0.54811   0.00000  Uiso   1.00
C581   C     0.40123   0.13208   0.97115   0.00000  Uiso   1.00
C582   C     0.59877   0.20125   0.52885   0.00000  Uiso   1.00
C583   C     0.50902   0.17494   0.97773   0.00000  Uiso   1.00
C584   C     0.49098   0.15839   0.52227   0.00000  Uiso   1.00
Cu585  Cu    0.44071   0.16108   0.74516   0.00000  Uiso   1.00
Cu586  Cu    0.55929   0.17225   0.75483   0.00000  Uiso   1.00
H587   H     0.33680   0.09344   0.52927   0.00000  Uiso   1.00
H588   H     0.66320   0.23990   0.97073   0.00000  Uiso   1.00
H589   H     0.47292   0.14138   0.60983   0.00000  Uiso   1.00
H590   H     0.52708   0.19195   0.89017   0.00000  Uiso   1.00
H591   H     0.64048   0.09881   0.96272   0.00000  Uiso   1.00
H592   H     0.35952   0.23453   0.53728   0.00000  Uiso   1.00
H593   H     0.41152   0.11234   0.57192   0.00000  Uiso   1.00
H594   H     0.58848   0.22099   0.92808   0.00000  Uiso   1.00
H595   H     0.56883   0.01324   0.75572   0.00000  Uiso   1.00
H596   H     0.43117   0.32009   0.74428   0.00000  Uiso   1.00
H597   H     0.33528   0.20621   0.78338   0.00000  Uiso   1.00
H598   H     0.66472   0.12712   0.71662   0.00000  Uiso   1.00
N599   N     0.64839   0.18068   0.76212   0.00000  Uiso   1.00
N600   N     0.35161   0.15265   0.73788   0.00000  Uiso   1.00
O601   O     0.46148   0.23809   0.74686   0.00000  Uiso   1.00
O602   O     0.53852   0.09524   0.75314   0.00000  Uiso   1.00
O603   O     0.56163   0.24753   0.75502   0.00000  Uiso   1.00
O604   O     0.43837   0.08580   0.74498   0.00000  Uiso   1.00
O605   O     0.42185   0.15930   0.80855   0.00000  Uiso   1.00
O606   O     0.57815   0.17403   0.69145   0.00000  Uiso   1.00
O607   O     0.52199   0.16874   0.81671   0.00000  Uiso   1.00
O608   O     0.47801   0.16460   0.68329   0.00000  Uiso   1.00
C609   C     0.34781   0.21395   0.61952   0.00000  Uiso   1.00
O610   O     0.35882   0.18004   0.63914   0.00000  Uiso   1.00
O611   O     0.38740   0.26437   0.61538   0.00000  Uiso   1.00
H612   H     0.42245   0.26826   0.63101   0.00000  Uiso   1.00
C613   C     0.65219   0.11938   0.88048   0.00000  Uiso   1.00
O614   O     0.64118   0.15329   0.86086   0.00000  Uiso   1.00
O615   O     0.61260   0.06897   0.88462   0.00000  Uiso   1.00
H616   H     0.57755   0.06507   0.86899   0.00000  Uiso   1.00
C617   C     0.84840   0.26675   0.75130   0.00000  Uiso   1.00
C618   C     0.81827   0.06659   0.74870   0.00000  Uiso   1.00
C619   C     0.76181   0.12805   0.53935   0.00000  Uiso   1.00
C620   C     0.90485   0.20528   0.96065   0.00000  Uiso   1.00
C621   C     0.71779   0.11603   0.51446   0.00000  Uiso   1.00
C622   C     0.94888   0.21730   0.98553   0.00000  Uiso   1.00
C623   C     0.85686   0.32272   0.75197   0.00000  Uiso   1.00
C624   C     0.80981   0.01061   0.74803   0.00000  Uiso   1.00
C625   C     0.79384   0.16275   0.83345   0.00000  Uiso   1.00
C626   C     0.87282   0.17059   0.66655   0.00000  Uiso   1.00
C627   C     0.76845   0.15722   0.88175   0.00000  Uiso   1.00
C628   C     0.89822   0.17611   0.61825   0.00000  Uiso   1.00
C629   C     0.68893   0.11912   0.94690   0.00000  Uiso   1.00
C630   C     0.97774   0.21421   0.55310   0.00000  Uiso   1.00
C631   C     0.70444   0.13254   0.90272   0.00000  Uiso   1.00
C632   C     0.96223   0.20079   0.59728   0.00000  Uiso   1.00
C633   C     0.81282   0.17242   0.90702   0.00000  Uiso   1.00
C634   C     0.85385   0.16092   0.59298   0.00000  Uiso   1.00
C635   C     0.79717   0.16069   0.95189   0.00000  Uiso   1.00
C636   C     0.86950   0.17265   0.54811   0.00000  Uiso   1.00
C637   C     0.73456   0.13208   0.97115   0.00000  Uiso   1.00
C638   C     0.93210   0.20125   0.52885   0.00000  Uiso   1.00
C639   C     0.84235   0.17494   0.97773   0.00000  Uiso   1.00
C640   C     0.82431   0.15839   0.52227   0.00000  Uiso   1.00
Cu641  Cu    0.77404   0.16108   0.74516   0.00000  Uiso   1.00
Cu642  Cu    0.89263   0.17225   0.75483   0.00000  Uiso   1.00
H643   H     0.67013   0.09344   0.52927   0.00000  Uiso   1.00
H644   H     0.99653   0.23990   0.97073   0.00000  Uiso   1.00
H645   H     0.80626   0.14138   0.60983   0.00000  Uiso   1.00
H646   H     0.86041   0.19195   0.89017   0.00000  Uiso   1.00
H647   H     0.97381   0.09881   0.96272   0.00000  Uiso   1.00
H648   H     0.69285   0.23453   0.53728   0.00000  Uiso   1.00
H649   H     0.74486   0.11234   0.57192   0.00000  Uiso   1.00
H650   H     0.92181   0.22099   0.92808   0.00000  Uiso   1.00
H651   H     0.90217   0.01324   0.75572   0.00000  Uiso   1.00
H652   H     0.76450   0.32009   0.74428   0.00000  Uiso   1.00
H653   H     0.66861   0.20621   0.78338   0.00000  Uiso   1.00
H654   H     0.99806   0.12712   0.71662   0.00000  Uiso   1.00
N655   N     0.98173   0.18068   0.76212   0.00000  Uiso   1.00
N656   N     0.68494   0.15265   0.73788   0.00000  Uiso   1.00
O657   O     0.79482   0.23809   0.74686   0.00000  Uiso   1.00
O658   O     0.87185   0.09524   0.75314   0.00000  Uiso   1.00
O659   O     0.89496   0.24753   0.75502   0.00000  Uiso   1.00
O660   O     0.77171   0.08580   0.74498   0.00000  Uiso   1.00
O661   O     0.75518   0.15930   0.80855   0.00000  Uiso   1.00
O662   O     0.91149   0.17403   0.69145   0.00000  Uiso   1.00
O663   O     0.85532   0.16874   0.81671   0.00000  Uiso   1.00
O664   O     0.81134   0.16460   0.68329   0.00000  Uiso   1.00
C665   C     0.68115   0.21395   0.61952   0.00000  Uiso   1.00
O666   O     0.69216   0.18004   0.63914   0.00000  Uiso   1.00
O667   O     0.72073   0.26437   0.61538   0.00000  Uiso   1.00
H668   H     0.75578   0.26826   0.63101   0.00000  Uiso   1.00
C669   C     0.98552   0.11938   0.88048   0.00000  Uiso   1.00
O670   O     0.97451   0.15329   0.86086   0.00000  Uiso   1.00
O671   O     0.94593   0.06897   0.88462   0.00000  Uiso   1.00
H672   H     0.91088   0.06507   0.86899   0.00000  Uiso   1.00
C673   C     0.18173   0.60008   0.75130   0.00000  Uiso   1.00
C674   C     0.15160   0.39992   0.74870   0.00000  Uiso   1.00
C675   C     0.09515   0.46139   0.53935   0.00000  Uiso   1.00
C676   C     0.23819   0.53861   0.96065   0.00000  Uiso   1.00
C677   C     0.05112   0.44936   0.51446   0.00000  Uiso   1.00
C678   C     0.28221   0.55064   0.98553   0.00000  Uiso   1.00
C679   C     0.19019   0.65605   0.75197   0.00000  Uiso   1.00
C680   C     0.14314   0.34395   0.74803   0.00000  Uiso   1.00
C681   C     0.12718   0.49608   0.83345   0.00000  Uiso   1.00
C682   C     0.20616   0.50392   0.66655   0.00000  Uiso   1.00
C683   C     0.10178   0.49056   0.88175   0.00000  Uiso   1.00
C684   C     0.23156   0.50944   0.61825   0.00000  Uiso   1.00
C685   C     0.02226   0.45246   0.94690   0.00000  Uiso   1.00
C686   C     0.31107   0.54754   0.55310   0.00000  Uiso   1.00
C687   C     0.03777   0.46587   0.90272   0.00000  Uiso   1.00
C688   C     0.29556   0.53413   0.59728   0.00000  Uiso   1.00
C689   C     0.14615   0.50575   0.90702   0.00000  Uiso   1.00
C690   C     0.18718   0.49425   0.59298   0.00000  Uiso   1.00
C691   C     0.13050   0.49402   0.95189   0.00000  Uiso   1.00
C692   C     0.20283   0.50598   0.54811   0.00000  Uiso   1.00
C693   C     0.06790   0.46541   0.97115   0.00000  Uiso   1.00
C694   C     0.26544   0.53459   0.52885   0.00000  Uiso   1.00
C695   C     0.17569   0.50827   0.97773   0.00000  Uiso   1.00
C696   C     0.15765   0.49173   0.52227   0.00000  Uiso   1.00
Cu697  Cu    0.10737   0.49441   0.74516   0.00000  Uiso   1.00
Cu698  Cu    0.22596   0.50559   0.75483   0.00000  Uiso   1.00
H699   H     0.00347   0.42677   0.52927   0.00000  Uiso   1.00
H700   H     0.32987   0.57323   0.97073   0.00000  Uiso   1.00
H701   H     0.13959   0.47472   0.60983   0.00000  Uiso   1.00
H702   H     0.19374   0.52528   0.89017   0.00000  Uiso   1.00
H703   H     0.30715   0.43214   0.96272   0.00000  Uiso   1.00
H704   H     0.02619   0.56786   0.53728   0.00000  Uiso   1.00
H705   H     0.07819   0.44568   0.57192   0.00000  Uiso   1.00
H706   H     0.25514   0.55432   0.92808   0.00000  Uiso   1.00
H707   H     0.23550   0.34658   0.75572   0.00000  Uiso   1.00
H708   H     0.09783   0.65342   0.74428   0.00000  Uiso   1.00
H709   H     0.00194   0.53954   0.78338   0.00000  Uiso   1.00
H710   H     0.33139   0.46046   0.71662   0.00000  Uiso   1.00
N711   N     0.31506   0.51401   0.76212   0.00000  Uiso   1.00
N712   N     0.01827   0.48599   0.73788   0.00000  Uiso   1.00
O713   O     0.12815   0.57142   0.74686   0.00000  Uiso   1.00
O714   O     0.20518   0.42858   0.75314   0.00000  Uiso   1.00
O715   O     0.22829   0.58086   0.75502   0.00000  Uiso   1.00
O716   O     0.10504   0.41914   0.74498   0.00000  Uiso   1.00
O717   O     0.08851   0.49263   0.80855   0.00000  Uiso   1.00
O718   O     0.24482   0.50737   0.69145   0.00000  Uiso   1.00
O719   O     0.18866   0.50207   0.81671   0.00000  Uiso   1.00
O720   O     0.14468   0.49793   0.68329   0.00000  Uiso   1.00
C721   C     0.01448   0.54728   0.61952   0.00000  Uiso   1.00
O722   O     0.02549   0.51337   0.63914   0.00000  Uiso   1.00
O723   O     0.05407   0.59770   0.61538   0.00000  Uiso   1.00
H724   H     0.08912   0.60160   0.63101   0.00000  Uiso   1.00
C725   C     0.31885   0.45272   0.88048   0.00000  Uiso   1.00
O726   O     0.30784   0.48663   0.86086   0.00000  Uiso   1.00
O727   O     0.27927   0.40230   0.88462   0.00000  Uiso   1.00
H728   H     0.24422   0.39840   0.86899   0.00000  Uiso   1.00
C729   C     0.51506   0.60008   0.75130   0.00000  Uiso   1.00
C730   C     0.48494   0.39992   0.74870   0.00000  Uiso   1.00
C731   C     0.42848   0.46139   0.53935   0.00000  Uiso   1.00
C732   C     0.57152   0.53861   0.96065   0.00000  Uiso   1.00
C733   C     0.38446   0.44936   0.51446   0.00000  Uiso   1.00
C734   C     0.61554   0.55064   0.98553   0.00000  Uiso   1.00
C735   C     0.52352   0.65605   0.75197   0.00000  Uiso   1.00
C736   C     0.47648   0.34395   0.74803   0.00000  Uiso   1.00
C737   C     0.46051   0.49608   0.83345   0.00000  Uiso   1.00
C738   C     0.53949   0.50392   0.66655   0.00000  Uiso   1.00
C739   C     0.43511   0.49056   0.88175   0.00000  Uiso   1.00
C740   C     0.56489   0.50944   0.61825   0.00000  Uiso   1.00
C741   C     0.35560   0.45246   0.94690   0.00000  Uiso   1.00
C742   C     0.64440   0.54754   0.55310   0.00000  Uiso   1.00
C743   C     0.37110   0.46587   0.90272   0.00000  Uiso   1.00
C744   C     0.62890   0.53413   0.59728   0.00000  Uiso   1.00
C745   C     0.47948   0.50575   0.90702   0.00000  Uiso   1.00
C746   C     0.52052   0.49425   0.59298   0.00000  Uiso   1.00
C747   C     0.46384   0.49402   0.95189   0.00000  Uiso   1.00
C748   C     0.53616   0.50598   0.54811   0.00000  Uiso   1.00
C749   C     0.40123   0.46541   0.97115   0.00000  Uiso   1.00
C750   C     0.59877   0.53459   0.52885   0.00000  Uiso   1.00
C751   C     0.50902   0.50827   0.97773   0.00000  Uiso   1.00
C752   C     0.49098   0.49173   0.52227   0.00000  Uiso   1.00
Cu753  Cu    0.44071   0.49441   0.74516   0.00000  Uiso   1.00
Cu754  Cu    0.55929   0.50559   0.75483   0.00000  Uiso   1.00
H755   H     0.33680   0.42677   0.52927   0.00000  Uiso   1.00
H756   H     0.66320   0.57323   0.97073   0.00000  Uiso   1.00
H757   H     0.47292   0.47472   0.60983   0.00000  Uiso   1.00
H758   H     0.52708   0.52528   0.89017   0.00000  Uiso   1.00
H759   H     0.64048   0.43214   0.96272   0.00000  Uiso   1.00
H760   H     0.35952   0.56786   0.53728   0.00000  Uiso   1.00
H761   H     0.41152   0.44568   0.57192   0.00000  Uiso   1.00
H762   H     0.58848   0.55432   0.92808   0.00000  Uiso   1.00
H763   H     0.56883   0.34658   0.75572   0.00000  Uiso   1.00
H764   H     0.43117   0.65342   0.74428   0.00000  Uiso   1.00
H765   H     0.33528   0.53954   0.78338   0.00000  Uiso   1.00
H766   H     0.66472   0.46046   0.71662   0.00000  Uiso   1.00
N767   N     0.64839   0.51401   0.76212   0.00000  Uiso   1.00
N768   N     0.35161   0.48599   0.73788   0.00000  Uiso   1.00
O769   O     0.46148   0.57142   0.74686   0.00000  Uiso   1.00
O770   O     0.53852   0.42858   0.75314   0.00000  Uiso   1.00
O771   O     0.56163   0.58086   0.75502   0.00000  Uiso   1.00
O772   O     0.43837   0.41914   0.74498   0.00000  Uiso   1.00
O773   O     0.42185   0.49263   0.80855   0.00000  Uiso   1.00
O774   O     0.57815   0.50737   0.69145   0.00000  Uiso   1.00
O775   O     0.52199   0.50207   0.81671   0.00000  Uiso   1.00
O776   O     0.47801   0.49793   0.68329   0.00000  Uiso   1.00
C777   C     0.34781   0.54728   0.61952   0.00000  Uiso   1.00
O778   O     0.35882   0.51337   0.63914   0.00000  Uiso   1.00
O779   O     0.38740   0.59770   0.61538   0.00000  Uiso   1.00
H780   H     0.42245   0.60160   0.63101   0.00000  Uiso   1.00
C781   C     0.65219   0.45272   0.88048   0.00000  Uiso   1.00
O782   O     0.64118   0.48663   0.86086   0.00000  Uiso   1.00
O783   O     0.61260   0.40230   0.88462   0.00000  Uiso   1.00
H784   H     0.57755   0.39840   0.86899   0.00000  Uiso   1.00
C785   C     0.84840   0.60008   0.75130   0.00000  Uiso   1.00
C786   C     0.81827   0.39992   0.74870   0.00000  Uiso   1.00
C787   C     0.76181   0.46139   0.53935   0.00000  Uiso   1.00
C788   C     0.90485   0.53861   0.96065   0.00000  Uiso   1.00
C789   C     0.71779   0.44936   0.51446   0.00000  Uiso   1.00
C790   C     0.94888   0.55064   0.98553   0.00000  Uiso   1.00
C791   C     0.85686   0.65605   0.75197   0.00000  Uiso   1.00
C792   C     0.80981   0.34395   0.74803   0.00000  Uiso   1.00
C793   C     0.79384   0.49608   0.83345   0.00000  Uiso   1.00
C794   C     0.87282   0.50392   0.66655   0.00000  Uiso   1.00
C795   C     0.76845   0.49056   0.88175   0.00000  Uiso   1.00
C796   C     0.89822   0.50944   0.61825   0.00000  Uiso   1.00
C797   C     0.68893   0.45246   0.94690   0.00000  Uiso   1.00
C798   C     0.97774   0.54754   0.55310   0.00000  Uiso   1.00
C799   C     0.70444   0.46587   0.90272   0.00000  Uiso   1.00
C800   C     0.96223   0.53413   0.59728   0.00000  Uiso   1.00
C801   C     0.81282   0.50575   0.90702   0.00000  Uiso   1.00
C802   C     0.85385   0.49425   0.59298   0.00000  Uiso   1.00
C803   C     0.79717   0.49402   0.95189   0.00000  Uiso   1.00
C804   C     0.86950   0.50598   0.54811   0.00000  Uiso   1.00
C805   C     0.73456   0.46541   0.97115   0.00000  Uiso   1.00
C806   C     0.93210   0.53459   0.52885   0.00000  Uiso   1.00
C807   C     0.84235   0.50827   0.97773   0.00000  Uiso   1.00
C808   C     0.82431   0.49173   0.52227   0.00000  Uiso   1.00
Cu809  Cu    0.77404   0.49441   0.74516   0.00000  Uiso   1.00
Cu810  Cu    0.89263   0.50559   0.75483   0.00000  Uiso   1.00
H811   H     0.67013   0.42677   0.52927   0.00000  Uiso   1.00
H812   H     0.99653   0.57323   0.97073   0.00000  Uiso   1.00
H813   H     0.80626   0.47472   0.60983   0.00000  Uiso   1.00
H814   H     0.86041   0.52528   0.89017   0.00000  Uiso   1.00
H815   H     0.97381   0.43214   0.96272   0.00000  Uiso   1.00
H816   H     0.69285   0.56786   0.53728   0.00000  Uiso   1.00
H817   H     0.74486   0.44568   0.57192   0.00000  Uiso   1.00
H818   H     0.92181   0.55432   0.92808   0.00000  Uiso   1.00
H819   H     0.90217   0.34658   0.75572   0.00000  Uiso   1.00
H820   H     0.76450   0.65342   0.74428   0.00000  Uiso   1.00
H821   H     0.66861   0.53954   0.78338   0.00000  Uiso   1.00
H822   H     0.99806   0.46046   0.71662   0.00000  Uiso   1.00
N823   N     0.98173   0.51401   0.76212   0.00000  Uiso   1.00
N824   N     0.68494   0.48599   0.73788   0.00000  Uiso   1.00
O825   O     0.79482   0.57142   0.74686   0.00000  Uiso   1.00
O826   O     0.87185   0.42858   0.75314   0.00000  Uiso   1.00
O827   O     0.89496   0.58086   0.75502   0.00000  Uiso   1.00
O828   O     0.77171   0.41914   0.74498   0.00000  Uiso   1.00
O829   O     0.75518   0.49263   0.80855   0.00000  Uiso   1.00
O830   O     0.91149   0.50737   0.69145   0.00000  Uiso   1.00
O831   O     0.85532   0.50207   0.81671   0.00000  Uiso   1.00
O832   O     0.81134   0.49793   0.68329   0.00000  Uiso   1.00
C833   C     0.68115   0.54728   0.61952   0.00000  Uiso   1.00
O834   O     0.69216   0.51337   0.63914   0.00000  Uiso   1.00
O835   O     0.72073   0.59770   0.61538   0.00000  Uiso   1.00
H836   H     0.75578   0.60160   0.63101   0.00000  Uiso   1.00
C837   C     0.98552   0.45272   0.88048   0.00000  Uiso   1.00
O838   O     0.97451   0.48663   0.86086   0.00000  Uiso   1.00
O839   O     0.94593   0.40230   0.88462   0.00000  Uiso   1.00
H840   H     0.91088   0.39840   0.86899   0.00000  Uiso   1.00
C841   C     0.18173   0.93341   0.75130   0.00000  Uiso   1.00
C842   C     0.15160   0.73325   0.74870   0.00000  Uiso   1.00
C843   C     0.09515   0.79472   0.53935   0.00000  Uiso   1.00
C844   C     0.23819   0.87195   0.96065   0.00000  Uiso   1.00
C845   C     0.05112   0.78270   0.51446   0.00000  Uiso   1.00
C846   C     0.28221   0.88397   0.98553   0.00000  Uiso   1.00
C847   C     0.19019   0.98939   0.75197   0.00000  Uiso   1.00
C848   C     0.14314   0.67728   0.74803   0.00000  Uiso   1.00
C849   C     0.12718   0.82941   0.83345   0.00000  Uiso   1.00
C850   C     0.20616   0.83725   0.66655   0.00000  Uiso   1.00
C851   C     0.10178   0.82389   0.88175   0.00000  Uiso   1.00
C852   C     0.23156   0.84278   0.61825   0.00000  Uiso   1.00
C853   C     0.02226   0.78579   0.94690   0.00000  Uiso   1.00
C854   C     0.31107   0.88088   0.55310   0.00000  Uiso   1.00
C855   C     0.03777   0.79921   0.90272   0.00000  Uiso   1.00
C856   C     0.29556   0.86746   0.59728   0.00000  Uiso   1.00
C857   C     0.14615   0.83908   0.90702   0.00000  Uiso   1.00
C858   C     0.18718   0.82758   0.59298   0.00000  Uiso   1.00
C859   C     0.13050   0.82735   0.95189   0.00000  Uiso   1.00
C860   C     0.20283   0.83931   0.54811   0.00000  Uiso   1.00
C861   C     0.06790   0.79875   0.97115   0.00000  Uiso   1.00
C862   C     0.26544   0.86792   0.52885   0.00000  Uiso   1.00
C863   C     0.17569   0.84161   0.97773   0.00000  Uiso   1.00
C864   C     0.15765   0.82506   0.52227   0.00000  Uiso   1.00
Cu865  Cu    0.10737   0.82775   0.74516   0.00000  Uiso   1.00
Cu866  Cu    0.22596   0.83892   0.75483   0.00000  Uiso   1.00
H867   H     0.00347   0.76010   0.52927   0.00000  Uiso   1.00
H868   H     0.32987   0.90656   0.97073   0.00000  Uiso   1.00
H869   H     0.13959   0.80805   0.60983   0.00000  Uiso   1.00
H870   H     0.19374   0.85862   0.89017   0.00000  Uiso   1.00
H871   H     0.30715   0.76547   0.96272   0.00000  Uiso   1.00
H872   H     0.02619   0.90119   0.53728   0.00000  Uiso   1.00
H873   H     0.07819   0.77901   0.57192   0.00000  Uiso   1.00
H874   H     0.25514   0.88766   0.92808   0.00000  Uiso   1.00
H875   H     0.23550   0.67991   0.75572   0.00000  Uiso   1.00
H876   H     0.09783   0.98676   0.74428   0.00000  Uiso   1.00
H877   H     0.00194   0.87288   0.78338   0.00000  Uiso   1.00
H878   H     0.33139   0.79379   0.71662   0.00000  Uiso   1.00
N879   N     0.31506   0.84735   0.76212   0.00000  Uiso   1.00
N880   N     0.01827   0.81932   0.73788   0.00000  Uiso   1.00
O881   O     0.12815   0.90476   0.74686   0.00000  Uiso   1.00
O882   O     0.20518   0.76191   0.75314   0.00000  Uiso   1.00
O883   O     0.22829   0.91420   0.75502   0.00000  Uiso   1.00
O884   O     0.10504   0.75247   0.74498   0.00000  Uiso   1.00
O885   O     0.08851   0.82597   0.80855   0.00000  Uiso   1.00
O886   O     0.24482   0.84070   0.69145   0.00000  Uiso   1.00
O887   O     0.18866   0.83540   0.81671   0.00000  Uiso   1.00
O888   O     0.14468   0.83126   0.68329   0.00000  Uiso   1.00
C889   C     0.01448   0.88062   0.61952   0.00000  Uiso   1.00
O890   O     0.02549   0.84671   0.63914   0.00000  Uiso   1.00
O891   O     0.05407   0.93103   0.61538   0.00000  Uiso   1.00
H892   H     0.08912   0.93493   0.63101   0.00000  Uiso   1.00
C893   C     0.31885   0.78605   0.88048   0.00000  Uiso   1.00
O894   O     0.30784   0.81996   0.86086   0.00000  Uiso   1.00
O895   O     0.27927   0.73563   0.88462   0.00000  Uiso   1.00
H896   H     0.24422   0.73174   0.86899   0.00000  Uiso   1.00
C897   C     0.51506   0.93341   0.75130   0.00000  Uiso   1.00
C898   C     0.48494   0.73325   0.74870   0.00000  Uiso   1.00
C899   C     0.42848   0.79472   0.53935   0.00000  Uiso   1.00
C900   C     0.57152   0.87195   0.96065   0.00000  Uiso   1.00
C901   C     0.38446   0.78270   0.51446   0.00000  Uiso   1.00
C902   C     0.61554   0.88397   0.98553   0.00000  Uiso   1.00
C903   C     0.52352   0.98939   0.75197   0.00000  Uiso   1.00
C904   C     0.47648   0.67728   0.74803   0.00000  Uiso   1.00
C905   C     0.46051   0.82941   0.83345   0.00000  Uiso   1.00
C906   C     0.53949   0.83725   0.66655   0.00000  Uiso   1.00
C907   C     0.43511   0.82389   0.88175   0.00000  Uiso   1.00
C908   C     0.56489   0.84278   0.61825   0.00000  Uiso   1.00
C909   C     0.35560   0.78579   0.94690   0.00000  Uiso   1.00
C910   C     0.64440   0.88088   0.55310   0.00000  Uiso   1.00
C911   C     0.37110   0.79921   0.90272   0.00000  Uiso   1.00
C912   C     0.62890   0.86746   0.59728   0.00000  Uiso   1.00
C913   C     0.47948   0.83908   0.90702   0.00000  Uiso   1.00
C914   C     0.52052   0.82758   0.59298   0.00000  Uiso   1.00
C915   C     0.46384   0.82735   0.95189   0.00000  Uiso   1.00
C916   C     0.53616   0.83931   0.54811   0.00000  Uiso   1.00
C917   C     0.40123   0.79875   0.97115   0.00000  Uiso   1.00
C918   C     0.59877   0.86792   0.52885   0.00000  Uiso   1.00
C919   C     0.50902   0.84161   0.97773   0.00000  Uiso   1.00
C920   C     0.49098   0.82506   0.52227   0.00000  Uiso   1.00
Cu921  Cu    0.44071   0.82775   0.74516   0.00000  Uiso   1.00
Cu922  Cu    0.55929   0.83892   0.75483   0.00000  Uiso   1.00
H923   H     0.33680   0.76010   0.52927   0.00000  Uiso   1.00
H924   H     0.66320   0.90656   0.97073   0.00000  Uiso   1.00
H925   H     0.47292   0.80805   0.60983   0.00000  Uiso   1.00
H926   H     0.52708   0.85862   0.89017   0.00000  Uiso   1.00
H927   H     0.64048   0.76547   0.96272   0.00000  Uiso   1.00
H928   H     0.35952   0.90119   0.53728   0.00000  Uiso   1.00
H929   H     0.41152   0.77901   0.57192   0.00000  Uiso   1.00
H930   H     0.58848   0.88766   0.92808   0.00000  Uiso   1.00
H931   H     0.56883   0.67991   0.75572   0.00000  Uiso   1.00
H932   H     0.43117   0.98676   0.74428   0.00000  Uiso   1.00
H933   H     0.33528   0.87288   0.78338   0.00000  Uiso   1.00
H934   H     0.66472   0.79379   0.71662   0.00000  Uiso   1.00
N935   N     0.64839   0.84735   0.76212   0.00000  Uiso   1.00
N936   N     0.35161   0.81932   0.73788   0.00000  Uiso   1.00
O937   O     0.46148   0.90476   0.74686   0.00000  Uiso   1.00
O938   O     0.53852   0.76191   0.75314   0.00000  Uiso   1.00
O939   O     0.56163   0.91420   0.75502   0.00000  Uiso   1.00
O940   O     0.43837   0.75247   0.74498   0.00000  Uiso   1.00
O941   O     0.42185   0.82597   0.80855   0.00000  Uiso   1.00
O942   O     0.57815   0.84070   0.69145   0.00000  Uiso   1.00
O943   O     0.52199   0.83540   0.81671   0.00000  Uiso   1.00
O944   O     0.47801   0.83126   0.68329   0.00000  Uiso   1.00
C945   C     0.34781   0.88062   0.61952   0.00000  Uiso   1.00
O946   O     0.35882   0.84671   0.63914   0.00000  Uiso   1.00
O947   O     0.38740   0.93103   0.61538   0.00000  Uiso   1.00
H948   H     0.42245   0.93493   0.63101   0.00000  Uiso   1.00
C949   C     0.65219   0.78605   0.88048   0.00000  Uiso   1.00
O950   O     0.64118   0.81996   0.86086   0.00000  Uiso   1.00
O951   O     0.61260   0.73563   0.88462   0.00000  Uiso   1.00
H952   H     0.57755   0.73174   0.86899   0.00000  Uiso   1.00
C953   C     0.84840   0.93341   0.75130   0.00000  Uiso   1.00
C954   C     0.81827   0.73325   0.74870   0.00000  Uiso   1.00
C955   C     0.76181   0.79472   0.53935   0.00000  Uiso   1.00
C956   C     0.90485   0.87195   0.96065   0.00000  Uiso   1.00
C957   C     0.71779   0.78270   0.51446   0.00000  Uiso   1.00
C958   C     0.94888   0.88397   0.98553   0.00000  Uiso   1.00
C959   C     0.85686   0.98939   0.75197   0.00000  Uiso   1.00
C960   C     0.80981   0.67728   0.74803   0.00000  Uiso   1.00
C961   C     0.79384   0.82941   0.83345   0.00000  Uiso   1.00
C962   C     0.87282   0.83725   0.66655   0.00000  Uiso   1.00
C963   C     0.76845   0.82389   0.88175   0.00000  Uiso   1.00
C964   C     0.89822   0.84278   0.61825   0.00000  Uiso   1.00
C965   C     0.68893   0.78579   0.94690   0.00000  Uiso   1.00
C966   C     0.97774   0.88088   0.55310   0.00000  Uiso   1.00
C967   C     0.70444   0.79921   0.90272   0.00000  Uiso   1.00
C968   C     0.96223   0.86746   0.59728   0.00000  Uiso   1.00
C969   C     0.81282   0.83908   0.90702   0.00000  Uiso   1.00
C970   C     0.85385   0.82758   0.59298   0.00000  Uiso   1.00
C971   C     0.79717   0.82735   0.95189   0.00000  Uiso   1.00
C972   C     0.86950   0.83931   0.54811   0.00000  Uiso   1.00
C973   C     0.73456   0.79875   0.97115   0.00000  Uiso   1.00
C974   C     0.93210   0.86792   0.52885   0.00000  Uiso   1.00
C975   C     0.84235   0.84161   0.97773   0.00000  Uiso   1.00
C976   C     0.82431   0.82506   0.52227   0.00000  Uiso   1.00
Cu977  Cu    0.77404   0.82775   0.74516   0.00000  Uiso   1.00
Cu978  Cu    0.89263   0.83892   0.75483   0.00000  Uiso   1.00
H979   H     0.67013   0.76010   0.52927   0.00000  Uiso   1.00
H980   H     0.99653   0.90656   0.97073   0.00000  Uiso   1.00
H981   H     0.80626   0.80805   0.60983   0.00000  Uiso   1.00
H982   H     0.86041   0.85862   0.89017   0.00000  Uiso   1.00
H983   H     0.97381   0.76547   0.96272   0.00000  Uiso   1.00
H984   H     0.69285   0.90119   0.53728   0.00000  Uiso   1.00
H985   H     0.74486   0.77901   0.57192   0.00000  Uiso   1.00
H986   H     0.92181   0.88766   0.92808   0.00000  Uiso   1.00
H987   H     0.90217   0.67991   0.75572   0.00000  Uiso   1.00
H988   H     0.76450   0.98676   0.74428   0.00000  Uiso   1.00
H989   H     0.66861   0.87288   0.78338   0.00000  Uiso   1.00
H990   H     0.99806   0.79379   0.71662   0.00000  Uiso   1.00
N991   N     0.98173   0.84735   0.76212   0.00000  Uiso   1.00
N992   N     0.68494   0.81932   0.73788   0.00000  Uiso   1.00
O993   O     0.79482   0.90476   0.74686   0.00000  Uiso   1.00
O994   O     0.87185   0.76191   0.75314   0.00000  Uiso   1.00
O995   O     0.89496   0.91420   0.75502   0.00000  Uiso   1.00
O996   O     0.77171   0.75247   0.74498   0.00000  Uiso   1.00
O997   O     0.75518   0.82597   0.80855   0.00000  Uiso   1.00
O998   O     0.91149   0.84070   0.69145   0.00000  Uiso   1.00
O999   O     0.85532   0.83540   0.81671   0.00000  Uiso   1.00
O1000  O     0.81134   0.83126   0.68329   0.00000  Uiso   1.00
C1001  C     0.68115   0.88062   0.61952   0.00000  Uiso   1.00
O1002  O     0.69216   0.84671   0.63914   0.00000  Uiso   1.00
O1003  O     0.72073   0.93103   0.61538   0.00000  Uiso   1.00
H1004  H     0.75578   0.93493   0.63101   0.00000  Uiso   1.00
C1005  C     0.98552   0.78605   0.88048   0.00000  Uiso   1.00
O1006  O     0.97451   0.81996   0.86086   0.00000  Uiso   1.00
O1007  O     0.94593   0.73563   0.88462   0.00000  Uiso   1.00
H1008  H     0.91088   0.73174   0.86899   0.00000  Uiso   1.00
loop_
_geom_bond_atom_site_label_1
_geom_bond_atom_site_label_2
_geom_bond_distance
_geom_bond_site_symmetry_2
_ccdc_geom_bond_type
C1     O43     1.285   .     A
C1     C7      1.428   .     S
C1     O41     1.290   .     A
C2     O44     1.285   .     A
C2     O42     1.290   .     A
C2     C8      1.428   .     S
C3     C5      1.385   .     A
C3     C24     1.416   .     A
C3     H33     1.075   .     S
C4     H34     1.075   .     S
C4     C6      1.385   .     A
C4     C23     1.416   .     A
C5     H27     1.085   .     S
C5     C525    1.390   1_554 S
C6     H28     1.085   .     S
C6     C526    1.390   .     S
C7     C176    1.329   .     S
C7     H203    1.088   .     S
C8     C343    1.329   1_545 S
C8     H372    1.088   1_545 S
C9     O45     1.300   .     A
C9     C11     1.485   .     S
C9     O47     1.303   .     A
C10    O46     1.300   .     A
C10    C12     1.485   .     S
C10    O48     1.303   .     A
C11    C17     1.404   .     A
C11    C15     1.419   .     A
C12    C18     1.404   .     A
C12    C16     1.419   .     A
C13    C21     1.400   .     A
C13    C15     1.398   .     A
C13    H143    1.086   1_455 S
C14    C16     1.398   .     A
C14    C22     1.400   .     A
C14    H88     1.086   .     S
C15    C165    1.479   1_455 S
C16    C105    1.479   .     S
C17    H30     1.073   .     S
C17    C19     1.408   .     A
C18    H29     1.073   .     S
C18    C20     1.408   .     A
C19    C23     1.431   .     A
C19    C21     1.414   .     A
C20    C22     1.414   .     A
C20    C24     1.431   .     A
C21    C509    1.390   .     S
C22    C510    1.390   1_554 S
C23    C528    1.428   .     S
C24    C527    1.428   1_554 S
Cu25   O48     1.910   .     S
Cu25   O44     1.952   .     S
Cu25   N40     2.018   .     S
Cu25   O41     1.956   .     S
Cu25   O45     1.938   .     S
Cu25   Cu26    2.685   .     S
Cu26   O47     1.910   .     S
Cu26   O43     1.952   .     S
Cu26   N39     2.018   .     S
Cu26   O42     1.956   .     S
Cu26   O46     1.938   .     S
H31    C69     1.086   .     S
H32    C126    1.086   1_455 S
H35    C343    1.088   1_545 S
H36    C176    1.088   .     S
H37    N151    1.029   1_455 S
H38    N96     1.029   .     S
N39    H93     1.029   .     S
N39    N96     1.279   .     S
N40    H150    1.029   1_455 S
N40    N151    1.279   1_455 S
C49    O50     1.222   .     D
C49    O51     1.398   .     S
C49    C128    1.479   1_455 S
O51    H52     1.014   .     S
C53    O55     1.398   .     S
C53    O54     1.222   .     D
C53    C71     1.479   .     S
O55    H56     1.014   .     S
C57    O99     1.285   .     A
C57    C63     1.428   .     S
C57    O97     1.290   .     A
C58    O100    1.285   .     A
C58    O98     1.290   .     A
C58    C64     1.428   .     S
C59    C61     1.385   .     A
C59    C80     1.416   .     A
C59    H89     1.075   .     S
C60    H90     1.075   .     S
C60    C62     1.385   .     A
C60    C79     1.416   .     A
C61    H83     1.085   .     S
C61    C581    1.390   1_554 S
C62    H84     1.085   .     S
C62    C582    1.390   .     S
C63    C232    1.329   .     S
C63    H259    1.088   .     S
C64    C399    1.329   1_545 S
C64    H428    1.088   1_545 S
C65    O101    1.300   .     A
C65    C67     1.485   .     S
C65    O103    1.303   .     A
C66    O102    1.300   .     A
C66    C68     1.485   .     S
C66    O104    1.303   .     A
C67    C73     1.404   .     A
C67    C71     1.419   .     A
C68    C74     1.404   .     A
C68    C72     1.419   .     A
C69    C77     1.400   .     A
C69    C71     1.398   .     A
C70    C72     1.398   .     A
C70    C78     1.400   .     A
C70    H144    1.086   .     S
C72    C161    1.479   .     S
C73    H86     1.073   .     S
C73    C75     1.408   .     A
C74    H85     1.073   .     S
C74    C76     1.408   .     A
C75    C79     1.431   .     A
C75    C77     1.414   .     A
C76    C78     1.414   .     A
C76    C80     1.431   .     A
C77    C565    1.390   .     S
C78    C566    1.390   1_554 S
C79    C584    1.428   .     S
C80    C583    1.428   1_554 S
Cu81   O104    1.910   .     S
Cu81   O100    1.952   .     S
Cu81   N96     2.018   .     S
Cu81   O97     1.956   .     S
Cu81   O101    1.938   .     S
Cu81   Cu82    2.685   .     S
Cu82   O103    1.910   .     S
Cu82   O99     1.952   .     S
Cu82   N95     2.018   .     S
Cu82   O98     1.956   .     S
Cu82   O102    1.938   .     S
H87    C125    1.086   .     S
H91    C399    1.088   1_545 S
H92    C232    1.088   .     S
H94    N152    1.029   .     S
N95    H149    1.029   .     S
N95    N152    1.279   .     S
C105   O106    1.222   .     D
C105   O107    1.398   .     S
O107   H108    1.014   .     S
C109   O111    1.398   .     S
C109   O110    1.222   .     D
C109   C127    1.479   .     S
O111   H112    1.014   .     S
C113   O155    1.285   .     A
C113   C119    1.428   .     S
C113   O153    1.290   .     A
C114   O156    1.285   .     A
C114   O154    1.290   .     A
C114   C120    1.428   .     S
C115   C117    1.385   .     A
C115   C136    1.416   .     A
C115   H145    1.075   .     S
C116   H146    1.075   .     S
C116   C118    1.385   .     A
C116   C135    1.416   .     A
C117   H139    1.085   .     S
C117   C637    1.390   1_554 S
C118   H140    1.085   .     S
C118   C638    1.390   .     S
C119   C288    1.329   .     S
C119   H315    1.088   .     S
C120   C455    1.329   1_545 S
C120   H484    1.088   1_545 S
C121   O157    1.300   .     A
C121   C123    1.485   .     S
C121   O159    1.303   .     A
C122   O158    1.300   .     A
C122   C124    1.485   .     S
C122   O160    1.303   .     A
C123   C129    1.404   .     A
C123   C127    1.419   .     A
C124   C130    1.404   .     A
C124   C128    1.419   .     A
C125   C133    1.400   .     A
C125   C127    1.398   .     A
C126   C128    1.398   .     A
C126   C134    1.400   .     A
C126   H32     1.086   1_655 S
C128   C49     1.479   1_655 S
C129   H142    1.073   .     S
C129   C131    1.408   .     A
C130   H141    1.073   .     S
C130   C132    1.408   .     A
C131   C135    1.431   .     A
C131   C133    1.414   .     A
C132   C134    1.414   .     A
C132   C136    1.431   .     A
C133   C621    1.390   .     S
C134   C622    1.390   1_554 S
C135   C640    1.428   .     S
C136   C639    1.428   1_554 S
Cu137  O160    1.910   .     S
Cu137  O156    1.952   .     S
Cu137  N152    2.018   .     S
Cu137  O153    1.956   .     S
Cu137  O157    1.938   .     S
Cu137  Cu138   2.685   .     S
Cu138  O159    1.910   .     S
Cu138  O155    1.952   .     S
Cu138  N151    2.018   .     S
Cu138  O154    1.956   .     S
Cu138  O158    1.938   .     S
H143   C13     1.086   1_655 S
H147   C455    1.088   1_545 S
H148   C288    1.088   .     S
H150   N40     1.029   1_655 S
N151   H37     1.029   1_655 S
N151   N40     1.279   1_655 S
C161   O162    1.222   .     D
C161   O163    1.398   .     S
O163   H164    1.014   .     S
C165   O167    1.398   .     S
C165   O166    1.222   .     D
C165   C15     1.479   1_655 S
O167   H168    1.014   .     S
C169   O211    1.285   .     A
C169   C175    1.428   .     S
C169   O209    1.290   .     A
C170   O212    1.285   .     A
C170   O210    1.290   .     A
C170   C176    1.428   .     S
C171   C173    1.385   .     A
C171   C192    1.416   .     A
C171   H201    1.075   .     S
C172   H202    1.075   .     S
C172   C174    1.385   .     A
C172   C191    1.416   .     A
C173   H195    1.085   .     S
C173   C693    1.390   1_554 S
C174   H196    1.085   .     S
C174   C694    1.390   .     S
C175   C344    1.329   .     S
C175   H371    1.088   .     S
C177   O213    1.300   .     A
C177   C179    1.485   .     S
C177   O215    1.303   .     A
C178   O214    1.300   .     A
C178   C180    1.485   .     S
C178   O216    1.303   .     A
C179   C185    1.404   .     A
C179   C183    1.419   .     A
C180   C186    1.404   .     A
C180   C184    1.419   .     A
C181   C189    1.400   .     A
C181   C183    1.398   .     A
C181   H311    1.086   1_455 S
C182   C184    1.398   .     A
C182   C190    1.400   .     A
C182   H256    1.086   .     S
C183   C333    1.479   1_455 S
C184   C273    1.479   .     S
C185   H198    1.073   .     S
C185   C187    1.408   .     A
C186   H197    1.073   .     S
C186   C188    1.408   .     A
C187   C191    1.431   .     A
C187   C189    1.414   .     A
C188   C190    1.414   .     A
C188   C192    1.431   .     A
C189   C677    1.390   .     S
C190   C678    1.390   1_554 S
C191   C696    1.428   .     S
C192   C695    1.428   1_554 S
Cu193  O216    1.910   .     S
Cu193  O212    1.952   .     S
Cu193  N208    2.018   .     S
Cu193  O209    1.956   .     S
Cu193  O213    1.938   .     S
Cu193  Cu194   2.685   .     S
Cu194  O215    1.910   .     S
Cu194  O211    1.952   .     S
Cu194  N207    2.018   .     S
Cu194  O210    1.956   .     S
Cu194  O214    1.938   .     S
H199   C237    1.086   .     S
H200   C294    1.086   1_455 S
H204   C344    1.088   .     S
H205   N319    1.029   1_455 S
H206   N264    1.029   .     S
N207   H261    1.029   .     S
N207   N264    1.279   .     S
N208   H318    1.029   1_455 S
N208   N319    1.279   1_455 S
C217   O218    1.222   .     D
C217   O219    1.398   .     S
C217   C296    1.479   1_455 S
O219   H220    1.014   .     S
C221   O223    1.398   .     S
C221   O222    1.222   .     D
C221   C239    1.479   .     S
O223   H224    1.014   .     S
C225   O267    1.285   .     A
C225   C231    1.428   .     S
C225   O265    1.290   .     A
C226   O268    1.285   .     A
C226   O266    1.290   .     A
C226   C232    1.428   .     S
C227   C229    1.385   .     A
C227   C248    1.416   .     A
C227   H257    1.075   .     S
C228   H258    1.075   .     S
C228   C230    1.385   .     A
C228   C247    1.416   .     A
C229   H251    1.085   .     S
C229   C749    1.390   1_554 S
C230   H252    1.085   .     S
C230   C750    1.390   .     S
C231   C400    1.329   .     S
C231   H427    1.088   .     S
C233   O269    1.300   .     A
C233   C235    1.485   .     S
C233   O271    1.303   .     A
C234   O270    1.300   .     A
C234   C236    1.485   .     S
C234   O272    1.303   .     A
C235   C241    1.404   .     A
C235   C239    1.419   .     A
C236   C242    1.404   .     A
C236   C240    1.419   .     A
C237   C245    1.400   .     A
C237   C239    1.398   .     A
C238   C240    1.398   .     A
C238   C246    1.400   .     A
C238   H312    1.086   .     S
C240   C329    1.479   .     S
C241   H254    1.073   .     S
C241   C243    1.408   .     A
C242   H253    1.073   .     S
C242   C244    1.408   .     A
C243   C247    1.431   .     A
C243   C245    1.414   .     A
C244   C246    1.414   .     A
C244   C248    1.431   .     A
C245   C733    1.390   .     S
C246   C734    1.390   1_554 S
C247   C752    1.428   .     S
C248   C751    1.428   1_554 S
Cu249  O272    1.910   .     S
Cu249  O268    1.952   .     S
Cu249  N264    2.018   .     S
Cu249  O265    1.956   .     S
Cu249  O269    1.938   .     S
Cu249  Cu250   2.685   .     S
Cu250  O271    1.910   .     S
Cu250  O267    1.952   .     S
Cu250  N263    2.018   .     S
Cu250  O266    1.956   .     S
Cu250  O270    1.938   .     S
H255   C293    1.086   .     S
H260   C400    1.088   .     S
H262   N320    1.029   .     S
N263   H317    1.029   .     S
N263   N320    1.279   .     S
C273   O274    1.222   .     D
C273   O275    1.398   .     S
O275   H276    1.014   .     S
C277   O279    1.398   .     S
C277   O278    1.222   .     D
C277   C295    1.479   .     S
O279   H280    1.014   .     S
C281   O323    1.285   .     A
C281   C287    1.428   .     S
C281   O321    1.290   .     A
C282   O324    1.285   .     A
C282   O322    1.290   .     A
C282   C288    1.428   .     S
C283   C285    1.385   .     A
C283   C304    1.416   .     A
C283   H313    1.075   .     S
C284   H314    1.075   .     S
C284   C286    1.385   .     A
C284   C303    1.416   .     A
C285   H307    1.085   .     S
C285   C805    1.390   1_554 S
C286   H308    1.085   .     S
C286   C806    1.390   .     S
C287   C456    1.329   .     S
C287   H483    1.088   .     S
C289   O325    1.300   .     A
C289   C291    1.485   .     S
C289   O327    1.303   .     A
C290   O326    1.300   .     A
C290   C292    1.485   .     S
C290   O328    1.303   .     A
C291   C297    1.404   .     A
C291   C295    1.419   .     A
C292   C298    1.404   .     A
C292   C296    1.419   .     A
C293   C301    1.400   .     A
C293   C295    1.398   .     A
C294   C296    1.398   .     A
C294   C302    1.400   .     A
C294   H200    1.086   1_655 S
C296   C217    1.479   1_655 S
C297   H310    1.073   .     S
C297   C299    1.408   .     A
C298   H309    1.073   .     S
C298   C300    1.408   .     A
C299   C303    1.431   .     A
C299   C301    1.414   .     A
C300   C302    1.414   .     A
C300   C304    1.431   .     A
C301   C789    1.390   .     S
C302   C790    1.390   1_554 S
C303   C808    1.428   .     S
C304   C807    1.428   1_554 S
Cu305  O328    1.910   .     S
Cu305  O324    1.952   .     S
Cu305  N320    2.018   .     S
Cu305  O321    1.956   .     S
Cu305  O325    1.938   .     S
Cu305  Cu306   2.685   .     S
Cu306  O327    1.910   .     S
Cu306  O323    1.952   .     S
Cu306  N319    2.018   .     S
Cu306  O322    1.956   .     S
Cu306  O326    1.938   .     S
H311   C181    1.086   1_655 S
H316   C456    1.088   .     S
H318   N208    1.029   1_655 S
N319   H205    1.029   1_655 S
N319   N208    1.279   1_655 S
C329   O330    1.222   .     D
C329   O331    1.398   .     S
O331   H332    1.014   .     S
C333   O335    1.398   .     S
C333   O334    1.222   .     D
C333   C183    1.479   1_655 S
O335   H336    1.014   .     S
C337   O379    1.285   .     A
C337   C343    1.428   .     S
C337   O377    1.290   .     A
C338   O380    1.285   .     A
C338   O378    1.290   .     A
C338   C344    1.428   .     S
C339   C341    1.385   .     A
C339   C360    1.416   .     A
C339   H369    1.075   .     S
C340   H370    1.075   .     S
C340   C342    1.385   .     A
C340   C359    1.416   .     A
C341   H363    1.085   .     S
C341   C861    1.390   1_554 S
C342   H364    1.085   .     S
C342   C862    1.390   .     S
C343   C8      1.329   1_565 S
C343   H35     1.088   1_565 S
C345   O381    1.300   .     A
C345   C347    1.485   .     S
C345   O383    1.303   .     A
C346   O382    1.300   .     A
C346   C348    1.485   .     S
C346   O384    1.303   .     A
C347   C353    1.404   .     A
C347   C351    1.419   .     A
C348   C354    1.404   .     A
C348   C352    1.419   .     A
C349   C357    1.400   .     A
C349   C351    1.398   .     A
C349   H479    1.086   1_455 S
C350   C352    1.398   .     A
C350   C358    1.400   .     A
C350   H424    1.086   .     S
C351   C501    1.479   1_455 S
C352   C441    1.479   .     S
C353   H366    1.073   .     S
C353   C355    1.408   .     A
C354   H365    1.073   .     S
C354   C356    1.408   .     A
C355   C359    1.431   .     A
C355   C357    1.414   .     A
C356   C358    1.414   .     A
C356   C360    1.431   .     A
C357   C845    1.390   .     S
C358   C846    1.390   1_554 S
C359   C864    1.428   .     S
C360   C863    1.428   1_554 S
Cu361  O384    1.910   .     S
Cu361  O380    1.952   .     S
Cu361  N376    2.018   .     S
Cu361  O377    1.956   .     S
Cu361  O381    1.938   .     S
Cu361  Cu362   2.685   .     S
Cu362  O383    1.910   .     S
Cu362  O379    1.952   .     S
Cu362  N375    2.018   .     S
Cu362  O378    1.956   .     S
Cu362  O382    1.938   .     S
H367   C405    1.086   .     S
H368   C462    1.086   1_455 S
H372   C8      1.088   1_565 S
H373   N487    1.029   1_455 S
H374   N432    1.029   .     S
N375   H429    1.029   .     S
N375   N432    1.279   .     S
N376   H486    1.029   1_455 S
N376   N487    1.279   1_455 S
C385   O386    1.222   .     D
C385   O387    1.398   .     S
C385   C464    1.479   1_455 S
O387   H388    1.014   .     S
C389   O391    1.398   .     S
C389   O390    1.222   .     D
C389   C407    1.479   .     S
O391   H392    1.014   .     S
C393   O435    1.285   .     A
C393   C399    1.428   .     S
C393   O433    1.290   .     A
C394   O436    1.285   .     A
C394   O434    1.290   .     A
C394   C400    1.428   .     S
C395   C397    1.385   .     A
C395   C416    1.416   .     A
C395   H425    1.075   .     S
C396   H426    1.075   .     S
C396   C398    1.385   .     A
C396   C415    1.416   .     A
C397   H419    1.085   .     S
C397   C917    1.390   1_554 S
C398   H420    1.085   .     S
C398   C918    1.390   .     S
C399   C64     1.329   1_565 S
C399   H91     1.088   1_565 S
C401   O437    1.300   .     A
C401   C403    1.485   .     S
C401   O439    1.303   .     A
C402   O438    1.300   .     A
C402   C404    1.485   .     S
C402   O440    1.303   .     A
C403   C409    1.404   .     A
C403   C407    1.419   .     A
C404   C410    1.404   .     A
C404   C408    1.419   .     A
C405   C413    1.400   .     A
C405   C407    1.398   .     A
C406   C408    1.398   .     A
C406   C414    1.400   .     A
C406   H480    1.086   .     S
C408   C497    1.479   .     S
C409   H422    1.073   .     S
C409   C411    1.408   .     A
C410   H421    1.073   .     S
C410   C412    1.408   .     A
C411   C415    1.431   .     A
C411   C413    1.414   .     A
C412   C414    1.414   .     A
C412   C416    1.431   .     A
C413   C901    1.390   .     S
C414   C902    1.390   1_554 S
C415   C920    1.428   .     S
C416   C919    1.428   1_554 S
Cu417  O440    1.910   .     S
Cu417  O436    1.952   .     S
Cu417  N432    2.018   .     S
Cu417  O433    1.956   .     S
Cu417  O437    1.938   .     S
Cu417  Cu418   2.685   .     S
Cu418  O439    1.910   .     S
Cu418  O435    1.952   .     S
Cu418  N431    2.018   .     S
Cu418  O434    1.956   .     S
Cu418  O438    1.938   .     S
H423   C461    1.086   .     S
H428   C64     1.088   1_565 S
H430   N488    1.029   .     S
N431   H485    1.029   .     S
N431   N488    1.279   .     S
C441   O442    1.222   .     D
C441   O443    1.398   .     S
O443   H444    1.014   .     S
C445   O447    1.398   .     S
C445   O446    1.222   .     D
C445   C463    1.479   .     S
O447   H448    1.014   .     S
C449   O491    1.285   .     A
C449   C455    1.428   .     S
C449   O489    1.290   .     A
C450   O492    1.285   .     A
C450   O490    1.290   .     A
C450   C456    1.428   .     S
C451   C453    1.385   .     A
C451   C472    1.416   .     A
C451   H481    1.075   .     S
C452   H482    1.075   .     S
C452   C454    1.385   .     A
C452   C471    1.416   .     A
C453   H475    1.085   .     S
C453   C973    1.390   1_554 S
C454   H476    1.085   .     S
C454   C974    1.390   .     S
C455   C120    1.329   1_565 S
C455   H147    1.088   1_565 S
C457   O493    1.300   .     A
C457   C459    1.485   .     S
C457   O495    1.303   .     A
C458   O494    1.300   .     A
C458   C460    1.485   .     S
C458   O496    1.303   .     A
C459   C465    1.404   .     A
C459   C463    1.419   .     A
C460   C466    1.404   .     A
C460   C464    1.419   .     A
C461   C469    1.400   .     A
C461   C463    1.398   .     A
C462   C464    1.398   .     A
C462   C470    1.400   .     A
C462   H368    1.086   1_655 S
C464   C385    1.479   1_655 S
C465   H478    1.073   .     S
C465   C467    1.408   .     A
C466   H477    1.073   .     S
C466   C468    1.408   .     A
C467   C471    1.431   .     A
C467   C469    1.414   .     A
C468   C470    1.414   .     A
C468   C472    1.431   .     A
C469   C957    1.390   .     S
C470   C958    1.390   1_554 S
C471   C976    1.428   .     S
C472   C975    1.428   1_554 S
Cu473  O496    1.910   .     S
Cu473  O492    1.952   .     S
Cu473  N488    2.018   .     S
Cu473  O489    1.956   .     S
Cu473  O493    1.938   .     S
Cu473  Cu474   2.685   .     S
Cu474  O495    1.910   .     S
Cu474  O491    1.952   .     S
Cu474  N487    2.018   .     S
Cu474  O490    1.956   .     S
Cu474  O494    1.938   .     S
H479   C349    1.086   1_655 S
H484   C120    1.088   1_565 S
H486   N376    1.029   1_655 S
N487   H373    1.029   1_655 S
N487   N376    1.279   1_655 S
C497   O498    1.222   .     D
C497   O499    1.398   .     S
O499   H500    1.014   .     S
C501   O503    1.398   .     S
C501   O502    1.222   .     D
C501   C351    1.479   1_655 S
O503   H504    1.014   .     S
C505   O547    1.285   .     A
C505   C511    1.428   .     S
C505   O545    1.290   .     A
C506   O548    1.285   .     A
C506   O546    1.290   .     A
C506   C512    1.428   .     S
C507   C509    1.385   .     A
C507   C528    1.416   .     A
C507   H537    1.075   .     S
C508   H538    1.075   .     S
C508   C510    1.385   .     A
C508   C527    1.416   .     A
C509   H531    1.085   .     S
C510   H532    1.085   .     S
C510   C22     1.390   1_556 S
C511   C680    1.329   .     S
C511   H707    1.088   .     S
C512   C847    1.329   1_545 S
C512   H876    1.088   1_545 S
C513   O549    1.300   .     A
C513   C515    1.485   .     S
C513   O551    1.303   .     A
C514   O550    1.300   .     A
C514   C516    1.485   .     S
C514   O552    1.303   .     A
C515   C521    1.404   .     A
C515   C519    1.419   .     A
C516   C522    1.404   .     A
C516   C520    1.419   .     A
C517   C525    1.400   .     A
C517   C519    1.398   .     A
C517   H647    1.086   1_455 S
C518   C520    1.398   .     A
C518   C526    1.400   .     A
C518   H592    1.086   .     S
C519   C669    1.479   1_455 S
C520   C609    1.479   .     S
C521   H534    1.073   .     S
C521   C523    1.408   .     A
C522   H533    1.073   .     S
C522   C524    1.408   .     A
C523   C527    1.431   .     A
C523   C525    1.414   .     A
C524   C526    1.414   .     A
C524   C528    1.431   .     A
C525   C5      1.390   1_556 S
C527   C24     1.428   1_556 S
Cu529  O552    1.910   .     S
Cu529  O548    1.952   .     S
Cu529  N544    2.018   .     S
Cu529  O545    1.956   .     S
Cu529  O549    1.938   .     S
Cu529  Cu530   2.685   .     S
Cu530  O551    1.910   .     S
Cu530  O547    1.952   .     S
Cu530  N543    2.018   .     S
Cu530  O546    1.956   .     S
Cu530  O550    1.938   .     S
H535   C573    1.086   .     S
H536   C630    1.086   1_455 S
H539   C847    1.088   1_545 S
H540   C680    1.088   .     S
H541   N655    1.029   1_455 S
H542   N600    1.029   .     S
N543   H597    1.029   .     S
N543   N600    1.279   .     S
N544   H654    1.029   1_455 S
N544   N655    1.279   1_455 S
C553   O554    1.222   .     D
C553   O555    1.398   .     S
C553   C632    1.479   1_455 S
O555   H556    1.014   .     S
C557   O559    1.398   .     S
C557   O558    1.222   .     D
C557   C575    1.479   .     S
O559   H560    1.014   .     S
C561   O603    1.285   .     A
C561   C567    1.428   .     S
C561   O601    1.290   .     A
C562   O604    1.285   .     A
C562   O602    1.290   .     A
C562   C568    1.428   .     S
C563   C565    1.385   .     A
C563   C584    1.416   .     A
C563   H593    1.075   .     S
C564   H594    1.075   .     S
C564   C566    1.385   .     A
C564   C583    1.416   .     A
C565   H587    1.085   .     S
C566   H588    1.085   .     S
C566   C78     1.390   1_556 S
C567   C736    1.329   .     S
C567   H763    1.088   .     S
C568   C903    1.329   1_545 S
C568   H932    1.088   1_545 S
C569   O605    1.300   .     A
C569   C571    1.485   .     S
C569   O607    1.303   .     A
C570   O606    1.300   .     A
C570   C572    1.485   .     S
C570   O608    1.303   .     A
C571   C577    1.404   .     A
C571   C575    1.419   .     A
C572   C578    1.404   .     A
C572   C576    1.419   .     A
C573   C581    1.400   .     A
C573   C575    1.398   .     A
C574   C576    1.398   .     A
C574   C582    1.400   .     A
C574   H648    1.086   .     S
C576   C665    1.479   .     S
C577   H590    1.073   .     S
C577   C579    1.408   .     A
C578   H589    1.073   .     S
C578   C580    1.408   .     A
C579   C583    1.431   .     A
C579   C581    1.414   .     A
C580   C582    1.414   .     A
C580   C584    1.431   .     A
C581   C61     1.390   1_556 S
C583   C80     1.428   1_556 S
Cu585  O608    1.910   .     S
Cu585  O604    1.952   .     S
Cu585  N600    2.018   .     S
Cu585  O601    1.956   .     S
Cu585  O605    1.938   .     S
Cu585  Cu586   2.685   .     S
Cu586  O607    1.910   .     S
Cu586  O603    1.952   .     S
Cu586  N599    2.018   .     S
Cu586  O602    1.956   .     S
Cu586  O606    1.938   .     S
H591   C629    1.086   .     S
H595   C903    1.088   1_545 S
H596   C736    1.088   .     S
H598   N656    1.029   .     S
N599   H653    1.029   .     S
N599   N656    1.279   .     S
C609   O610    1.222   .     D
C609   O611    1.398   .     S
O611   H612    1.014   .     S
C613   O615    1.398   .     S
C613   O614    1.222   .     D
C613   C631    1.479   .     S
O615   H616    1.014   .     S
C617   O659    1.285   .     A
C617   C623    1.428   .     S
C617   O657    1.290   .     A
C618   O660    1.285   .     A
C618   O658    1.290   .     A
C618   C624    1.428   .     S
C619   C621    1.385   .     A
C619   C640    1.416   .     A
C619   H649    1.075   .     S
C620   H650    1.075   .     S
C620   C622    1.385   .     A
C620   C639    1.416   .     A
C621   H643    1.085   .     S
C622   H644    1.085   .     S
C622   C134    1.390   1_556 S
C623   C792    1.329   .     S
C623   H819    1.088   .     S
C624   C959    1.329   1_545 S
C624   H988    1.088   1_545 S
C625   O661    1.300   .     A
C625   C627    1.485   .     S
C625   O663    1.303   .     A
C626   O662    1.300   .     A
C626   C628    1.485   .     S
C626   O664    1.303   .     A
C627   C633    1.404   .     A
C627   C631    1.419   .     A
C628   C634    1.404   .     A
C628   C632    1.419   .     A
C629   C637    1.400   .     A
C629   C631    1.398   .     A
C630   C632    1.398   .     A
C630   C638    1.400   .     A
C630   H536    1.086   1_655 S
C632   C553    1.479   1_655 S
C633   H646    1.073   .     S
C633   C635    1.408   .     A
C634   H645    1.073   .     S
C634   C636    1.408   .     A
C635   C639    1.431   .     A
C635   C637    1.414   .     A
C636   C638    1.414   .     A
C636   C640    1.431   .     A
C637   C117    1.390   1_556 S
C639   C136    1.428   1_556 S
Cu641  O664    1.910   .     S
Cu641  O660    1.952   .     S
Cu641  N656    2.018   .     S
Cu641  O657    1.956   .     S
Cu641  O661    1.938   .     S
Cu641  Cu642   2.685   .     S
Cu642  O663    1.910   .     S
Cu642  O659    1.952   .     S
Cu642  N655    2.018   .     S
Cu642  O658    1.956   .     S
Cu642  O662    1.938   .     S
H647   C517    1.086   1_655 S
H651   C959    1.088   1_545 S
H652   C792    1.088   .     S
H654   N544    1.029   1_655 S
N655   H541    1.029   1_655 S
N655   N544    1.279   1_655 S
C665   O666    1.222   .     D
C665   O667    1.398   .     S
O667   H668    1.014   .     S
C669   O671    1.398   .     S
C669   O670    1.222   .     D
C669   C519    1.479   1_655 S
O671   H672    1.014   .     S
C673   O715    1.285   .     A
C673   C679    1.428   .     S
C673   O713    1.290   .     A
C674   O716    1.285   .     A
C674   O714    1.290   .     A
C674   C680    1.428   .     S
C675   C677    1.385   .     A
C675   C696    1.416   .     A
C675   H705    1.075   .     S
C676   H706    1.075   .     S
C676   C678    1.385   .     A
C676   C695    1.416   .     A
C677   H699    1.085   .     S
C678   H700    1.085   .     S
C678   C190    1.390   1_556 S
C679   C848    1.329   .     S
C679   H875    1.088   .     S
C681   O717    1.300   .     A
C681   C683    1.485   .     S
C681   O719    1.303   .     A
C682   O718    1.300   .     A
C682   C684    1.485   .     S
C682   O720    1.303   .     A
C683   C689    1.404   .     A
C683   C687    1.419   .     A
C684   C690    1.404   .     A
C684   C688    1.419   .     A
C685   C693    1.400   .     A
C685   C687    1.398   .     A
C685   H815    1.086   1_455 S
C686   C688    1.398   .     A
C686   C694    1.400   .     A
C686   H760    1.086   .     S
C687   C837    1.479   1_455 S
C688   C777    1.479   .     S
C689   H702    1.073   .     S
C689   C691    1.408   .     A
C690   H701    1.073   .     S
C690   C692    1.408   .     A
C691   C695    1.431   .     A
C691   C693    1.414   .     A
C692   C694    1.414   .     A
C692   C696    1.431   .     A
C693   C173    1.390   1_556 S
C695   C192    1.428   1_556 S
Cu697  O720    1.910   .     S
Cu697  O716    1.952   .     S
Cu697  N712    2.018   .     S
Cu697  O713    1.956   .     S
Cu697  O717    1.938   .     S
Cu697  Cu698   2.685   .     S
Cu698  O719    1.910   .     S
Cu698  O715    1.952   .     S
Cu698  N711    2.018   .     S
Cu698  O714    1.956   .     S
Cu698  O718    1.938   .     S
H703   C741    1.086   .     S
H704   C798    1.086   1_455 S
H708   C848    1.088   .     S
H709   N823    1.029   1_455 S
H710   N768    1.029   .     S
N711   H765    1.029   .     S
N711   N768    1.279   .     S
N712   H822    1.029   1_455 S
N712   N823    1.279   1_455 S
C721   O722    1.222   .     D
C721   O723    1.398   .     S
C721   C800    1.479   1_455 S
O723   H724    1.014   .     S
C725   O727    1.398   .     S
C725   O726    1.222   .     D
C725   C743    1.479   .     S
O727   H728    1.014   .     S
C729   O771    1.285   .     A
C729   C735    1.428   .     S
C729   O769    1.290   .     A
C730   O772    1.285   .     A
C730   O770    1.290   .     A
C730   C736    1.428   .     S
C731   C733    1.385   .     A
C731   C752    1.416   .     A
C731   H761    1.075   .     S
C732   H762    1.075   .     S
C732   C734    1.385   .     A
C732   C751    1.416   .     A
C733   H755    1.085   .     S
C734   H756    1.085   .     S
C734   C246    1.390   1_556 S
C735   C904    1.329   .     S
C735   H931    1.088   .     S
C737   O773    1.300   .     A
C737   C739    1.485   .     S
C737   O775    1.303   .     A
C738   O774    1.300   .     A
C738   C740    1.485   .     S
C738   O776    1.303   .     A
C739   C745    1.404   .     A
C739   C743    1.419   .     A
C740   C746    1.404   .     A
C740   C744    1.419   .     A
C741   C749    1.400   .     A
C741   C743    1.398   .     A
C742   C744    1.398   .     A
C742   C750    1.400   .     A
C742   H816    1.086   .     S
C744   C833    1.479   .     S
C745   H758    1.073   .     S
C745   C747    1.408   .     A
C746   H757    1.073   .     S
C746   C748    1.408   .     A
C747   C751    1.431   .     A
C747   C749    1.414   .     A
C748   C750    1.414   .     A
C748   C752    1.431   .     A
C749   C229    1.390   1_556 S
C751   C248    1.428   1_556 S
Cu753  O776    1.910   .     S
Cu753  O772    1.952   .     S
Cu753  N768    2.018   .     S
Cu753  O769    1.956   .     S
Cu753  O773    1.938   .     S
Cu753  Cu754   2.685   .     S
Cu754  O775    1.910   .     S
Cu754  O771    1.952   .     S
Cu754  N767    2.018   .     S
Cu754  O770    1.956   .     S
Cu754  O774    1.938   .     S
H759   C797    1.086   .     S
H764   C904    1.088   .     S
H766   N824    1.029   .     S
N767   H821    1.029   .     S
N767   N824    1.279   .     S
C777   O778    1.222   .     D
C777   O779    1.398   .     S
O779   H780    1.014   .     S
C781   O783    1.398   .     S
C781   O782    1.222   .     D
C781   C799    1.479   .     S
O783   H784    1.014   .     S
C785   O827    1.285   .     A
C785   C791    1.428   .     S
C785   O825    1.290   .     A
C786   O828    1.285   .     A
C786   O826    1.290   .     A
C786   C792    1.428   .     S
C787   C789    1.385   .     A
C787   C808    1.416   .     A
C787   H817    1.075   .     S
C788   H818    1.075   .     S
C788   C790    1.385   .     A
C788   C807    1.416   .     A
C789   H811    1.085   .     S
C790   H812    1.085   .     S
C790   C302    1.390   1_556 S
C791   C960    1.329   .     S
C791   H987    1.088   .     S
C793   O829    1.300   .     A
C793   C795    1.485   .     S
C793   O831    1.303   .     A
C794   O830    1.300   .     A
C794   C796    1.485   .     S
C794   O832    1.303   .     A
C795   C801    1.404   .     A
C795   C799    1.419   .     A
C796   C802    1.404   .     A
C796   C800    1.419   .     A
C797   C805    1.400   .     A
C797   C799    1.398   .     A
C798   C800    1.398   .     A
C798   C806    1.400   .     A
C798   H704    1.086   1_655 S
C800   C721    1.479   1_655 S
C801   H814    1.073   .     S
C801   C803    1.408   .     A
C802   H813    1.073   .     S
C802   C804    1.408   .     A
C803   C807    1.431   .     A
C803   C805    1.414   .     A
C804   C806    1.414   .     A
C804   C808    1.431   .     A
C805   C285    1.390   1_556 S
C807   C304    1.428   1_556 S
Cu809  O832    1.910   .     S
Cu809  O828    1.952   .     S
Cu809  N824    2.018   .     S
Cu809  O825    1.956   .     S
Cu809  O829    1.938   .     S
Cu809  Cu810   2.685   .     S
Cu810  O831    1.910   .     S
Cu810  O827    1.952   .     S
Cu810  N823    2.018   .     S
Cu810  O826    1.956   .     S
Cu810  O830    1.938   .     S
H815   C685    1.086   1_655 S
H820   C960    1.088   .     S
H822   N712    1.029   1_655 S
N823   H709    1.029   1_655 S
N823   N712    1.279   1_655 S
C833   O834    1.222   .     D
C833   O835    1.398   .     S
O835   H836    1.014   .     S
C837   O839    1.398   .     S
C837   O838    1.222   .     D
C837   C687    1.479   1_655 S
O839   H840    1.014   .     S
C841   O883    1.285   .     A
C841   C847    1.428   .     S
C841   O881    1.290   .     A
C842   O884    1.285   .     A
C842   O882    1.290   .     A
C842   C848    1.428   .     S
C843   C845    1.385   .     A
C843   C864    1.416   .     A
C843   H873    1.075   .     S
C844   H874    1.075   .     S
C844   C846    1.385   .     A
C844   C863    1.416   .     A
C845   H867    1.085   .     S
C846   H868    1.085   .     S
C846   C358    1.390   1_556 S
C847   C512    1.329   1_565 S
C847   H539    1.088   1_565 S
C849   O885    1.300   .     A
C849   C851    1.485   .     S
C849   O887    1.303   .     A
C850   O886    1.300   .     A
C850   C852    1.485   .     S
C850   O888    1.303   .     A
C851   C857    1.404   .     A
C851   C855    1.419   .     A
C852   C858    1.404   .     A
C852   C856    1.419   .     A
C853   C861    1.400   .     A
C853   C855    1.398   .     A
C853   H983    1.086   1_455 S
C854   C856    1.398   .     A
C854   C862    1.400   .     A
C854   H928    1.086   .     S
C855   C1005   1.479   1_455 S
C856   C945    1.479   .     S
C857   H870    1.073   .     S
C857   C859    1.408   .     A
C858   H869    1.073   .     S
C858   C860    1.408   .     A
C859   C863    1.431   .     A
C859   C861    1.414   .     A
C860   C862    1.414   .     A
C860   C864    1.431   .     A
C861   C341    1.390   1_556 S
C863   C360    1.428   1_556 S
Cu865  O888    1.910   .     S
Cu865  O884    1.952   .     S
Cu865  N880    2.018   .     S
Cu865  O881    1.956   .     S
Cu865  O885    1.938   .     S
Cu865  Cu866   2.685   .     S
Cu866  O887    1.910   .     S
Cu866  O883    1.952   .     S
Cu866  N879    2.018   .     S
Cu866  O882    1.956   .     S
Cu866  O886    1.938   .     S
H871   C909    1.086   .     S
H872   C966    1.086   1_455 S
H876   C512    1.088   1_565 S
H877   N991    1.029   1_455 S
H878   N936    1.029   .     S
N879   H933    1.029   .     S
N879   N936    1.279   .     S
N880   H990    1.029   1_455 S
N880   N991    1.279   1_455 S
C889   O890    1.222   .     D
C889   O891    1.398   .     S
C889   C968    1.479   1_455 S
O891   H892    1.014   .     S
C893   O895    1.398   .     S
C893   O894    1.222   .     D
C893   C911    1.479   .     S
O895   H896    1.014   .     S
C897   O939    1.285   .     A
C897   C903    1.428   .     S
C897   O937    1.290   .     A
C898   O940    1.285   .     A
C898   O938    1.290   .     A
C898   C904    1.428   .     S
C899   C901    1.385   .     A
C899   C920    1.416   .     A
C899   H929    1.075   .     S
C900   H930    1.075   .     S
C900   C902    1.385   .     A
C900   C919    1.416   .     A
C901   H923    1.085   .     S
C902   H924    1.085   .     S
C902   C414    1.390   1_556 S
C903   C568    1.329   1_565 S
C903   H595    1.088   1_565 S
C905   O941    1.300   .     A
C905   C907    1.485   .     S
C905   O943    1.303   .     A
C906   O942    1.300   .     A
C906   C908    1.485   .     S
C906   O944    1.303   .     A
C907   C913    1.404   .     A
C907   C911    1.419   .     A
C908   C914    1.404   .     A
C908   C912    1.419   .     A
C909   C917    1.400   .     A
C909   C911    1.398   .     A
C910   C912    1.398   .     A
C910   C918    1.400   .     A
C910   H984    1.086   .     S
C912   C1001   1.479   .     S
C913   H926    1.073   .     S
C913   C915    1.408   .     A
C914   H925    1.073   .     S
C914   C916    1.408   .     A
C915   C919    1.431   .     A
C915   C917    1.414   .     A
C916   C918    1.414   .     A
C916   C920    1.431   .     A
C917   C397    1.390   1_556 S
C919   C416    1.428   1_556 S
Cu921  O944    1.910   .     S
Cu921  O940    1.952   .     S
Cu921  N936    2.018   .     S
Cu921  O937    1.956   .     S
Cu921  O941    1.938   .     S
Cu921  Cu922   2.685   .     S
Cu922  O943    1.910   .     S
Cu922  O939    1.952   .     S
Cu922  N935    2.018   .     S
Cu922  O938    1.956   .     S
Cu922  O942    1.938   .     S
H927   C965    1.086   .     S
H932   C568    1.088   1_565 S
H934   N992    1.029   .     S
N935   H989    1.029   .     S
N935   N992    1.279   .     S
C945   O946    1.222   .     D
C945   O947    1.398   .     S
O947   H948    1.014   .     S
C949   O951    1.398   .     S
C949   O950    1.222   .     D
C949   C967    1.479   .     S
O951   H952    1.014   .     S
C953   O995    1.285   .     A
C953   C959    1.428   .     S
C953   O993    1.290   .     A
C954   O996    1.285   .     A
C954   O994    1.290   .     A
C954   C960    1.428   .     S
C955   C957    1.385   .     A
C955   C976    1.416   .     A
C955   H985    1.075   .     S
C956   H986    1.075   .     S
C956   C958    1.385   .     A
C956   C975    1.416   .     A
C957   H979    1.085   .     S
C958   H980    1.085   .     S
C958   C470    1.390   1_556 S
C959   C624    1.329   1_565 S
C959   H651    1.088   1_565 S
C961   O997    1.300   .     A
C961   C963    1.485   .     S
C961   O999    1.303   .     A
C962   O998    1.300   .     A
C962   C964    1.485   .     S
C962   O1000   1.303   .     A
C963   C969    1.404   .     A
C963   C967    1.419   .     A
C964   C970    1.404   .     A
C964   C968    1.419   .     A
C965   C973    1.400   .     A
C965   C967    1.398   .     A
C966   C968    1.398   .     A
C966   C974    1.400   .     A
C966   H872    1.086   1_655 S
C968   C889    1.479   1_655 S
C969   H982    1.073   .     S
C969   C971    1.408   .     A
C970   H981    1.073   .     S
C970   C972    1.408   .     A
C971   C975    1.431   .     A
C971   C973    1.414   .     A
C972   C974    1.414   .     A
C972   C976    1.431   .     A
C973   C453    1.390   1_556 S
C975   C472    1.428   1_556 S
Cu977  O1000   1.910   .     S
Cu977  O996    1.952   .     S
Cu977  N992    2.018   .     S
Cu977  O993    1.956   .     S
Cu977  O997    1.938   .     S
Cu977  Cu978   2.685   .     S
Cu978  O999    1.910   .     S
Cu978  O995    1.952   .     S
Cu978  N991    2.018   .     S
Cu978  O994    1.956   .     S
Cu978  O998    1.938   .     S
H983   C853    1.086   1_655 S
H988   C624    1.088   1_565 S
H990   N880    1.029   1_655 S
N991   H877    1.029   1_655 S
N991   N880    1.279   1_655 S
C1001  O1002   1.222   .     D
C1001  O1003   1.398   .     S
O1003  H1004   1.014   .     S
C1005  O1007   1.398   .     S
C1005  O1006   1.222   .     D
C1005  C855    1.479   1_655 S
O1007  H1008   1.014   .     S
